data_mof_unit_61049.cif
_audit_creation_date              2013-03-05T15:45:18-0500
_audit_creation_method            fapswitch 2.2
_symmetry_space_group_name_H-M    P1
_symmetry_Int_Tables_number       1
_space_group_crystal_system       triclinic
_cell_length_a                    15.102664
_cell_length_b                    15.112947
_cell_length_c                    16.037361
_cell_angle_alpha                 89.292429
_cell_angle_beta                  90.125197
_cell_angle_gamma                 90.534452
_cell_volume                      3660.01345809

loop_
_atom_site_label
_atom_site_type_symbol
_atom_site_description
_atom_site_fract_x
_atom_site_fract_y
_atom_site_fract_z
_atom_type_partial_charge
Zn1   Zn    Zn3+2 0.574310 0.433680 0.576480 1.031865
Zn2   Zn    Zn3+2 0.433700 0.417860 0.431740 0.988393
Zn3   Zn    Zn3+2 0.574160 0.575160 0.430870 0.971173
Zn4   Zn    Zn3+2 0.417840 0.573310 0.560900 0.985719
O1    O     O_3   0.500000 0.500000 0.500000 -0.492000
O2    O     O_R   0.296270 0.542620 0.535390 -0.638374
O3    O     O_R   0.698230 0.462280 0.560770 -0.639704
O4    O     O_R   0.461480 0.296280 0.460320 -0.645001
O5    O     O_R   0.544020 0.698820 0.443520 -0.642557
O6    O     O_R   0.461330 0.435620 0.316920 -0.636016
O7    O     O_R   0.434750 0.558200 0.677930 -0.639861
O8    O     O_R   0.559650 0.545720 0.316320 -0.635698
O9    O     O_R   0.544270 0.460460 0.688830 -0.605009
O10   O     O_R   0.559890 0.307360 0.561630 -0.603321
O11   O     O_R   0.434610 0.697530 0.534530 -0.641625
O12   O     O_R   0.307380 0.433810 0.444990 -0.642468
O13   O     O_R   0.698130 0.561300 0.458860 -0.639612
C1    C     C_R   0.259849 0.485161 0.488443 0.812133
C2    C     C_R   0.739901 0.515044 0.512124 0.790410
C3    C     C_R   0.511127 0.259921 0.514811 0.871620
C4    C     C_R   0.486972 0.739946 0.485753 0.792051
C5    C     C_R   0.512917 0.488699 0.277194 0.809705
C6    C     C_R   0.487340 0.511205 0.722665 0.836245
C7    C     C_1   0.518458 0.484190 0.188167 -0.129330
C8    C     C_2   0.528182 0.476177 0.023860 -0.146176
C9    C     C_2   0.472962 0.523253 0.976061 -0.162182
C10   C     C_1   0.478036 0.519023 0.886600 0.025692
C11   C     C_1   0.523008 0.480452 0.113317 0.010868
C12   C     C_1   0.482324 0.515437 0.811729 -0.109488
H1    H     H_    0.423457 0.565369 0.003889 0.160806
H2    H     H_    0.577689 0.434049 0.996053 0.171066
C13   C     C_R   0.163532 0.475884 0.487922 -0.020889
C14   C     C_R   0.835626 0.522409 0.515868 0.005291
C15   C     C_R   0.967091 0.614322 0.525457 -0.205661
C16   C     C_R   0.875326 0.605526 0.526981 -0.191067
C17   C     C_R   0.887351 0.447839 0.502059 -0.267525
C18   C     C_R   0.979349 0.456620 0.497247 0.181076
C19   C     C_R   0.019508 0.540399 0.510056 0.174117
C20   C     C_R   0.111379 0.549102 0.506431 -0.265420
C21   C     C_R   0.123474 0.393453 0.472864 -0.183324
C22   C     C_R   0.031796 0.383621 0.478372 -0.209700
H3    H     H_    0.142335 0.613000 0.517287 0.157279
H4    H     H_    0.163250 0.336221 0.459012 0.166878
H5    H     H_    0.996915 0.678951 0.534802 0.146806
H6    H     H_    0.001983 0.319230 0.467754 0.147414
H7    H     H_    0.835133 0.663454 0.536920 0.146172
H8    H     H_    0.855739 0.384116 0.491901 0.139289
C23   C     C_R   0.506630 0.164006 0.526821 -0.144199
C24   C     C_R   0.484175 0.835903 0.478358 -0.007205
C25   C     C_R   0.496640 0.967598 0.391537 -0.191303
C26   C     C_R   0.491518 0.875949 0.399341 -0.192868
C27   C     C_R   0.482413 0.887667 0.549965 -0.243003
C28   C     C_R   0.490631 0.979688 0.542823 0.115353
C29   C     C_R   0.496948 0.019841 0.462963 0.185963
C30   C     C_R   0.504254 0.111500 0.455645 -0.319842
C31   C     C_R   0.500699 0.124318 0.607182 0.309818
C32   C     C_R   0.493498 0.031999 0.614170 -0.275827
H9    H     H_    0.508723 0.142319 0.394298 0.164888
H10   H     H_    0.501898 0.997453 0.329935 0.145006
H11   H     H_    0.487965 0.001173 0.675355 0.183563
H12   H     H_    0.493600 0.836069 0.343704 0.152911
H13   H     H_    0.478415 0.856101 0.610970 0.148124
N1    N     N_R   0.497147 0.176295 0.681600 0.217371
O14   O     O_R   0.447032 0.245771 0.684494 -0.398368
O15   O     O_R   0.532501 0.146606 0.750403 -0.380443

loop_
_geom_bond_atom_site_label_1
_geom_bond_atom_site_label_2
_geom_bond_distance
_ccdc_geom_bond_type
C8    H2    1.086567 S    
C23   C30   1.398422 A    
N1    O15   1.301387 A    
Zn3   O13   1.937038 S    
C18   C19   1.415885 A    
Zn3   O5    1.940791 S    
O8    C5    1.278501 A    
C10   C12   1.204531 T    
Zn2   O12   1.937643 S    
C26   H12   1.083577 S    
C24   C27   1.397929 A    
Zn4   O11   1.933741 S    
C4    C24   1.454580 S    
C25   C26   1.390636 A    
Zn3   O8    1.907210 S    
C31   N1    1.438239 S    
C15   H5    1.083726 S    
O4    C3    1.273106 A    
C28   C29   1.413479 A    
O6    C5    1.278392 A    
Zn4   O7    1.904825 S    
O5    C4    1.268983 A    
C9    C10   1.439171 S    
C25   C29   1.399206 A    
Zn1   O3    1.933178 S    
C15   C16   1.391254 A    
Zn1   O1    1.937292 S    
C25   H10   1.083774 S    
C6    C12   1.432782 S    
O7    C6    1.282732 A    
C17   C18   1.396727 A    
O13   C2    1.267868 A    
C9    H1    1.086576 S    
C20   H3    1.084816 S    
O3    C2    1.272001 A    
C13   C21   1.403212 A    
C18   C22   1.400632 A    
C19   C20   1.393776 A    
O2    C1    1.276302 A    
C5    C7    1.432877 S    
C13   C20   1.399398 A    
Zn2   O1    1.935875 S    
C1    C13   1.460091 S    
C31   C32   1.401559 A    
C8    C11   1.439232 S    
N1    O14   1.301411 A    
Zn2   O6    1.904213 S    
O10   C3    1.273255 A    
O11   C4    1.276344 A    
C14   C17   1.397388 A    
Zn1   O9    1.908171 S    
C27   C28   1.398393 A    
O9    C6    1.283143 A    
C17   H8    1.084832 S    
O12   C1    1.276377 A    
Zn4   O2    1.933656 S    
C2    C14   1.450112 S    
C30   H9    1.085285 S    
C23   C31   1.417442 A    
C24   C26   1.401733 A    
C28   C32   1.399138 A    
C29   C30   1.392130 A    
C21   C22   1.394026 A    
C32   H11   1.084071 S    
C22   H6    1.083654 S    
Zn1   O10   1.936990 S    
C3    C23   1.460905 S    
C14   C16   1.400060 A    
C8    C9    1.335707 D    
C15   C19   1.399996 A    
C16   H7    1.083573 S    
C27   H13   1.084717 S    
C21   H4    1.083225 S    
Zn2   O4    1.937782 S    
C7    C11   1.204570 T    
Zn4   O1    1.943899 S    
Zn3   O1    1.929870 S    
