data_mof_unit_30075.cif
_audit_creation_date              2012-12-10T18:05:56-0500
_audit_creation_method            fapswitch 2.2
_symmetry_space_group_name_H-M    P1
_symmetry_Int_Tables_number       1
_space_group_crystal_system       triclinic
_cell_length_a                    12.702896
_cell_length_b                    13.044387
_cell_length_c                    14.935212
_cell_angle_alpha                 91.915369
_cell_angle_beta                  102.234049
_cell_angle_gamma                 82.499396
_cell_volume                      2397.8477811

loop_
_atom_site_label
_atom_site_type_symbol
_atom_type_description
_atom_site_fract_x
_atom_site_fract_y
_atom_site_fract_z
_atom_type_partial_charge
C1    C     C_R   0.439468 0.691139 0.495876 0.880606
C2    C     C_R   0.442152 0.431592 0.080716 -0.020315
C3    C     C_R   0.634246 0.623436 0.071910 -0.206426
C4    C     C_R   0.636918 0.619830 0.979584 -0.232897
C5    C     C_R   0.573738 0.555670 0.920611 0.153961
C6    C     C_R   0.510340 0.491195 0.954536 0.090732
C7    C     C_R   0.449402 0.423711 0.895356 0.020945
C8    C     C_R   0.387307 0.359330 0.929280 -0.315677
C9    C     C_R   0.383571 0.363072 0.021716 0.635204
C10   C     C_R   0.571350 0.556222 0.827723 -0.262419
C11   C     C_R   0.507434 0.492413 0.769201 -0.050615
C12   C     C_R   0.501838 0.497754 0.672786 0.851916
C13   C     C_R   0.450200 0.423373 0.802753 -0.225028
C14   C     C_R   0.707220 0.067014 0.635133 -0.312425
C15   C     C_R   0.594428 0.200089 0.536390 -0.215025
C16   C     C_R   0.295480 0.838318 0.453568 -0.411886
C17   C     C_R   0.258697 0.944227 0.453078 0.462192
C18   C     C_R   0.332052 0.013363 0.490446 0.379681
C19   C     C_R   0.441882 0.975500 0.529821 -0.109436
C20   C     C_R   0.468205 0.869996 0.549952 0.023047
C21   C     C_R   0.526116 0.038483 0.551437 0.115332
C22   C     C_R   0.624949 0.002782 0.612096 0.087851
C23   C     C_R   0.560378 0.308526 0.512479 0.939299
C24   C     C_R   0.639480 0.903515 0.648272 -0.218043
C25   C     C_R   0.562052 0.837209 0.616743 -0.154519
C26   C     C_R   0.516876 0.133139 0.508882 -0.296513
C27   C     C_R   0.691311 0.166522 0.598832 0.641085
C28   C     C_R   0.399931 0.800835 0.502129 -0.162810
C29   C     C_R   0.087365 0.358188 0.357572 0.490771
C30   C     C_R   0.797717 0.636260 0.604021 0.046116
C31   C     C_R   0.892132 0.680987 0.609353 -0.286901
C32   C     C_R   0.968785 0.637446 0.560475 -0.133246
C33   C     C_R   0.955267 0.544250 0.510986 -0.023471
C34   C     C_R   0.498530 0.502403 0.327094 0.954243
C35   C     C_R   0.852445 0.508118 0.499003 0.113143
C36   C     C_R   0.038523 0.487167 0.471172 -0.192780
C37   C     C_R   0.010248 0.410086 0.404103 -0.151080
C38   C     C_R   0.906425 0.382609 0.386522 -0.270004
C39   C     C_R   0.830943 0.426445 0.435200 0.641919
C40   C     C_R   0.150491 0.497782 0.498591 0.542247
C41   C     C_R   0.194100 0.376902 0.384022 -0.134734
C42   C     C_R   0.438834 0.436499 0.172886 -0.278561
C43   C     C_R   0.496979 0.505245 0.230713 -0.184223
C44   C     C_R   0.556527 0.573438 0.197306 0.450811
C45   C     C_R   0.566393 0.564504 0.105842 0.021704
C46   C     C_R   0.506628 0.495444 0.047196 -0.078115
H1    H     H_    0.392791 0.385432 0.200428 0.216856
H2    H     H_    0.712282 0.875813 0.697843 0.132944
H3    H     H_    0.782445 0.041098 0.682588 0.167363
H4    H     H_    0.447970 0.156824 0.454348 0.231451
H5    H     H_    0.242376 0.785580 0.416487 0.194197
H6    H     H_    0.574695 0.760882 0.646070 0.140765
H7    H     H_    0.255586 0.337278 0.350505 0.185069
H8    H     H_    0.883951 0.322024 0.337396 0.211740
H9    H     H_    0.737692 0.670328 0.641067 0.113556
H10   H     H_    0.037120 0.678789 0.561209 0.194735
H11   H     H_    0.904911 0.750438 0.649790 0.145387
H12   H     H_    0.684647 0.673324 0.116149 0.171024
H13   H     H_    0.687450 0.667962 0.954147 0.146058
H14   H     H_    0.616935 0.608148 0.800597 0.144595
H15   H     H_    0.405943 0.370231 0.756798 0.141151
H16   H     H_    0.340700 0.307131 0.884072 0.172948
N1    N     N_R   0.222190 0.444670 0.452360 -0.177773
N2    N     N_R   0.776970 0.554790 0.547140 -0.109628
O1    O     O_R   0.366740 0.627160 0.477250 -0.581090
O2    O     O_R   0.544830 0.662520 0.507680 -0.630542
O3    O     O_R   0.410940 0.482340 0.616930 -0.600287
O4    O     O_R   0.589030 0.517700 0.647360 -0.632090
O5    O     O_R   0.455170 0.337480 0.492320 -0.636975
O6    O     O_R   0.633260 0.372840 0.522750 -0.483019
O7    O     O_R   0.410970 0.482300 0.352640 -0.653798
O8    O     O_R   0.589060 0.517660 0.383070 -0.504459
Zn1   Zn    Zn3+2 0.381090 0.476390 0.479680 0.964914
Zn2   Zn    Zn3+2 0.618910 0.523610 0.520320 1.035966
O9    O     O_3   0.291863 0.116272 0.497766 -0.584005
C47   C     C_3   0.269777 0.132660 0.586348 0.139586
H17   H     H_    0.344898 0.115071 0.640336 0.130414
H18   H     H_    0.207521 0.084359 0.597398 0.138655
C48   C     C_3   0.226171 0.245103 0.596798 -0.832852
H19   H     H_    0.148599 0.264620 0.546640 0.263653
H20   H     H_    0.211448 0.259461 0.667089 0.190476
H21   H     H_    0.286696 0.294408 0.584952 0.265298
O10   O     O_3   0.153720 0.983435 0.411056 -0.557416
C49   C     C_3   0.077590 0.939559 0.449741 0.083775
H22   H     H_    0.104067 0.930883 0.525597 0.116230
H23   H     H_    0.064061 0.862734 0.418075 0.146373
C50   C     C_3   0.970074 0.009939 0.430473 -0.733320
H24   H     H_    0.939449 0.018725 0.355404 0.259736
H25   H     H_    0.909238 0.976210 0.460128 0.198383
H26   H     H_    0.981120 0.087332 0.461749 0.268528
O11   O     O_3   0.061063 0.283839 0.291154 -0.587853
C51   C     C_3   0.020031 0.332053 0.205046 0.039154
H27   H     H_    0.972937 0.409915 0.209381 0.133200
H28   H     H_    0.962565 0.282950 0.163397 0.184938
C52   C     C_3   0.111331 0.339477 0.154514 -0.746008
H29   H     H_    0.159704 0.262500 0.152040 0.298281
H30   H     H_    0.076394 0.366349 0.083382 0.227800
H31   H     H_    0.165361 0.395559 0.189395 0.231990
O12   O     O_3   0.607284 0.645891 0.255488 -0.606888
C53   C     C_3   0.554430 0.747263 0.232600 0.055473
H32   H     H_    0.494165 0.753392 0.166016 0.131624
H33   H     H_    0.617127 0.797433 0.227505 0.167596
C54   C     C_3   0.497200 0.790422 0.307768 -0.789548
H34   H     H_    0.556682 0.790606 0.373959 0.275454
H35   H     H_    0.459156 0.871016 0.291374 0.216764
H36   H     H_    0.432814 0.742502 0.313197 0.231902
O13   O     O_3   0.190449 0.560641 0.570893 -0.600977
C55   C     C_3   0.188399 0.514440 0.654978 0.107129
H37   H     H_    0.248556 0.444705 0.667576 0.157308
H38   H     H_    0.108255 0.490370 0.657206 0.141105
C56   C     C_3   0.216015 0.591164 0.732805 -0.807224
H39   H     H_    0.152095 0.658853 0.725250 0.238875
H40   H     H_    0.221313 0.553598 0.799528 0.216483
H41   H     H_    0.295039 0.618451 0.732177 0.263144
F1    F     F_    0.738514 0.384608 0.415526 -0.647254
F2    F     F_    0.322261 0.300362 0.053198 -0.690217
F3    F     F_    0.768177 0.230427 0.627339 -0.652479

loop_
_geom_bond_atom_site_label_1
_geom_bond_atom_site_label_2
_ccdc_geom_bond_type
C16   C28   A    
C50   H24   S    
O9    C47   S    
C18   O9    S    
C30   N2    A    
C52   H29   S    
C23   O5    A    
C10   H14   S    
C56   H39   S    
C16   H5    S    
C21   C26   A    
C52   H31   S    
C7    C8    A    
C45   C46   A    
C2    C46   A    
C12   O4    A    
C40   N1    A    
C5    C6    A    
C36   C37   A    
C19   C21   A    
C47   H18   S    
C26   H4    S    
C30   C31   A    
C44   O12   S    
C14   H3    S    
C20   C25   A    
O4    Zn2   S    
O2    Zn2   S    
C33   C36   A    
O1    Zn1   S    
C55   H37   S    
C18   C19   A    
C51   H27   S    
C49   H22   S    
C54   H35   S    
C31   C32   A    
C8    C9    A    
O6    Zn2   S    
C1    C28   S    
C1    O1    A    
O13   C55   S    
C49   C50   S    
O5    Zn1   S    
C35   N2    A    
O3    Zn1   S    
C14   C27   A    
C56   H41   S    
C15   C23   S    
C21   C22   A    
C23   O6    A    
C53   H33   S    
C17   C18   A    
C27   F3    S    
C12   O3    A    
C24   H2    S    
C36   C40   A    
C24   C25   A    
O8    Zn2   S    
O11   C51   S    
O7    Zn1   S    
C16   C17   A    
C15   C26   A    
C20   C28   A    
C3    C45   A    
C53   C54   S    
C17   O10   S    
C35   C39   A    
C43   C44   A    
C37   C38   A    
C15   C27   A    
O10   C49   S    
C38   H8    S    
C51   H28   S    
C1    O2    A    
C56   H40   S    
C47   H17   S    
C41   H7    S    
C40   O13   S    
C39   F1    S    
C50   H25   S    
C22   C24   A    
C42   C43   A    
C41   N1    A    
C3    C4    A    
C34   O8    A    
C29   O11   S    
C44   C45   A    
C48   H20   S    
C6    C46   A    
C29   C41   A    
C9    F2    S    
C34   C43   S    
C49   H23   S    
C4    C5    A    
C48   H21   S    
C11   C12   S    
C52   H30   S    
C6    C7    A    
N1    Zn1   S    
C30   H9    S    
C55   C56   S    
C32   C33   A    
C31   H11   S    
C19   C20   A    
C25   H6    S    
C5    C10   A    
O12   C53   S    
C11   C13   A    
C14   C22   A    
C38   C39   A    
C2    C42   A    
C4    H13   S    
C53   H32   S    
C33   C35   A    
C55   H38   S    
C54   H36   S    
C42   H1    S    
C51   C52   S    
C10   C11   A    
C48   H19   S    
C3    H12   S    
C7    C13   A    
C47   C48   S    
C13   H15   S    
C50   H26   S    
C29   C37   A    
C54   H34   S    
N2    Zn2   S    
C2    C9    A    
C34   O7    A    
C32   H10   S    
C8    H16   S    
