data_mof_unit_44102.cif
_audit_creation_date              2013-03-05T15:56:36-0500
_audit_creation_method            fapswitch 2.2
_symmetry_space_group_name_H-M    P1
_symmetry_Int_Tables_number       1
_space_group_crystal_system       triclinic
_cell_length_a                    6.925015
_cell_length_b                    14.571802
_cell_length_c                    15.979606
_cell_angle_alpha                 90.415269
_cell_angle_beta                  89.971277
_cell_angle_gamma                 90.00504
_cell_volume                      1612.45864024

loop_
_atom_site_label
_atom_site_type_symbol
_atom_site_description
_atom_site_fract_x
_atom_site_fract_y
_atom_site_fract_z
_atom_type_partial_charge
O1    O     O_R   0.361600 0.167310 0.164620 -0.563599
O2    O     O_R   0.638400 0.832690 0.835380 -0.563600
O3    O     O_R   0.691080 0.157570 0.338750 -0.604489
O4    O     O_R   0.308920 0.842430 0.661250 -0.604489
O5    O     O_R   0.861410 0.336420 0.339360 -0.610168
O6    O     O_R   0.138590 0.663580 0.660640 -0.610168
C1    C     C_R   0.521657 0.135414 0.367650 1.060732
C2    C     C_R   0.478343 0.864586 0.632350 1.060732
O7    O     O_R   0.691320 0.156280 0.165240 -0.534212
O8    O     O_R   0.308680 0.843720 0.834760 -0.534211
O9    O     O_R   0.861640 0.335130 0.164600 -0.588116
O10   O     O_R   0.138360 0.664870 0.835400 -0.588116
C3    C     C_R   0.522289 0.133951 0.135959 1.216623
C4    C     C_R   0.477711 0.866049 0.864041 1.216622
O11   O     O_R   0.361370 0.168600 0.339370 -0.547541
O12   O     O_R   0.638630 0.831400 0.660630 -0.547541
O13   O     O_3   0.527990 0.310540 0.251980 -0.306290
O14   O     O_3   0.472010 0.689460 0.748020 -0.306291
V1    V     V_3+5 0.802830 0.240980 0.251990 1.322649
V2    V     V_3+5 0.197170 0.759020 0.748010 1.322648
O15   O     O_R   0.191360 0.346160 0.165220 -0.594904
O16   O     O_R   0.808640 0.653840 0.834780 -0.594909
C5    C     C_R   0.022492 0.366129 0.134463 1.055430
C6    C     C_R   0.977508 0.633871 0.865537 1.055435
O17   O     O_R   0.191130 0.347440 0.338740 -0.590868
O18   O     O_R   0.808870 0.652560 0.661260 -0.590867
C7    C     C_R   0.022271 0.368766 0.368104 1.036328
C8    C     C_R   0.977728 0.631234 0.631896 1.036329
V3    V     V_3+5 0.302840 0.262750 0.251990 1.307681
V4    V     V_3+5 0.697160 0.737250 0.748010 1.307678
O19   O     O_3   0.027820 0.193180 0.251990 -0.231173
O20   O     O_3   0.972180 0.806820 0.748010 -0.231173
C9    C     C_3   0.821145 0.468667 0.481418 -0.211559
C10   C     C_3   0.178855 0.531333 0.518582 -0.211559
C11   C     C_3   0.920920 0.461270 0.568703 -0.246495
C12   C     C_3   0.079080 0.538730 0.431297 -0.246495
H1    H     H_    0.858660 0.428571 0.625151 0.180834
H2    H     H_    0.141340 0.571429 0.374849 0.180834
H3    H     H_    0.673087 0.444698 0.465924 0.174694
H4    H     H_    0.326913 0.555302 0.534076 0.174694
C13   C     C_3   0.988649 0.562177 0.561744 -0.276130
C14   C     C_3   0.011351 0.437823 0.438256 -0.276129
C15   C     C_3   0.891614 0.568607 0.475708 0.431553
C16   C     C_3   0.108386 0.431393 0.524292 0.431553
C17   C     C_R   0.848074 0.498421 0.942673 -0.190832
C18   C     C_R   0.151925 0.501580 0.057328 -0.190821
H5    H     H_    0.732788 0.494899 0.896932 0.182034
H6    H     H_    0.267210 0.505102 0.103069 0.182038
C19   C     C_R   0.858894 0.430384 0.004518 0.405086
C20   C     C_R   0.141105 0.569618 0.995484 0.405080
C21   C     C_R   0.011494 0.432424 0.063770 -0.335540
C22   C     C_R   0.988506 0.567577 0.936231 -0.335538
C23   C     C_R   0.675155 0.017745 0.459890 -0.321727
C24   C     C_R   0.324845 0.982255 0.540110 -0.321727
H7    H     H_    0.812222 0.029677 0.429266 0.243558
H8    H     H_    0.187778 0.970323 0.570734 0.243558
C25   C     C_R   0.666546 0.952331 0.523334 0.866236
C26   C     C_R   0.333454 0.047669 0.476666 0.866236
C27   C     C_R   0.490424 0.933651 0.564433 -0.434819
C28   C     C_R   0.509576 0.066349 0.435567 -0.434819
C29   C     C_R   0.667746 0.006539 0.048565 0.670444
C30   C     C_R   0.332254 0.993461 0.951435 0.670445
C31   C     C_R   0.656694 0.942173 0.983254 0.676315
C32   C     C_R   0.343306 0.057827 0.016746 0.676314
C33   C     C_R   0.488829 0.934712 0.933569 -0.782255
C34   C     C_R   0.511171 0.065287 0.066431 -0.782255
N1    N     N_R   0.769844 0.643047 0.445874 0.230567
O21   O     O_R   0.693600 0.637883 0.371648 -0.380462
O22   O     O_R   0.737044 0.714809 0.492502 -0.376901
N2    N     N_R   0.230156 0.356953 0.554126 0.230567
O23   O     O_R   0.306400 0.362117 0.628352 -0.380464
O24   O     O_R   0.262956 0.285191 0.507498 -0.376902
N3    N     N_R   0.719884 0.357205 0.002996 0.231309
O25   O     O_R   0.540651 0.374198 0.984197 -0.385422
O26   O     O_R   0.777559 0.272307 0.006104 -0.356382
N4    N     N_R   0.280111 0.642798 0.997007 0.231309
O27   O     O_R   0.459340 0.625809 0.015818 -0.385416
O28   O     O_R   0.222436 0.727695 0.993892 -0.356381
F1    F     F_    0.831140 0.907045 0.543441 -0.666538
F2    F     F_    0.168860 0.092955 0.456559 -0.666538
F3    F     F_    0.831297 0.009600 0.095347 -0.582243
F4    F     F_    0.168703 0.990400 0.904653 -0.582243
F5    F     F_    0.810057 0.885762 0.970187 -0.573415
F6    F     F_    0.189942 0.114238 0.029813 -0.573416

loop_
_geom_bond_atom_site_label_1
_geom_bond_atom_site_label_2
_geom_bond_distance
_ccdc_geom_bond_type
C6    C22   1.493678 S    
C31   C33   1.411790 A    
O13   V3    1.707561 S    
N3    O25   1.301393 A    
C25   F1    1.357006 S    
C12   C14   1.548088 S    
O4    C2    1.302149 A    
V1    O19   1.706721 S    
O9    V1    2.006305 S    
C9    H3    1.110619 S    
C10   H4    1.110620 S    
C9    C14   1.551573 S    
C11   H1    1.110118 S    
N4    O28   1.301310 A    
O3    C1    1.302149 A    
C2    C27   1.487750 S    
C24   C26   1.397813 A    
C25   C27   1.412337 A    
O12   V4    2.006133 S    
C8    C13   1.502848 S    
C17   H5    1.083647 S    
C29   C31   1.400227 A    
O7    C3    1.301248 A    
C32   F6    1.358194 S    
C30   C32   1.400228 A    
C9    C11   1.561276 S    
O5    C7    1.292805 A    
C29   C34   1.409385 A    
O7    V1    2.004339 S    
O6    C8    1.292805 A    
O8    V2    2.004339 S    
C19   C21   1.419393 A    
C20   C22   1.419394 A    
O3    V1    2.005349 S    
N2    O23   1.300242 A    
O14   V4    1.707562 S    
O14   V2    2.156432 S    
C26   F2    1.357006 S    
C3    C34   1.491758 S    
C1    O11   1.293799 A    
C30   F4    1.357916 S    
C2    O12   1.293798 A    
C13   C15   1.534033 S    
C10   C13   1.551572 S    
C14   C16   1.534033 S    
O2    C4    1.296410 A    
C23   C28   1.404293 A    
O11   V3    2.006135 S    
C18   H6    1.083647 S    
C24   C27   1.404293 A    
C23   H7    1.082309 S    
O17   V3    2.004332 S    
C24   H8    1.082309 S    
N1    O21   1.300242 A    
C9    C15   1.539181 S    
C10   C16   1.539181 S    
N4    O27   1.301391 A    
O8    C4    1.301248 A    
C23   C25   1.397813 A    
C17   C22   1.404662 A    
O15   V3    2.005354 S    
C18   C21   1.404661 A    
C31   F5    1.358195 S    
N1    O22   1.299551 A    
C32   C34   1.411790 A    
C20   N4    1.436611 S    
C5    C21   1.493678 S    
C17   C19   1.406937 A    
O10   V2    2.006307 S    
O1    V3    2.005068 S    
C16   N2    1.457061 S    
C11   C16   1.540525 S    
O18   V4    2.004331 S    
O15   C5    1.302486 A    
O16   C6    1.302485 A    
O1    C3    1.296411 A    
N3    O26   1.301322 A    
C1    C28   1.487750 S    
V2    O20   1.706721 S    
C18   C20   1.406940 A    
O16   V4    2.005357 S    
C30   C33   1.409385 A    
O5    V1    2.005051 S    
O17   C7    1.296735 A    
O6    V2    2.005051 S    
O10   C6    1.295863 A    
O18   C8    1.296735 A    
O2    V4    2.005071 S    
C12   H2    1.110118 S    
V3    O19   2.157444 S    
C29   F3    1.357917 S    
V4    O20   2.157441 S    
C7    C14   1.502848 S    
O9    C5    1.295863 A    
O13   V1    2.156431 S    
C4    C33   1.491759 S    
C19   N3    1.436608 S    
C11   C13   1.548088 S    
O4    V2    2.005346 S    
C10   C12   1.561276 S    
C15   N1    1.457061 S    
C12   C15   1.540525 S    
N2    O24   1.299551 A    
C26   C28   1.412337 A    
