data_mof_unit_39364.cif
_audit_creation_date              2012-12-10T19:42:58-0500
_audit_creation_method            fapswitch 2.2
_symmetry_space_group_name_H-M    P1
_symmetry_Int_Tables_number       1
_space_group_crystal_system       triclinic
_cell_length_a                    10.737753
_cell_length_b                    13.173965
_cell_length_c                    11.835585
_cell_angle_alpha                 99.797222
_cell_angle_beta                  93.316939
_cell_angle_gamma                 92.172815
_cell_volume                      1645.12451876

loop_
_atom_site_label
_atom_site_type_symbol
_atom_type_description
_atom_site_fract_x
_atom_site_fract_y
_atom_site_fract_z
_atom_type_partial_charge
C1    C     C_R   0.502542 0.299562 0.478953 0.853027
C2    C     C_R   0.500366 0.700550 0.521111 0.876014
C3    C     C_R   0.870624 0.494278 0.498853 -0.054848
C4    C     C_R   0.129632 0.505729 0.500829 -0.056209
C5    C     C_R   0.936484 0.403578 0.496556 -0.011282
C6    C     C_R   0.063810 0.596166 0.501266 -0.013395
C7    C     C_R   0.500639 0.814107 0.532355 -0.048630
C8    C     C_R   0.508363 0.186181 0.467446 -0.087223
C9    C     C_R   0.494060 0.016851 0.346968 -0.174169
C10   C     C_R   0.516634 0.983577 0.651585 -0.167599
C11   C     C_R   0.497639 0.123459 0.357253 0.160832
C12   C     C_R   0.508160 0.877136 0.642154 0.111133
C13   C     C_R   0.524236 0.138114 0.566161 0.072142
C14   C     C_R   0.494300 0.861029 0.432703 0.091185
C15   C     C_R   0.514312 0.030495 0.554021 0.145045
C16   C     C_R   0.500078 0.969154 0.444030 0.070624
C17   C     C_R   0.395677 0.390742 0.023380 0.052909
C18   C     C_R   0.606069 0.608774 0.976471 0.053667
C19   C     C_R   0.396012 0.408251 0.144176 0.361004
C20   C     C_R   0.604951 0.591220 0.855549 0.368081
C21   C     C_R   0.552439 0.542836 0.156319 0.448154
C22   C     C_R   0.446964 0.458054 0.844253 0.416004
C23   C     C_R   0.263766 0.507806 0.501131 0.876585
C24   C     C_R   0.736340 0.492247 0.498820 0.870200
C25   C     C_R   0.540183 0.539012 0.033989 -0.111050
C26   C     C_R   0.460750 0.461175 0.966295 -0.102309
C27   C     C_R   0.176123 0.874344 0.593143 0.201492
C28   C     C_R   0.829002 0.127301 0.387915 0.208706
C29   C     C_R   0.155387 0.768906 0.597633 0.173081
C30   C     C_R   0.847114 0.233998 0.390326 0.180469
C31   C     C_R   0.126278 0.697659 0.495508 -0.132841
C32   C     C_R   0.874027 0.300866 0.495896 -0.139893
C33   C     C_R   0.127054 0.731356 0.388288 0.034685
C34   C     C_R   0.872394 0.261729 0.599920 0.018667
C35   C     C_R   0.147642 0.836728 0.384346 0.123896
C36   C     C_R   0.853395 0.154637 0.597318 0.153696
C37   C     C_R   0.170811 0.908025 0.486476 0.256833
C38   C     C_R   0.834541 0.087871 0.491144 0.232682
C39   C     C_R   0.933216 0.590049 0.502888 0.135751
C40   C     C_R   0.067178 0.409925 0.496415 0.135864
Cu1   Cu    Cu3+1 0.509250 0.507730 0.615930 1.046612
Cu2   Cu    Cu3+1 0.490750 0.492270 0.384070 1.064620
H1    H     H_    0.485137 0.972559 0.260919 0.153907
H2    H     H_    0.523173 0.029107 0.737216 0.190786
N1    N     N_R   0.523180 0.519350 0.790130 -0.247989
N2    N     N_R   0.476820 0.480650 0.209870 -0.248608
O1    O     O_R   0.506570 0.354460 0.582000 -0.596647
O2    O     O_R   0.493430 0.645540 0.418000 -0.544410
O3    O     O_R   0.490940 0.341410 0.386200 -0.513531
O4    O     O_R   0.509060 0.658590 0.613800 -0.523517
O5    O     O_R   0.327460 0.506540 0.597900 -0.520153
O6    O     O_R   0.672540 0.493460 0.402100 -0.524660
O7    O     O_R   0.311830 0.493480 0.402100 -0.568433
O8    O     O_R   0.688170 0.506520 0.597900 -0.569935
Br1   Br    Br    0.186347 0.052514 0.478451 -0.437347
Br2   Br    Br    0.823575 0.941437 0.488808 -0.471533
Br3   Br    Br    0.306669 0.379591 0.757543 -0.450074
Br4   Br    Br    0.687229 0.625924 0.245982 -0.439445
Br5   Br    Br    0.721870 0.673272 0.786941 -0.455819
Br6   Br    Br    0.278318 0.326565 0.212256 -0.449923
N3    N     N_3   0.337700 0.296367 0.960656 -0.507299
H3    H     H_    0.377090 0.234230 0.991641 0.252138
H4    H     H_    0.242046 0.295025 0.972926 0.293239
N4    N     N_3   0.666701 0.702188 0.038776 -0.516023
H5    H     H_    0.628662 0.765137 0.008402 0.249316
H6    H     H_    0.762190 0.701793 0.025829 0.289613
Br7   Br    Br    0.199307 0.973974 0.732979 -0.379150
Br8   Br    Br    0.807407 0.034075 0.243161 -0.411661
Br9   Br    Br    0.156427 0.722582 0.743664 -0.402727
Br10  Br    Br    0.846114 0.288223 0.248868 -0.401211
N5    N     N_3   0.099643 0.660460 0.282684 -0.554957
H7    H     H_    0.163331 0.602105 0.278339 0.259191
H8    H     H_    0.009816 0.627110 0.282834 0.268858
N6    N     N_3   0.895142 0.329672 0.708282 -0.562389
H9    H     H_    0.829615 0.386667 0.713597 0.249873
H10   H     H_    0.984284 0.365232 0.712004 0.275009
N7    N     N_3   0.135409 0.873244 0.276998 -0.479538
H11   H     H_    0.043979 0.855207 0.242024 0.293076
H12   H     H_    0.195428 0.833683 0.220524 0.234315
N8    N     N_3   0.859343 0.111114 0.701038 -0.459376
H13   H     H_    0.769602 0.082828 0.712547 0.237862
H14   H     H_    0.885687 0.166396 0.773445 0.279180
N9    N     N_3   0.862200 0.681005 0.509557 -0.519077
H15   H     H_    0.892366 0.732200 0.584427 0.291346
H16   H     H_    0.878470 0.716076 0.438725 0.277360
N10   N     N_3   0.138400 0.318969 0.489114 -0.517419
H17   H     H_    0.109352 0.268615 0.413307 0.291555
H18   H     H_    0.121550 0.282653 0.558940 0.279184
N11   N     N_3   0.483048 0.798747 0.320182 -0.528579
H19   H     H_    0.400030 0.813839 0.277276 0.210854
H20   H     H_    0.558687 0.817076 0.274382 0.281745
N12   N     N_3   0.554403 0.195514 0.679580 -0.604765
H21   H     H_    0.631398 0.246381 0.679995 0.241295
H22   H     H_    0.476611 0.233340 0.709787 0.305436
N13   N     N_3   0.505972 0.834388 0.745612 -0.512101
H23   H     H_    0.584685 0.864129 0.798789 0.251993
H24   H     H_    0.427312 0.859589 0.788216 0.264138
N14   N     N_3   0.492372 0.166667 0.253945 -0.512884
H25   H     H_    0.412673 0.134965 0.203387 0.256072
H26   H     H_    0.570010 0.144081 0.208308 0.259630

loop_
_geom_bond_atom_site_label_1
_geom_bond_atom_site_label_2
_ccdc_geom_bond_type
C24   O6    A    
C8    C13   A    
C27   C29   A    
C1    C8    S    
Cu1   Cu2   S    
C2    C7    S    
C22   Br3   S    
C19   N2    A    
N7    H11   S    
N6    H10   S    
C11   N14   S    
C17   C26   A    
C28   Br8   S    
C9    C16   A    
C10   C15   A    
Cu2   O7    S    
C33   C35   A    
N10   H18   S    
C24   O8    A    
C15   C16   A    
Cu2   N2    S    
C40   N10   S    
N3    H4    S    
C2    O4    A    
C17   N3    S    
C7    C14   A    
C4    C40   A    
C31   C33   A    
C12   N13   S    
N11   H20   S    
C18   C20   A    
C20   N1    A    
C5    C32   S    
C6    C31   S    
C3    C39   A    
C3    C24   S    
C18   C25   A    
C30   Br10  S    
C23   O7    A    
C29   Br9   S    
N7    H12   S    
C7    C12   A    
C9    H1    S    
N6    H9    S    
C10   H2    S    
N8    H14   S    
C36   N8    S    
N5    H8    S    
C4    C23   S    
N10   H17   S    
C1    O1    A    
C2    O2    A    
C25   C26   A    
C35   N7    S    
N4    H6    S    
C14   N11   S    
C23   O5    A    
N9    H15   S    
C28   C38   A    
N12   H22   S    
Cu1   O1    S    
Cu2   O2    S    
C20   Br5   S    
C9    C11   A    
C10   C12   A    
C34   N6    S    
C4    C6    A    
N9    H16   S    
N14   H26   S    
C13   C15   A    
C13   N12   S    
C14   C16   A    
Cu1   O4    S    
C21   N2    A    
C21   C25   A    
C35   C37   A    
N8    H13   S    
C3    C5    A    
N13   H24   S    
C19   Br6   S    
N4    H5    S    
C36   C38   A    
C39   N9    S    
N5    H7    S    
C29   C31   A    
C30   C32   A    
C18   N4    S    
C27   C37   A    
C8    C11   A    
C28   C30   A    
N12   H21   S    
C17   C19   A    
C34   C36   A    
N3    H3    S    
Cu1   O8    S    
C27   Br7   S    
C33   N5    S    
Cu2   O3    S    
C37   Br1   S    
C21   Br4   S    
C22   N1    A    
C38   Br2   S    
N14   H25   S    
C22   C26   A    
C5    C40   A    
Cu2   O6    S    
N13   H23   S    
Cu1   N1    S    
C6    C39   A    
N11   H19   S    
C1    O3    A    
Cu1   O5    S    
C32   C34   A    
