data_mof_unit_51904.cif
_audit_creation_date              2012-12-11T17:22:45-0500
_audit_creation_method            fapswitch 2.2
_symmetry_space_group_name_H-M    P1
_symmetry_Int_Tables_number       1
_space_group_crystal_system       triclinic
_cell_length_a                    8.26474
_cell_length_b                    16.474634
_cell_length_c                    27.087594
_cell_angle_alpha                 96.413112
_cell_angle_beta                  92.360914
_cell_angle_gamma                 86.765256
_cell_volume                      3657.02557469

loop_
_atom_site_label
_atom_site_type_symbol
_atom_type_description
_atom_site_fract_x
_atom_site_fract_y
_atom_site_fract_z
_atom_type_partial_charge
Ba1   Ba    Ba6+2 0.851940 0.461560 0.523510 1.674984
Ba2   Ba    Ba6+2 0.337880 0.538370 0.476480 1.683940
C1    C     C_3   0.614293 0.170179 0.653012 -0.363008
C2    C     C_3   0.627610 0.253094 0.634346 0.340099
C3    C     C_3   0.501587 0.674339 0.628691 0.670944
C4    C     C_3   0.432826 0.718163 0.676363 -0.226224
C5    C     C_3   0.074307 0.711652 0.340282 0.328681
C6    C     C_3   0.088882 0.733922 0.287739 -0.328333
C7    C     C_3   0.537178 0.755768 0.361412 0.356684
C8    C     C_3   0.500800 0.838156 0.341936 -0.369756
C9    C     C_R   0.017513 0.436998 0.178914 0.601748
C10   C     C_R   0.916190 0.575989 0.178134 0.575326
C11   C     C_2   0.760660 0.546539 0.271427 -0.146428
C12   C     C_3   0.130095 0.280022 0.658180 0.293550
C13   C     C_3   0.743830 0.577800 0.325369 -0.032467
C14   C     C_1   0.980991 0.488617 0.343680 0.031704
C15   C     C_2   0.022243 0.482603 0.295936 -0.173775
C16   C     C_2   0.904769 0.511259 0.256238 0.201097
C17   C     C_R   0.022779 0.502566 0.101938 -0.079265
C18   C     C_R   0.056955 0.433831 0.128029 -0.039193
C19   C     C_R   0.128497 0.363012 0.102521 -0.060113
C20   C     C_R   0.951855 0.573898 0.127410 -0.026669
C21   C     C_2   0.850888 0.532765 0.360601 0.106466
C22   C     C_2   0.342948 0.475301 0.641388 -0.295965
C23   C     C_3   0.096242 0.259195 0.709873 -0.336167
C24   C     C_R   0.174429 0.426865 0.974092 0.019584
C25   C     C_R   0.052738 0.566826 0.972869 0.020239
C26   C     C_R   0.131849 0.495877 0.948036 0.050252
C27   C     C_R   0.256696 0.358725 0.947758 -0.099982
C28   C     C_R   0.293832 0.358055 0.897927 -0.060494
C29   C     C_R   0.250827 0.425137 0.871659 -0.030133
C30   C     C_R   0.169148 0.494079 0.896585 -0.078110
C31   C     C_R   0.125543 0.561451 0.870121 -0.034527
C32   C     C_R   0.165087 0.559453 0.819544 0.594803
C33   C     C_R   0.288779 0.424620 0.821015 0.578462
C34   C     C_3   0.178723 0.289882 0.416538 0.305800
C35   C     C_2   0.444252 0.473547 0.729342 -0.078187
C36   C     C_3   0.489576 0.480859 0.676406 0.032251
C37   C     C_1   0.206514 0.512903 0.656577 0.039621
C38   C     C_2   0.164771 0.513581 0.703741 -0.111428
C39   C     C_2   0.289011 0.491291 0.743251 0.192585
C40   C     C_R   0.134449 0.428308 0.025263 0.019655
C41   C     C_R   0.059384 0.500158 0.050386 0.050455
C42   C     C_R   0.020527 0.569797 0.024571 0.020138
C43   C     C_R   0.166524 0.360205 0.052552 -0.098492
C44   C     C_R   0.918222 0.642572 0.101823 -0.060096
C45   C     C_3   0.186981 0.197619 0.403105 -0.372351
C46   C     C_R   0.007832 0.632602 0.944745 -0.100115
C47   C     C_R   0.043763 0.629912 0.894795 -0.060571
C48   C     C_R   0.951553 0.640740 0.051807 -0.101945
C49   C     C_R   0.384884 0.266789 0.519837 -0.292236
C50   C     C_R   0.524776 0.240968 0.494575 0.034281
C51   C     C_R   0.577146 0.158039 0.489915 -0.124728
C52   C     C_R   0.487134 0.100210 0.510476 0.247092
C53   C     C_R   0.341947 0.127333 0.534116 -0.166968
C54   C     C_R   0.290300 0.210369 0.538143 -0.010240
C55   C     C_R   0.616768 0.852762 0.505681 -0.123998
C56   C     C_3   0.983177 0.714365 0.592664 0.675312
C57   C     C_R   0.666805 0.770001 0.503130 -0.018048
C58   C     C_R   0.709507 0.908327 0.483939 0.253125
C59   C     C_R   0.805684 0.741335 0.478418 -0.243153
C60   C     C_R   0.903516 0.794781 0.458795 0.031796
C61   C     C_R   0.854906 0.878382 0.460940 -0.165443
C62   C     C_3   0.917181 0.794438 0.620002 -0.217531
C63   C     C_3   0.666686 0.360781 0.375533 0.297937
C64   C     C_3   0.667436 0.339384 0.319472 -0.355400
H1    H     H_    0.730754 0.248703 0.608938 0.098114
H2    H     H_    0.266405 0.180859 0.371059 0.128538
H3    H     H_    0.236837 0.166413 0.434975 0.059857
H4    H     H_    0.063561 0.176259 0.393125 0.128032
H5    H     H_    0.879134 0.678603 0.577625 -0.025535
H6    H     H_    0.843461 0.781852 0.651388 0.098375
H7    H     H_    0.840415 0.829495 0.594338 0.052323
H8    H     H_    0.018759 0.832321 0.635059 0.100502
H9    H     H_    0.789555 0.377307 0.389124 -0.011848
H10   H     H_    0.579067 0.413598 0.383937 0.063592
H11   H     H_    0.727639 0.153211 0.673754 0.134869
H12   H     H_    0.759008 0.288754 0.309789 0.135273
H13   H     H_    0.697668 0.393254 0.301288 0.051982
H14   H     H_    0.545786 0.320298 0.305309 0.133937
H15   H     H_    0.512964 0.268240 0.613881 -0.044441
H16   H     H_    0.594938 0.122977 0.621039 0.082830
H17   H     H_    0.338978 0.765714 0.667331 0.085880
H18   H     H_    0.376493 0.673758 0.697518 0.070752
H19   H     H_    0.510315 0.172236 0.677911 0.125722
H20   H     H_    0.139523 0.307887 0.738031 0.126341
H21   H     H_    0.148259 0.653998 0.343893 0.092291
H22   H     H_    0.945031 0.702130 0.346166 -0.032386
H23   H     H_    0.208186 0.759283 0.283203 0.149901
H24   H     H_    0.079016 0.678235 0.261106 0.124218
H25   H     H_    0.991372 0.780009 0.279259 0.119120
H26   H     H_    0.495643 0.759907 0.400161 0.071785
H27   H     H_    0.567945 0.885861 0.365248 0.077183
H28   H     H_    0.369205 0.855256 0.343315 0.153829
H29   H     H_    0.075049 0.342140 0.654497 0.081982
H30   H     H_    0.539424 0.835436 0.302972 0.122017
H31   H     H_    0.142597 0.458740 0.285597 0.145384
H32   H     H_    0.155794 0.308813 0.121231 0.121738
H33   H     H_    0.539282 0.461143 0.756776 0.107549
H34   H     H_    0.357375 0.304128 0.879943 0.121839
H35   H     H_    0.296479 0.304649 0.964689 0.069119
H36   H     H_    0.219744 0.302798 0.036291 0.069109
H37   H     H_    0.865143 0.698808 0.120500 0.122510
H38   H     H_    0.942529 0.687444 0.959938 0.069241
H39   H     H_    0.263382 0.279954 0.654343 -0.021018
H40   H     H_    0.006738 0.682396 0.875441 0.122686
H41   H     H_    0.041361 0.531106 0.714100 0.144825
H42   H     H_    0.923310 0.697038 0.035893 0.069036
H43   H     H_    0.347567 0.438805 0.605466 0.061951
H44   H     H_    0.509020 0.873491 0.525833 0.117857
H45   H     H_    0.268426 0.083732 0.548663 0.096820
H46   H     H_    0.685490 0.139059 0.469645 0.112835
H47   H     H_    0.930768 0.920100 0.445590 0.087513
H48   H     H_    0.344282 0.330672 0.522588 0.071791
H49   H     H_    0.963833 0.254885 0.713728 0.145283
H50   H     H_    0.844785 0.677710 0.478236 0.114841
H51   H     H_    0.159524 0.199942 0.716559 0.120460
H52   H     H_    0.302481 0.310279 0.425586 0.004578
H53   H     H_    0.101467 0.304876 0.449237 0.060789
N1    N     N_R   0.947322 0.507711 0.203747 -0.415919
N2    N     N_R   0.245644 0.491372 0.795227 -0.422826
N3    N     N_2   0.534361 0.014902 0.507300 -0.233156
N4    N     N_2   0.664652 0.994011 0.486220 -0.230918
O1    O     O_2   0.915540 0.542930 0.617950 -0.444458
O2    O     O_3   0.622213 0.292501 0.397218 -0.629882
O3    O     O_3   0.061432 0.221741 0.622850 -0.597943
O4    O     O_2   0.274150 0.457040 0.382020 -0.464158
O5    O     O_3   0.042160 0.457070 0.442220 -0.466150
O6    O     O_3   0.525310 0.603770 0.411640 -0.464645
O7    O     O_3   0.113660 0.326613 0.375559 -0.629892
O8    O     O_3   0.637620 0.597020 0.524620 -0.492112
O9    O     O_3   0.118810 0.645070 0.435950 -0.450977
O10   O     O_2   0.241481 0.790026 0.465975 -0.456424
O11   O     O_3   0.131275 0.775102 0.374269 -0.611522
O12   O     O_3   0.147530 0.542870 0.557780 -0.498516
O13   O     O_3   0.552080 0.402920 0.475380 -0.498786
O14   O     O_2   0.387280 0.697260 0.523450 -0.425569
O15   O     O_3   0.572446 0.731871 0.603048 -0.657953
O16   O     O_2   0.413049 0.536935 0.322852 -0.505135
O17   O     O_3   0.455412 0.694739 0.331166 -0.594966
O18   O     O_2   0.043557 0.376283 0.200702 -0.594270
O19   O     O_2   0.359913 0.364379 0.799890 -0.603367
O20   O     O_2   0.857858 0.639448 0.199560 -0.618536
O21   O     O_2   0.130313 0.619200 0.797487 -0.597882
O22   O     O_3   0.664390 0.396160 0.588360 -0.498507
O23   O     O_2   0.824227 0.438798 0.673202 -0.483601
O24   O     O_3   0.079906 0.673148 0.626430 -0.646553
O25   O     O_3   0.653417 0.312166 0.674986 -0.597538
O26   O     O_2   0.802410 0.302720 0.476520 -0.458611
O27   O     O_3   0.070880 0.354870 0.564040 -0.495125
O28   O     O_2   0.954394 0.210066 0.530791 -0.478255
P1    P     P_3+3 0.086060 0.566890 0.610430 1.002265
P2    P     P_3+3 0.625290 0.314770 0.461990 0.981012
P3    P     P_3+3 0.094199 0.248313 0.563474 0.945205
P4    P     P_3+3 0.103630 0.433040 0.389570 1.021605
P5    P     P_3+3 0.099162 0.751842 0.434366 1.001818
P6    P     P_3+3 0.657942 0.408327 0.653315 0.974556
P7    P     P_3+3 0.570594 0.699933 0.539146 0.956821
P8    P     P_3+3 0.532833 0.599811 0.346998 0.962057
O29   O     O_3   0.078298 0.732839 0.554459 -0.740733
H54   H     H_    0.088802 0.682206 0.531220 0.311869
H55   H     H_    0.398815 0.644561 0.607234 -0.014326
O30   O     O_3   0.621295 0.616394 0.641289 -0.748338
H56   H     H_    0.621884 0.572202 0.613319 0.300094
H57   H     H_    0.530719 0.747868 0.699947 0.108310
H58   H     H_    0.670925 0.743626 0.361429 -0.053438
H59   H     H_    0.668590 0.565580 0.244755 0.129513
O31   O     O_3   0.845816 0.563385 0.409688 -0.722499
H60   H     H_    0.778781 0.525820 0.425192 0.309511

loop_
_geom_bond_atom_site_label_1
_geom_bond_atom_site_label_2
_ccdc_geom_bond_type
C25   C46   A    
C1    H16   S    
C53   C54   A    
Ba2   P4    S    
C19   H32   S    
C10   C20   A    
C1    H19   S    
O10   P5    D    
C12   H29   S    
Ba1   O22   S    
C17   C18   A    
Ba1   O5    S    
O6    P8    S    
Ba2   O6    S    
C3    O15   S    
O23   P6    D    
C51   C52   A    
C64   H13   S    
C26   C30   A    
C32   O21   D    
C35   C36   S    
C63   H10   S    
O14   P7    D    
Ba1   P1    S    
C58   C61   A    
C3    O30   S    
C7    H58   S    
Ba1   Ba2   S    
C23   H49   S    
O17   P8    S    
C3    C4    S    
C57   P7    S    
C56   H5    S    
C11   H59   S    
C8    H28   S    
C31   C47   A    
O12   P1    S    
C46   H38   S    
C28   H34   S    
C22   C37   D    
C34   C45   S    
C49   C54   A    
O28   P3    D    
C39   N2    S    
C34   H53   S    
O26   P2    D    
C45   H3    S    
O5    P4    S    
O9    P5    S    
C10   N1    Am   
C16   N1    S    
C25   C42   A    
C12   H39   S    
C5    H21   S    
C2    H15   S    
O30   H56   S    
C17   C41   A    
C14   C15   D    
C22   C36   S    
C62   H7    S    
Ba1   O26   S    
O7    P4    S    
Ba1   O13   S    
C34   H52   S    
C7    C8    S    
Ba2   O4    S    
C13   C21   S    
O1    P1    D    
C4    H57   S    
O16   P8    D    
C48   H42   S    
C59   H50   S    
C9    N1    Am   
C7    H26   S    
O2    P2    S    
Ba2   O8    S    
C19   C43   A    
C56   C62   S    
C64   H12   S    
O11   P5    S    
C9    C18   A    
C57   C59   A    
C49   H48   S    
C4    H18   S    
C49   C50   A    
C60   P5    S    
C33   N2    Am   
C17   C20   A    
C5    O11   S    
C54   P3    S    
C5    C6    S    
O4    P4    D    
C37   C38   D    
C56   O24   S    
C55   C58   A    
C8    H27   S    
C50   P2    S    
C37   P1    S    
Ba2   O13   S    
C30   C31   A    
C40   C43   A    
C63   O2    S    
C58   N4    S    
C41   C42   A    
C45   H4    S    
C13   P8    S    
C60   C61   A    
O8    P7    S    
C34   O7    S    
O22   P6    S    
O15   P7    S    
Ba2   O9    S    
C5    H22   S    
C8    H30   S    
C14   P4    S    
C15   C16   S    
C27   H35   S    
Ba1   O27   S    
C6    H25   S    
Ba1   P2    S    
C9    O18   D    
C38   H41   S    
C11   C16   D    
C51   H46   S    
O31   H60   S    
C20   C44   A    
C14   C21   D    
C11   C13   S    
C29   C33   A    
C6    H24   S    
C40   C41   A    
C1    C2    S    
C1    H11   S    
O3    P3    S    
C45   H2    S    
C35   H33   S    
C50   C51   A    
C24   C40   A    
C42   C48   A    
C52   C53   A    
C38   C39   S    
C4    H17   S    
C53   H45   S    
Ba2   O14   S    
C29   C30   A    
C22   H43   S    
C36   P6    S    
Ba1   O8    S    
C23   H51   S    
C2    H1    S    
C55   H44   S    
C47   H40   S    
C32   N2    Am   
C64   H14   S    
C44   H37   S    
C44   C48   A    
C24   C26   A    
Ba2   O12   S    
C12   O3    S    
C10   O20   D    
C3    H55   S    
O24   P1    S    
Ba1   O1    S    
C56   O29   S    
O29   H54   S    
O13   P2    S    
C28   C29   A    
C46   C47   A    
C23   H20   S    
C7    O17   S    
C31   C32   A    
O25   P6    S    
C62   H6    S    
C12   C23   S    
C35   C39   D    
C59   C60   A    
C55   C57   A    
C43   H36   S    
C33   O19   D    
C27   C28   A    
C21   O31   S    
C61   H47   S    
C52   N3    S    
C18   C19   A    
C24   C27   A    
C63   C64   S    
O27   P3    S    
C25   C26   A    
C62   H8    S    
C6    H23   S    
N3    N4    D    
Ba1   O12   S    
C15   H31   S    
C63   H9    S    
Ba2   O5    S    
C2    O25   S    
