data_mof_unit_50479.cif
_audit_creation_date              2012-12-11T17:07:53-0500
_audit_creation_method            fapswitch 2.2
_symmetry_space_group_name_H-M    P1
_symmetry_Int_Tables_number       1
_space_group_crystal_system       triclinic
_cell_length_a                    17.727693
_cell_length_b                    17.64808
_cell_length_c                    17.761671
_cell_angle_alpha                 89.973179
_cell_angle_beta                  89.673408
_cell_angle_gamma                 89.937678
_cell_volume                      5556.8176918

loop_
_atom_site_label
_atom_site_type_symbol
_atom_type_description
_atom_site_fract_x
_atom_site_fract_y
_atom_site_fract_z
_atom_type_partial_charge
C1    C     C_R   0.392569 0.304585 0.901307 0.494060
C2    C     C_R   0.195206 0.889510 0.404287 0.482202
C3    C     C_R   0.706947 0.800837 0.295251 0.114029
C4    C     C_R   0.196299 0.290437 0.711369 0.104347
C5    C     C_R   0.290918 0.806801 0.711035 0.123573
C6    C     C_R   0.796124 0.705535 0.702523 0.108630
C7    C     C_R   0.736041 0.169658 0.761642 0.136950
C8    C     C_R   0.719816 0.193424 0.835705 0.110816
C9    C     C_R   0.784825 0.689767 0.780059 0.123314
C10   C     C_R   0.305012 0.791356 0.788265 0.108242
C11   C     C_R   0.212774 0.306279 0.788240 0.119651
C12   C     C_R   0.689515 0.787948 0.218176 0.120612
C13   C     C_R   0.108862 0.196233 0.406453 0.483427
C14   C     C_R   0.792195 0.301182 0.207167 0.107233
C15   C     C_R   0.309951 0.212973 0.218551 0.123575
C16   C     C_R   0.207368 0.699541 0.206678 0.109858
C17   C     C_3   0.970553 0.307249 0.750376 -0.271529
C18   C     C_3   0.989945 0.248793 0.814027 -0.804055
C19   C     C_3   0.720892 0.953363 0.734584 -0.313688
C20   C     C_3   0.799472 0.941370 0.770798 -0.973889
C21   C     C_3   0.047575 0.687225 0.716391 -0.286907
C22   C     C_3   0.036281 0.765178 0.754919 -1.002091
C23   C     C_3   0.305840 0.044104 0.711675 -0.284039
C24   C     C_R   0.804653 0.110427 0.405086 0.482124
C25   C     C_3   0.227619 0.033113 0.750004 -0.987011
C26   C     C_3   0.955443 0.707291 0.278219 -0.290951
C27   C     C_3   0.958559 0.786704 0.240878 -0.983674
C28   C     C_3   0.682654 0.048114 0.291226 -0.286479
C29   C     C_3   0.759405 0.033578 0.251283 -1.002655
C30   C     C_3   0.043575 0.292132 0.279932 -0.292485
C31   C     C_3   0.041273 0.212942 0.242200 -0.976378
C32   C     C_3   0.317502 0.952165 0.289944 -0.283070
C33   C     C_3   0.240898 0.966718 0.250600 -1.005634
C34   C     C_3   0.455639 0.792298 0.222098 -0.294855
C35   C     C_R   0.916946 0.167933 0.642093 0.422734
C36   C     C_3   0.458075 0.712904 0.259499 -0.984057
C37   C     C_3   0.181378 0.452232 0.212513 -0.279487
C38   C     C_3   0.258255 0.466364 0.251461 -1.003670
C39   C     C_3   0.544525 0.207885 0.223906 -0.291789
C40   C     C_3   0.541871 0.287246 0.261315 -0.983630
C41   C     C_3   0.817894 0.547875 0.211376 -0.279272
C42   C     C_3   0.740837 0.533206 0.250630 -1.006495
C43   C     C_3   0.456842 0.188927 0.778891 -0.266818
C44   C     C_3   0.466498 0.269798 0.746281 -0.988944
C45   C     C_3   0.204093 0.545083 0.781909 -0.292729
C46   C     C_R   0.195252 0.109773 0.595211 0.481677
C47   C     C_3   0.281574 0.539406 0.741234 -0.985292
C48   C     C_3   0.549106 0.822274 0.793178 -0.306311
C49   C     C_3   0.532219 0.749029 0.747902 -0.988777
C50   C     C_3   0.792885 0.438889 0.774984 -0.270720
C51   C     C_3   0.719681 0.419514 0.732471 -0.992761
C52   C     C_3   0.873194 0.352324 0.654099 -0.366085
C53   C     C_3   0.922764 0.419233 0.629746 -0.965563
C54   C     C_3   0.611077 0.891658 0.653945 -0.300342
C55   C     C_3   0.591173 0.972325 0.630692 -0.967047
C56   C     C_3   0.138034 0.598842 0.640867 -0.322080
C57   C     C_R   0.109686 0.804487 0.596528 0.483841
C58   C     C_3   0.071806 0.543840 0.631703 -1.003377
C59   C     C_3   0.389806 0.141542 0.635202 -0.301929
C60   C     C_3   0.433192 0.072915 0.605970 -0.984199
C61   C     C_3   0.871650 0.610293 0.355131 -0.306011
C62   C     C_3   0.946118 0.575949 0.380985 -0.974302
C63   C     C_3   0.601358 0.146058 0.366420 -0.320932
C64   C     C_3   0.543936 0.083078 0.381318 -1.004056
C65   C     C_3   0.126417 0.389332 0.356578 -0.302514
C66   C     C_3   0.051665 0.423346 0.382832 -0.976911
C67   C     C_3   0.398303 0.853922 0.364853 -0.319649
C68   C     C_R   0.804630 0.890715 0.596004 0.471931
C69   C     C_3   0.454982 0.917275 0.380187 -1.004741
C70   C     C_3   0.372909 0.890227 0.145716 -0.304082
C71   C     C_3   0.447837 0.923441 0.119011 -0.977412
C72   C     C_3   0.100898 0.354296 0.137090 -0.319129
C73   C     C_3   0.043932 0.417534 0.121848 -1.011159
C74   C     C_3   0.627727 0.110037 0.147322 -0.311409
C75   C     C_3   0.553091 0.076198 0.121572 -0.976019
C76   C     C_3   0.898274 0.646518 0.135578 -0.311943
C77   C     C_3   0.955244 0.583366 0.119408 -1.011001
C78   C     C_3   0.365473 0.099874 0.854609 -0.301053
C79   C     C_3   0.886181 0.326037 0.737461 0.241576
C80   C     C_3   0.432160 0.046096 0.866013 -1.020511
C81   C     C_3   0.111651 0.632954 0.859729 -0.305777
C82   C     C_3   0.077230 0.559518 0.889772 -0.960083
C83   C     C_3   0.652699 0.893171 0.872553 -0.314922
C84   C     C_3   0.591054 0.948286 0.897578 -0.983142
C85   C     C_3   0.896716 0.394312 0.872740 -0.299737
C86   C     C_3   0.904912 0.477534 0.893683 -0.972681
C87   C     C_3   0.152321 0.647237 0.326332 -0.394126
C88   C     C_3   0.192137 0.626632 0.399802 -0.876761
C89   C     C_3   0.354661 0.172475 0.347867 -0.389968
C90   C     C_3   0.667960 0.883266 0.722267 0.278984
C91   C     C_3   0.357517 0.214561 0.423201 -0.857764
C92   C     C_3   0.847149 0.352860 0.326514 -0.391105
C93   C     C_3   0.805882 0.374161 0.399414 -0.898344
C94   C     C_3   0.645087 0.830383 0.347450 -0.397772
C95   C     C_3   0.642635 0.790324 0.424028 -0.847937
C96   C     C_3   0.164848 0.354016 0.662798 -0.396184
C97   C     C_3   0.205794 0.362623 0.587006 -0.860232
C98   C     C_3   0.355246 0.841949 0.665564 -0.391412
C99   C     C_3   0.372441 0.798865 0.592826 -0.861597
C100  C     C_3   0.827760 0.643166 0.651941 -0.385169
C101  C     C_3   0.129722 0.654524 0.710242 0.309405
C102  C     C_3   0.790090 0.639486 0.574745 -0.840079
C103  C     C_3   0.667312 0.147760 0.715955 -0.401608
C104  C     C_3   0.650617 0.203207 0.652002 -0.886697
C105  C     C_3   0.688675 0.137201 0.892514 -0.389548
C106  C     C_3   0.746872 0.120205 0.953183 -0.858160
C107  C     C_3   0.848511 0.650361 0.820148 -0.397752
C108  C     C_3   0.868600 0.685194 0.896458 -0.868217
C109  C     C_3   0.336688 0.854645 0.837047 -0.396113
C110  C     C_3   0.293701 0.864723 0.911428 -0.855238
C111  C     C_3   0.153039 0.345542 0.835585 -0.398949
C112  C     C_R   0.696142 0.389752 0.910057 0.474910
C113  C     C_3   0.340634 0.125834 0.708147 0.292244
C114  C     C_3   0.140297 0.310168 0.913605 -0.877671
C115  C     C_3   0.652323 0.852726 0.175682 -0.393869
C116  C     C_3   0.693589 0.873223 0.102569 -0.873216
C117  C     C_3   0.854361 0.329686 0.154853 -0.384191
C118  C     C_3   0.858419 0.286603 0.080096 -0.865076
C119  C     C_3   0.347836 0.148064 0.176540 -0.395038
C120  C     C_3   0.308037 0.127251 0.103149 -0.877090
C121  C     C_3   0.145535 0.670814 0.154827 -0.394409
C122  C     C_3   0.142653 0.712498 0.079190 -0.848613
C123  C     C_3   0.878011 0.664596 0.284208 0.287597
C124  C     C_3   0.653309 0.131998 0.295273 0.310115
C125  C     C_3   0.120634 0.335406 0.285492 0.282210
C126  C     C_3   0.346675 0.868147 0.294000 0.313656
C127  C     C_3   0.378489 0.835570 0.216448 0.288387
C128  C     C_3   0.152388 0.368301 0.208024 0.316513
C129  C     C_3   0.621718 0.164609 0.217966 0.292969
C130  C     C_3   0.846531 0.631971 0.206904 0.312416
C131  C     C_3   0.374641 0.155649 0.785451 0.301135
C132  C     C_R   0.609910 0.695530 0.904745 0.466084
C133  C     C_3   0.163595 0.623832 0.787340 0.290760
C134  C     C_3   0.633929 0.848226 0.797673 0.312051
C135  C     C_3   0.845104 0.372337 0.802851 0.314305
C136  C     C_R   0.397461 0.693396 0.890939 -0.224590
C137  C     C_R   0.307116 0.395750 0.893561 -0.238969
C138  C     C_R   0.605975 0.305299 0.895317 -0.242950
C139  C     C_R   0.694026 0.603759 0.893933 -0.231537
C140  C     C_R   0.396076 0.305469 0.105648 -0.240456
C141  C     C_R   0.306897 0.603353 0.109263 -0.233430
C142  C     C_R   0.603300 0.694392 0.106307 -0.227528
C143  C     C_R   0.305123 0.610458 0.904489 0.476700
C144  C     C_R   0.692743 0.396694 0.109421 -0.233739
C145  C     C_R   0.895595 0.195158 0.396375 -0.275874
C146  C     C_R   0.806792 0.896483 0.391919 -0.236035
C147  C     C_R   0.103960 0.805201 0.395207 -0.234385
C148  C     C_R   0.193494 0.104825 0.393023 -0.223699
C149  C     C_R   0.895888 0.806541 0.608686 -0.234563
C150  C     C_R   0.813788 0.097319 0.622675 -0.205368
C151  C     C_R   0.103946 0.194242 0.606457 -0.127661
C152  C     C_R   0.194026 0.895901 0.605494 -0.233109
C153  C     C_R   0.320661 0.320014 0.876523 0.086775
C154  C     C_R   0.390226 0.695462 0.095888 0.478735
C155  C     C_R   0.682911 0.317340 0.888056 0.100648
C156  C     C_R   0.682358 0.679824 0.878952 0.090578
C157  C     C_R   0.321608 0.681743 0.876556 0.092800
C158  C     C_R   0.319228 0.679500 0.123418 0.101853
C159  C     C_R   0.678487 0.682401 0.122816 0.097943
C160  C     C_R   0.680416 0.320519 0.123909 0.101035
C161  C     C_R   0.320615 0.317605 0.122186 0.089324
C162  C     C_R   0.819098 0.820294 0.377837 0.093896
C163  C     C_R   0.179543 0.816759 0.379804 0.096549
C164  C     C_R   0.180973 0.181436 0.380220 0.090229
C165  C     C_R   0.694763 0.610119 0.097229 0.479298
C166  C     C_R   0.820110 0.183410 0.380782 0.089200
C167  C     C_R   0.841740 0.157210 0.664477 0.033277
C168  C     C_R   0.179595 0.181718 0.621690 0.052637
C169  C     C_R   0.182127 0.820123 0.621052 0.095682
C170  C     C_R   0.819674 0.819239 0.622645 0.088892
C171  C     C_R   0.803046 0.298450 0.818122 -0.045915
C172  C     C_R   0.687724 0.783552 0.783088 -0.057496
C173  C     C_R   0.218092 0.688459 0.781382 -0.071467
C174  C     C_R   0.311224 0.213453 0.783640 -0.075468
C175  C     C_R   0.785076 0.691527 0.214777 -0.059645
C176  C     C_R   0.609437 0.304531 0.096307 0.483549
C177  C     C_R   0.687993 0.217044 0.219880 -0.076809
C178  C     C_R   0.213727 0.308631 0.215113 -0.058839
C179  C     C_R   0.312055 0.783179 0.218767 -0.075259
C180  C     C_R   0.285571 0.808436 0.286506 -0.063744
C181  C     C_R   0.187056 0.283198 0.282778 -0.079976
C182  C     C_R   0.714483 0.191637 0.287420 -0.065382
C183  C     C_R   0.811732 0.717146 0.282056 -0.079138
C184  C     C_R   0.283288 0.187539 0.716997 -0.072112
C185  C     C_R   0.191965 0.713710 0.713632 -0.060564
C186  C     C_R   0.712894 0.811004 0.715569 -0.042297
C187  C     C_R   0.304909 0.390230 0.097086 0.481263
C188  C     C_R   0.836172 0.260899 0.759516 -0.044178
C189  C     C_R   0.740009 0.267745 0.855608 0.031884
C190  C     C_R   0.722162 0.722248 0.819023 -0.004710
C191  C     C_R   0.276955 0.723434 0.820281 0.017922
C192  C     C_R   0.278537 0.275134 0.821302 0.030741
C193  C     C_R   0.721780 0.724113 0.180293 0.014094
C194  C     C_R   0.722852 0.274593 0.178523 0.021643
C195  C     C_R   0.277291 0.276189 0.180320 0.018422
C196  C     C_R   0.276822 0.725921 0.177673 0.023442
C197  C     C_R   0.222739 0.775349 0.321813 0.013413
C198  C     C_R   0.890396 0.804473 0.404648 0.482532
C199  C     C_R   0.222910 0.227122 0.324842 0.020042
C200  C     C_R   0.777288 0.224554 0.322325 0.023394
C201  C     C_R   0.776493 0.774288 0.323674 0.024158
C202  C     C_R   0.224082 0.222714 0.678672 0.024196
C203  C     C_R   0.225191 0.775544 0.676423 0.015495
C204  C     C_R   0.770957 0.775865 0.674246 0.031225
C205  C     C_R   0.803779 0.196455 0.727144 0.022511
C206  C     C_R   0.190199 0.711903 0.283996 0.124850
C207  C     C_R   0.292651 0.200877 0.295961 0.112760
C208  C     C_R   0.809492 0.288330 0.284311 0.131493
H1    H     H_    0.429753 0.743552 0.884039 0.142188
H2    H     H_    0.755923 0.927892 0.385489 0.146474
H3    H     H_    0.282840 0.488144 0.705074 0.262684
H4    H     H_    0.212383 0.521485 0.837731 0.210413
H5    H     H_    0.163622 0.506077 0.756458 0.166924
H6    H     H_    0.556324 0.749278 0.690331 0.259545
H7    H     H_    0.555073 0.698060 0.775451 0.260045
H8    H     H_    0.470496 0.740352 0.744074 0.262861
H9    H     H_    0.525719 0.813800 0.849338 0.216856
H10   H     H_    0.514011 0.870157 0.773170 0.159062
H11   H     H_    0.713858 0.358471 0.720305 0.260170
H12   H     H_    0.669322 0.437419 0.765378 0.257989
H13   H     H_    0.075526 0.752415 0.399764 0.144407
H14   H     H_    0.717931 0.451061 0.678367 0.264320
H15   H     H_    0.775022 0.473946 0.822694 0.199436
H16   H     H_    0.826882 0.477836 0.740413 0.173238
H17   H     H_    0.929702 0.461289 0.675372 0.258680
H18   H     H_    0.979626 0.398606 0.613131 0.259978
H19   H     H_    0.897502 0.447779 0.580155 0.269483
H20   H     H_    0.886475 0.305535 0.614846 0.172371
H21   H     H_    0.813842 0.365144 0.641876 0.218567
H22   H     H_    0.571812 0.004562 0.680793 0.249410
H23   H     H_    0.638322 0.002266 0.602998 0.281075
H24   H     H_    0.244473 0.073637 0.385788 0.143649
H25   H     H_    0.545572 0.969672 0.588265 0.272830
H26   H     H_    0.629843 0.858533 0.604501 0.241499
H27   H     H_    0.555759 0.866087 0.662792 0.188608
H28   H     H_    0.056946 0.516766 0.686148 0.254352
H29   H     H_    0.021460 0.573321 0.609189 0.276219
H30   H     H_    0.087077 0.498945 0.590693 0.273911
H31   H     H_    0.146628 0.628544 0.587370 0.254009
H32   H     H_    0.189667 0.564913 0.641411 0.201787
H33   H     H_    0.452750 0.038670 0.654220 0.259007
H34   H     H_    0.397365 0.037220 0.569308 0.288656
H35   H     H_    0.926629 0.755113 0.615107 0.142838
H36   H     H_    0.482548 0.091839 0.572059 0.267787
H37   H     H_    0.356664 0.166878 0.589430 0.244686
H38   H     H_    0.430829 0.187123 0.641441 0.191509
H39   H     H_    0.979957 0.558973 0.331181 0.253286
H40   H     H_    0.979114 0.616157 0.415455 0.288351
H41   H     H_    0.934564 0.525673 0.416820 0.268241
H42   H     H_    0.842435 0.637682 0.402831 0.243755
H43   H     H_    0.833804 0.562134 0.348270 0.197684
H44   H     H_    0.514464 0.067063 0.328811 0.256033
H45   H     H_    0.571909 0.032416 0.405436 0.283255
H46   H     H_    0.757818 0.076743 0.617666 0.137115
H47   H     H_    0.501417 0.102619 0.423050 0.272958
H48   H     H_    0.633674 0.155337 0.418002 0.254874
H49   H     H_    0.570376 0.199618 0.364552 0.200878
H50   H     H_    0.018033 0.440100 0.333203 0.254035
H51   H     H_    0.018681 0.382904 0.417483 0.286226
H52   H     H_    0.062737 0.473714 0.418534 0.271030
H53   H     H_    0.155106 0.361564 0.404115 0.243601
H54   H     H_    0.164297 0.437567 0.349663 0.197516
H55   H     H_    0.485381 0.933373 0.327862 0.256265
H56   H     H_    0.426322 0.967755 0.404124 0.281898
H57   H     H_    0.073238 0.246237 0.608934 0.138458
H58   H     H_    0.496738 0.898001 0.422336 0.271205
H59   H     H_    0.365799 0.843456 0.416444 0.252670
H60   H     H_    0.429947 0.800802 0.362502 0.200941
H61   H     H_    0.481873 0.939879 0.168431 0.254785
H62   H     H_    0.480356 0.882785 0.084167 0.285933
H63   H     H_    0.436989 0.973928 0.083324 0.271404
H64   H     H_    0.343218 0.863549 0.098239 0.244353
H65   H     H_    0.335888 0.939073 0.153236 0.197897
H66   H     H_    0.013545 0.433508 0.174221 0.257032
H67   H     H_    0.072393 0.468072 0.097879 0.283725
H68   H     H_    0.246007 0.925392 0.604095 0.146704
H69   H     H_    0.002171 0.398215 0.079751 0.270667
H70   H     H_    0.133620 0.344209 0.085547 0.252499
H71   H     H_    0.069511 0.301071 0.139280 0.200687
H72   H     H_    0.519305 0.059184 0.171401 0.254241
H73   H     H_    0.520146 0.116669 0.087245 0.286777
H74   H     H_    0.564469 0.025994 0.085596 0.270230
H75   H     H_    0.657020 0.137173 0.099584 0.249201
H76   H     H_    0.665201 0.061526 0.154413 0.197868
H77   H     H_    0.985274 0.566814 0.171465 0.257876
H78   H     H_    0.926915 0.533108 0.095072 0.283194
H79   H     H_    0.463214 0.242578 0.952613 0.296510
H80   H     H_    0.997300 0.603093 0.077329 0.270193
H81   H     H_    0.865986 0.657354 0.084245 0.252296
H82   H     H_    0.929693 0.699663 0.137971 0.199899
H83   H     H_    0.451651 0.022012 0.811596 0.253362
H84   H     H_    0.479547 0.076054 0.893548 0.279554
H85   H     H_    0.415336 0.998910 0.903774 0.275781
H86   H     H_    0.354152 0.129328 0.907848 0.251597
H87   H     H_    0.314356 0.065353 0.852297 0.198504
H88   H     H_    0.053645 0.526075 0.842674 0.253880
H89   H     H_    0.118586 0.524336 0.920481 0.285445
H90   H     H_    0.751463 0.459330 0.967128 0.297923
H91   H     H_    0.032111 0.574041 0.930754 0.259788
H92   H     H_    0.140710 0.663505 0.905259 0.242322
H93   H     H_    0.063821 0.671242 0.853021 0.196418
H94   H     H_    0.575808 0.985344 0.849640 0.257415
H95   H     H_    0.540472 0.918017 0.918804 0.285267
H96   H     H_    0.612043 0.984218 0.944293 0.265623
H97   H     H_    0.668324 0.856069 0.919399 0.249865
H98   H     H_    0.704527 0.926437 0.870584 0.198194
H99   H     H_    0.927732 0.509012 0.844697 0.253973
H100  H     H_    0.852784 0.503964 0.914179 0.286773
H101  H     H_    0.541450 0.756259 0.960299 0.295908
H102  H     H_    0.944944 0.481883 0.941291 0.268565
H103  H     H_    0.881279 0.360897 0.923381 0.236777
H104  H     H_    0.955910 0.381176 0.864567 0.190930
H105  H     H_    0.253139 0.616537 0.389242 0.251173
H106  H     H_    0.185699 0.672276 0.442223 0.284242
H107  H     H_    0.166987 0.574156 0.423542 0.250217
H108  H     H_    0.092096 0.656618 0.335798 0.177824
H109  H     H_    0.153354 0.596185 0.290868 0.192601
H110  H     H_    0.359382 0.276741 0.413560 0.246980
H111  H     H_    0.308002 0.200802 0.458903 0.291153
H112  H     H_    0.255008 0.424724 0.897472 0.152399
H113  H     H_    0.244235 0.544945 0.963507 0.296045
H114  H     H_    0.408970 0.197810 0.454380 0.247340
H115  H     H_    0.353280 0.110508 0.356134 0.180394
H116  H     H_    0.409203 0.183846 0.320760 0.201236
H117  H     H_    0.745083 0.384128 0.388277 0.257580
H118  H     H_    0.811566 0.328898 0.442346 0.262008
H119  H     H_    0.830540 0.426871 0.422809 0.249811
H120  H     H_    0.906922 0.342678 0.336932 0.178336
H121  H     H_    0.847602 0.403802 0.290755 0.192253
H122  H     H_    0.590945 0.807212 0.455303 0.241508
H123  H     H_    0.641619 0.727881 0.416171 0.246882
H124  H     H_    0.456982 0.757213 0.039679 0.294933
H125  H     H_    0.691776 0.805773 0.459003 0.291880
H126  H     H_    0.646743 0.892520 0.354095 0.180756
H127  H     H_    0.590288 0.818402 0.321438 0.202153
H128  H     H_    0.187625 0.415710 0.558948 0.246634
H129  H     H_    0.267742 0.365428 0.595715 0.248317
H130  H     H_    0.192842 0.314966 0.548672 0.287409
H131  H     H_    0.103326 0.350523 0.655622 0.173222
H132  H     H_    0.173754 0.407761 0.692127 0.202637
H133  H     H_    0.383498 0.738197 0.605357 0.252202
H134  H     H_    0.324752 0.803308 0.552902 0.281936
H135  H     H_    0.758875 0.541393 0.046437 0.296315
H136  H     H_    0.423333 0.823378 0.565387 0.248625
H137  H     H_    0.347195 0.902277 0.654107 0.178070
H138  H     H_    0.407551 0.841316 0.699096 0.195954
H139  H     H_    0.727956 0.634426 0.581434 0.247461
H140  H     H_    0.803085 0.690473 0.540722 0.290361
H141  H     H_    0.811221 0.589101 0.543625 0.245393
H142  H     H_    0.889747 0.645978 0.646315 0.174868
H143  H     H_    0.816304 0.587811 0.678962 0.192099
H144  H     H_    0.641502 0.260877 0.674876 0.252045
H145  H     H_    0.697384 0.204966 0.610325 0.269212
H146  H     H_    0.542682 0.243210 0.039712 0.293614
H147  H     H_    0.598653 0.185117 0.622376 0.256561
H148  H     H_    0.671332 0.090797 0.693785 0.185292
H149  H     H_    0.616688 0.146309 0.752812 0.187313
H150  H     H_    0.800568 0.100591 0.927114 0.251099
H151  H     H_    0.757702 0.171673 0.987410 0.268032
H152  H     H_    0.725352 0.074830 0.990921 0.242369
H153  H     H_    0.636285 0.156428 0.920210 0.217061
H154  H     H_    0.675197 0.083183 0.863992 0.192151
H155  H     H_    0.920535 0.658011 0.918295 0.255153
H156  H     H_    0.879275 0.746873 0.890063 0.248458
H157  H     H_    0.243340 0.459350 0.043475 0.296761
H158  H     H_    0.823307 0.676742 0.938753 0.286854
H159  H     H_    0.836651 0.589932 0.822639 0.176234
H160  H     H_    0.899969 0.654454 0.785503 0.193263
H161  H     H_    0.232239 0.870059 0.900729 0.247751
H162  H     H_    0.303693 0.816256 0.949826 0.289458
H163  H     H_    0.313088 0.916917 0.940223 0.245693
H164  H     H_    0.397632 0.849545 0.846684 0.180093
H165  H     H_    0.331184 0.908504 0.806677 0.200888
H166  H     H_    0.129513 0.248440 0.908428 0.251816
H167  H     H_    0.189213 0.318149 0.951042 0.291971
H168  H     H_    0.957452 0.743753 0.461623 0.296979
H169  H     H_    0.090907 0.337520 0.941154 0.250373
H170  H     H_    0.159292 0.407023 0.838032 0.170632
H171  H     H_    0.100611 0.340558 0.805975 0.208774
H172  H     H_    0.668556 0.925416 0.078269 0.250624
H173  H     H_    0.754269 0.883722 0.113717 0.249886
H174  H     H_    0.688440 0.827241 0.060422 0.284683
H175  H     H_    0.592424 0.843182 0.165416 0.179153
H176  H     H_    0.652471 0.903893 0.211094 0.191981
H177  H     H_    0.859594 0.224527 0.090492 0.248317
H178  H     H_    0.809707 0.300567 0.043830 0.291848
H179  H     H_    0.256735 0.958629 0.457309 0.295899
H180  H     H_    0.910671 0.302349 0.049217 0.239539
H181  H     H_    0.851982 0.391417 0.145535 0.180940
H182  H     H_    0.908925 0.319663 0.182014 0.200397
H183  H     H_    0.332989 0.074456 0.079845 0.250528
H184  H     H_    0.246974 0.117625 0.113679 0.251586
H185  H     H_    0.314763 0.172555 0.060368 0.280377
H186  H     H_    0.408010 0.157464 0.166940 0.178283
H187  H     H_    0.346822 0.097110 0.212262 0.192335
H188  H     H_    0.140271 0.774712 0.088462 0.246090
H189  H     H_    0.192385 0.698850 0.043717 0.293392
H190  H     H_    0.040531 0.253183 0.468838 0.302480
H191  H     H_    0.091508 0.695307 0.047834 0.244285
H192  H     H_    0.147293 0.608853 0.146860 0.180604
H193  H     H_    0.090906 0.682162 0.181799 0.201641
H194  H     H_    0.743327 0.041085 0.458946 0.296759
H195  H     H_    0.989406 0.105282 0.692333 0.324255
H196  H     H_    0.575849 0.253529 0.887378 0.123853
H197  H     H_    0.255815 0.042398 0.537919 0.296859
H198  H     H_    0.040252 0.742279 0.544402 0.296264
H199  H     H_    0.743932 0.960545 0.543308 0.299460
H200  H     H_    0.994966 0.272670 0.870968 0.209898
H201  H     H_    0.948381 0.202387 0.819776 0.282344
H202  H     H_    0.045062 0.221781 0.800845 0.268633
H203  H     H_    0.995272 0.286699 0.697403 0.217103
H204  H     H_    0.999498 0.362184 0.756564 0.132890
H205  H     H_    0.803822 0.888185 0.803730 0.259520
H206  H     H_    0.845038 0.940952 0.727999 0.259370
H207  H     H_    0.745914 0.573699 0.894608 0.139213
H208  H     H_    0.811781 0.989583 0.808995 0.262110
H209  H     H_    0.731933 0.980104 0.680805 0.212980
H210  H     H_    0.689212 0.995582 0.767952 0.174768
H211  H     H_    0.084852 0.782188 0.790126 0.263409
H212  H     H_    0.025771 0.810517 0.713367 0.262848
H213  H     H_    0.985395 0.763367 0.791499 0.264814
H214  H     H_    0.020892 0.690024 0.661076 0.211750
H215  H     H_    0.013228 0.643600 0.745038 0.165967
H216  H     H_    0.208439 0.083069 0.782717 0.262508
H217  H     H_    0.183568 0.019426 0.708423 0.260189
H218  H     H_    0.424432 0.252516 0.101500 0.143101
H219  H     H_    0.229177 0.984121 0.788978 0.261194
H220  H     H_    0.302023 0.020430 0.655312 0.212447
H221  H     H_    0.347749 0.006785 0.738069 0.163437
H222  H     H_    0.905968 0.802329 0.211171 0.262443
H223  H     H_    0.970594 0.831399 0.282821 0.260878
H224  H     H_    0.005790 0.788813 0.199622 0.260030
H225  H     H_    0.980088 0.713873 0.333803 0.211732
H226  H     H_    0.994830 0.668728 0.249810 0.165031
H227  H     H_    0.776309 0.080048 0.212714 0.263597
H228  H     H_    0.805466 0.024745 0.291828 0.263136
H229  H     H_    0.256249 0.571789 0.116685 0.144446
H230  H     H_    0.756602 0.980744 0.217891 0.265512
H231  H     H_    0.685417 0.022848 0.347374 0.211157
H232  H     H_    0.637718 0.013919 0.264866 0.164198
H233  H     H_    0.093693 0.198385 0.211094 0.260906
H234  H     H_    0.030638 0.167754 0.284144 0.262488
H235  H     H_    0.993502 0.210414 0.202118 0.260222
H236  H     H_    0.018950 0.284997 0.335791 0.216758
H237  H     H_    0.003949 0.330409 0.251839 0.165327
H238  H     H_    0.243995 0.019123 0.216517 0.266058
H239  H     H_    0.223822 0.919949 0.212713 0.263759
H240  H     H_    0.575305 0.747397 0.101855 0.144403
H241  H     H_    0.194879 0.976341 0.291563 0.262810
H242  H     H_    0.314645 0.977985 0.345849 0.210333
H243  H     H_    0.362646 0.986143 0.263122 0.163006
H244  H     H_    0.405648 0.698208 0.290490 0.262562
H245  H     H_    0.468924 0.667912 0.217405 0.260217
H246  H     H_    0.505786 0.710174 0.299644 0.259948
H247  H     H_    0.480029 0.785398 0.166239 0.209999
H248  H     H_    0.495382 0.830357 0.250283 0.166565
H249  H     H_    0.275436 0.419498 0.289269 0.262885
H250  H     H_    0.304110 0.475715 0.210289 0.262887
H251  H     H_    0.743159 0.428396 0.117039 0.144875
H252  H     H_    0.255573 0.518734 0.285561 0.265392
H253  H     H_    0.183797 0.478451 0.156738 0.213163
H254  H     H_    0.136342 0.485897 0.239967 0.161920
H255  H     H_    0.594140 0.301985 0.291938 0.262069
H256  H     H_    0.531257 0.332227 0.219207 0.260203
H257  H     H_    0.494004 0.289986 0.301794 0.260565
H258  H     H_    0.520015 0.214828 0.168268 0.211090
H259  H     H_    0.504895 0.169644 0.252282 0.166267
H260  H     H_    0.723210 0.579822 0.288698 0.263244
H261  H     H_    0.695253 0.523857 0.209702 0.261927
H262  H     H_    0.923007 0.248316 0.403062 0.135959
H263  H     H_    0.743636 0.480623 0.284438 0.266690
H264  H     H_    0.816078 0.521750 0.155646 0.209266
H265  H     H_    0.862872 0.514261 0.238521 0.162561
H266  H     H_    0.414511 0.292492 0.720219 0.259984
H267  H     H_    0.485717 0.310092 0.789750 0.263294
H268  H     H_    0.511091 0.269699 0.702395 0.260433
H269  H     H_    0.485465 0.187465 0.833495 0.212064
H270  H     H_    0.490900 0.148585 0.745099 0.175364
H271  H     H_    0.294742 0.589199 0.705459 0.262071
H272  H     H_    0.328142 0.532545 0.781893 0.260190
N1    N     N_R   0.425360 0.368540 0.922560 -0.099114
N2    N     N_R   0.131460 0.925360 0.422560 -0.098567
N3    N     N_R   0.074640 0.131460 0.422560 -0.099761
N4    N     N_R   0.868540 0.074640 0.422560 -0.096760
N5    N     N_R   0.925360 0.131460 0.577440 -0.092385
N6    N     N_R   0.131460 0.074640 0.577440 -0.105688
N7    N     N_R   0.074640 0.868540 0.577440 -0.100505
N8    N     N_R   0.868540 0.925360 0.577440 -0.100426
N9    N     N_R   0.425340 0.631500 0.922560 -0.069183
N10   N     N_R   0.368500 0.425340 0.922560 -0.073363
N11   N     N_R   0.574660 0.368500 0.922560 -0.071239
N12   N     N_R   0.631460 0.425360 0.922560 -0.101723
N13   N     N_R   0.631500 0.574660 0.922560 -0.070903
N14   N     N_R   0.425340 0.368500 0.077440 -0.072640
N15   N     N_R   0.368500 0.574660 0.077440 -0.072078
N16   N     N_R   0.574660 0.631500 0.077440 -0.072120
N17   N     N_R   0.631500 0.425340 0.077440 -0.073971
N18   N     N_R   0.925340 0.131500 0.422560 -0.069676
N19   N     N_R   0.868500 0.925340 0.422560 -0.071878
N20   N     N_R   0.074660 0.868500 0.422560 -0.072438
N21   N     N_R   0.131500 0.074660 0.422560 -0.073347
N22   N     N_R   0.925340 0.868500 0.577440 -0.073434
N23   N     N_R   0.574640 0.631460 0.922560 -0.094354
N24   N     N_R   0.868500 0.074660 0.577440 -0.067393
N25   N     N_R   0.074660 0.131500 0.577440 -0.071118
N26   N     N_R   0.131500 0.925340 0.577440 -0.074633
N27   N     N_R   0.368540 0.574640 0.922560 -0.099589
N28   N     N_R   0.425360 0.631460 0.077440 -0.100339
N29   N     N_R   0.631460 0.574640 0.077440 -0.099251
N30   N     N_R   0.574640 0.368540 0.077440 -0.100621
N31   N     N_R   0.368540 0.425360 0.077440 -0.098673
N32   N     N_R   0.925360 0.868540 0.422560 -0.099239
Ni1   Ni    Ni4+2 0.500000 0.369720 0.000000 0.184664
Ni2   Ni    Ni4+2 0.630280 0.500000 0.000000 0.187462
Ni3   Ni    Ni4+2 0.500000 0.630280 0.000000 0.189410
Ni4   Ni    Ni4+2 0.369720 0.500000 0.000000 0.184376
Ni5   Ni    Ni4+2 1.000000 0.869720 0.500000 0.183350
Ni6   Ni    Ni4+2 0.130280 0.000000 0.500000 0.182453
Ni7   Ni    Ni4+2 0.000000 0.130280 0.500000 0.178269
Ni8   Ni    Ni4+2 0.869720 0.000000 0.500000 0.185210
O1    O     O_3   0.411780 0.237132 0.932990 -0.818638
O2    O     O_3   0.260379 0.905650 0.440899 -0.816694
O3    O     O_3   0.090918 0.260617 0.445523 -0.816037
O4    O     O_3   0.739689 0.094223 0.442916 -0.814001
O5    O     O_3   0.971494 0.158557 0.695183 -0.787055
O6    O     O_3   0.259796 0.094720 0.556108 -0.811671
O7    O     O_3   0.092666 0.738130 0.561669 -0.820027
O8    O     O_3   0.738619 0.908300 0.561549 -0.806236
O9    O     O_3   0.759809 0.408053 0.947964 -0.801126
O10   O     O_3   0.594338 0.759785 0.944104 -0.814195
O11   O     O_3   0.240388 0.596782 0.943733 -0.809535
O12   O     O_3   0.404822 0.760862 0.057950 -0.809057
O13   O     O_3   0.760982 0.594647 0.061628 -0.817891
O14   O     O_3   0.594309 0.238791 0.059215 -0.805299
O15   O     O_3   0.238953 0.407151 0.062162 -0.822759
O16   O     O_3   0.905858 0.739091 0.442277 -0.812482

loop_
_geom_bond_atom_site_label_1
_geom_bond_atom_site_label_2
_ccdc_geom_bond_type
C70   C127  S    
C126  C127  S    
C118  H178  S    
C14   C208  A    
C22   H212  S    
C65   H54   S    
C146  H2    S    
C142  H240  S    
C31   H233  S    
N3    Ni7   S    
H179  O2    S    
C50   H16   S    
C60   H33   S    
C167  C205  S    
C56   C101  S    
C154  C158  A    
C176  O14   S    
C116  H173  S    
C90   C134  S    
C150  H46   S    
C113  C184  S    
H113  O11   S    
C83   H97   S    
C177  C182  A    
N14   Ni1   S    
C11   C192  A    
C12   C193  A    
C1    N1    A    
N26   Ni6   S    
C140  H218  S    
C155  C189  S    
C53   H17   S    
C4    C96   S    
C107  H159  S    
N29   Ni2   S    
C19   C20   S    
C165  O13   S    
C34   C127  S    
C112  C155  A    
C45   H5    S    
N18   Ni7   S    
C126  C180  S    
C144  C160  A    
N6    N25   A    
C170  C204  S    
C12   C115  S    
C119  H187  S    
C86   H100  S    
C14   C194  A    
C122  H188  S    
C59   C60   S    
C200  C208  A    
C70   H65   S    
C21   C22   S    
C197  C206  A    
C97   H129  S    
C102  H139  S    
C93   H119  S    
C108  H158  S    
C145  N18   A    
C145  C166  A    
N5    Ni7   S    
C188  C205  A    
C45   H4    S    
N17   Ni2   S    
C183  C201  A    
C118  H180  S    
H146  O14   S    
C174  C184  A    
C72   C73   S    
C120  H185  S    
C90   C186  S    
C122  H189  S    
C172  C190  A    
C137  N10   A    
C17   H204  S    
C110  H163  S    
C173  C191  A    
C149  C170  A    
C43   C44   S    
C157  C191  S    
C124  C182  S    
C37   C38   S    
C99   H134  S    
N27   Ni4   S    
C23   C113  S    
N2    N20   A    
C71   H61   S    
C61   H43   S    
C137  C153  A    
C136  H1    S    
H190  O3    S    
C142  N16   A    
N22   Ni5   S    
C84   H94   S    
H101  O10   S    
C74   H75   S    
C29   H227  S    
C26   C123  S    
N9    N27   A    
C175  C183  A    
C98   H137  S    
C49   H7    S    
N31   Ni4   S    
N8    Ni8   S    
C114  H169  S    
C34   H247  S    
C56   H32   S    
C80   H84   S    
C77   H77   S    
C59   C113  S    
C81   H93   S    
H198  O7    S    
N23   Ni3   S    
C101  C133  S    
C161  C195  S    
C162  C198  A    
C45   C133  S    
C10   C191  A    
C100  H142  S    
C43   C131  S    
C40   H255  S    
C53   H19   S    
C95   H122  S    
C46   N6    A    
C78   H87   S    
C30   C31   S    
C44   H267  S    
C32   H243  S    
C88   H105  S    
C168  C202  S    
C59   H38   S    
C72   H70   S    
C26   H226  S    
C94   H127  S    
N4    N18   A    
C112  O9    S    
C98   C99   S    
N13   Ni2   S    
C38   H252  S    
C112  N12   A    
C133  C173  S    
C175  C193  A    
N28   Ni3   S    
C35   N5    A    
C30   H236  S    
N6    Ni6   S    
C47   H3    S    
C144  H251  S    
C144  N17   A    
C6    C9    A    
C140  N14   A    
C63   C124  S    
C7    C8    A    
C69   H55   S    
C89   C207  S    
C85   C86   S    
C110  H161  S    
H124  O12   S    
N16   N29   A    
C18   H201  S    
C48   C134  S    
C54   C90   S    
C66   H52   S    
C20   H205  S    
C97   H128  S    
C91   H110  S    
C78   C80   S    
C52   H21   S    
H168  O16   S    
C169  C203  S    
C115  C116  S    
C10   C109  S    
H135  O13   S    
C25   H217  S    
C91   H114  S    
C116  H172  S    
C64   H44   S    
N5    N24   A    
C76   C130  S    
C104  H144  S    
C83   C84   S    
C123  C183  S    
C107  C108  S    
C23   H221  S    
C89   C91   S    
C52   C79   S    
C105  H154  S    
C76   H82   S    
C21   H215  S    
C164  C199  S    
C30   C125  S    
C104  H145  S    
C92   H120  S    
C172  C186  A    
C55   H22   S    
C68   C170  A    
C101  C185  S    
N21   Ni6   S    
C100  C102  S    
C85   H104  S    
C79   C188  S    
C176  N30   A    
C148  C164  A    
N15   Ni4   S    
C198  O16   S    
C106  H151  S    
C39   C40   S    
C61   H42   S    
C39   C129  S    
C51   H11   S    
C24   N4    A    
C88   H107  S    
C158  C196  S    
C159  C165  A    
C6    C100  S    
C47   H272  S    
C139  N13   A    
C62   H40   S    
C63   H48   S    
C73   H66   S    
C14   C117  S    
C117  H181  S    
C17   C18   S    
C151  N25   A    
N25   Ni7   S    
C28   H231  S    
C68   O8    S    
C123  C130  S    
C57   N7    A    
N19   Ni8   S    
C54   H26   S    
C137  H112  S    
C115  H175  S    
C52   C53   S    
C64   H45   S    
C159  C193  S    
C54   C55   S    
C22   H213  S    
C65   H53   S    
C23   H220  S    
C66   H50   S    
C38   H249  S    
C146  N19   A    
C5    C203  A    
C28   C124  S    
C81   C133  S    
C130  C175  S    
C9    C107  S    
C131  C174  S    
C60   H34   S    
C94   H126  S    
C33   H239  S    
C75   H72   S    
C61   C123  S    
C127  C179  S    
C120  H183  S    
C139  H207  S    
C46   O6    S    
C19   C90   S    
C116  H174  S    
C117  C118  S    
C24   O4    S    
C67   H60   S    
C138  N11   A    
C18   H200  S    
C13   O3    S    
C132  C156  A    
C15   C119  S    
C34   C36   S    
N16   Ni3   S    
C61   C62   S    
C95   H123  S    
C63   C64   S    
C80   H85   S    
C43   H270  S    
C44   H266  S    
C36   H245  S    
C163  C197  S    
C104  H147  S    
C32   H242  S    
C74   C129  S    
C41   H264  S    
C57   O7    S    
N17   N30   A    
N7    N26   A    
C15   C207  A    
C174  C192  A    
C19   H210  S    
C181  C199  A    
C138  C155  A    
C87   C88   S    
H79   O1    S    
C41   C42   S    
C102  H140  S    
C142  C159  A    
C7    C205  A    
C136  N9    A    
C93   H118  S    
C108  H155  S    
C39   H259  S    
C48   H10   S    
C154  O12   S    
C146  C162  A    
C75   H74   S    
C26   C27   S    
C114  H166  S    
C46   C168  A    
C171  C188  A    
C147  N20   A    
C28   C29   S    
C20   H208  S    
H197  O6    S    
C58   H28   S    
C50   C135  S    
C63   H49   S    
C41   C130  S    
C121  H193  S    
H199  O8    S    
C187  N31   A    
C17   H203  S    
N13   N23   A    
C152  N26   A    
C198  N32   A    
C83   C134  S    
C99   H133  S    
H90   O9    S    
C91   H111  S    
C52   H20   S    
C92   H121  S    
C27   H224  S    
C132  N23   A    
C70   C71   S    
C148  H24   S    
C135  C171  S    
C58   H29   S    
C109  H164  S    
C48   H9    S    
C37   C128  S    
C15   C195  A    
C45   C47   S    
C74   H76   S    
C118  H177  S    
C8    C105  S    
C22   H211  S    
C31   H234  S    
C148  N21   A    
C141  H229  S    
C179  C196  A    
C98   H138  S    
C50   H15   S    
C60   H36   S    
C177  C194  A    
C125  C181  S    
C55   H23   S    
C182  C200  A    
N9    Ni3   S    
C39   H258  S    
C81   H92   S    
C69   H58   S    
C82   H91   S    
C83   H98   S    
C129  C177  S    
C49   H6    S    
C29   H228  S    
C89   H115  S    
C24   C166  A    
C16   C121  S    
C40   H256  S    
C87   C206  S    
C6    C204  A    
C149  N22   A    
C16   C196  A    
C34   H248  S    
C53   H18   S    
C37   H254  S    
C4    C202  A    
C44   H268  S    
C8    C189  A    
C87   H109  S    
C173  C185  A    
C88   H106  S    
C50   C51   S    
C59   H37   S    
C4    C11   A    
C1    C153  A    
C7    C103  S    
C121  C122  S    
C143  N27   A    
C48   C49   S    
C152  H68   S    
C3    C201  A    
C67   C126  S    
C97   H130  S    
C9    C190  A    
C2    O2    S    
C13   C164  A    
C30   H237  S    
C42   H263  S    
C89   H116  S    
C138  H196  S    
C2    C163  A    
C103  H149  S    
C119  C120  S    
C79   C135  S    
C105  C106  S    
C110  H162  S    
N12   Ni2   S    
C18   H202  S    
N14   N31   A    
C73   H69   S    
C32   C33   S    
C185  C203  A    
N1    Ni1   S    
C161  C187  A    
C20   H206  S    
C109  C110  S    
C111  H170  S    
C143  O11   S    
C152  C169  A    
C25   H219  S    
C71   H62   S    
C73   H67   S    
C150  C167  A    
C27   H222  S    
C92   C93   S    
C124  C129  S    
C111  C114  S    
N8    N22   A    
C25   H216  S    
C94   C95   S    
C178  C181  A    
C179  C180  A    
C141  C158  A    
C141  N15   A    
C103  C104  S    
C11   C111  S    
C147  C163  A    
C105  H153  S    
C40   H257  S    
C21   H214  S    
N4    Ni8   S    
C156  C190  S    
C36   H244  S    
C87   H108  S    
C56   H31   S    
C57   C169  A    
C77   H78   S    
C132  O10   S    
C81   C82   S    
C82   H89   S    
C85   H103  S    
N10   Ni4   S    
C49   H8    S    
C72   C128  S    
C64   H47   S    
N1    N10   A    
C139  C156  A    
C106  H152  S    
C16   C206  A    
C78   H86   S    
C51   H14   S    
C32   C126  S    
C151  C168  A    
C17   C79   S    
C42   H260  S    
C171  C189  A    
C107  H160  S    
C26   H225  S    
C47   H271  S    
C3    C12   A    
C103  H148  S    
C119  H186  S    
C151  H57   S    
C62   H41   S    
C56   C58   S    
C13   N3    A    
C125  C128  S    
C35   C167  A    
N11   N12   A    
C180  C197  A    
C187  O15   S    
N2    Ni6   S    
C147  H13   S    
C149  H35   S    
C21   C101  S    
C28   H232  S    
C42   H261  S    
C84   H96   S    
N32   Ni5   S    
C160  C176  A    
C154  N28   A    
C54   H27   S    
C55   H25   S    
H157  O15   S    
C143  C157  A    
C69   H56   S    
C165  N29   A    
C184  C202  A    
C74   C75   S    
C162  C201  S    
C145  H262  S    
C1    O1    S    
C76   C77   S    
C66   H51   S    
C38   H250  S    
C31   H235  S    
C41   H265  S    
N30   Ni1   S    
C140  C161  A    
N19   N32   A    
C68   N8    A    
C67   C69   S    
C65   C125  S    
H194  O4    S    
C78   C131  S    
C92   C208  S    
N3    N21   A    
C84   H95   S    
C67   H59   S    
C70   H64   S    
N11   Ni1   S    
C96   C97   S    
C199  C207  A    
C109  H165  S    
C96   H131  S    
C150  N24   A    
C76   H81   S    
C85   C135  S    
C96   H132  S    
C136  C157  A    
C43   H269  S    
C36   H246  S    
C128  C178  S    
C77   H80   S    
C186  C204  A    
C160  C194  S    
C19   H209  S    
C86   H102  S    
C86   H99   S    
C113  C131  S    
C100  H143  S    
N15   N28   A    
C106  H150  S    
C102  H141  S    
C95   H125  S    
C93   H117  S    
C108  H156  S    
C80   H83   S    
C51   H12   S    
C178  C195  A    
C75   H73   S    
C114  H167  S    
C72   H71   S    
C33   H241  S    
C5    C10   A    
H195  O5    S    
C82   H88   S    
C121  H192  S    
C62   H39   S    
C122  H191  S    
C35   O5    S    
C117  H182  S    
C3    C94   S    
C37   H253  S    
C23   C25   S    
N7    Ni5   S    
C166  C200  S    
C2    N2    A    
C99   H136  S    
C111  H171  S    
C5    C98   S    
C71   H63   S    
C65   C66   S    
C27   H223  S    
C29   H230  S    
C134  C172  S    
N20   Ni5   S    
N24   Ni8   S    
C58   H30   S    
C115  H176  S    
C33   H238  S    
C120  H184  S    
C153  C192  S    
