data_mof_unit_62751.cif
_audit_creation_date              2012-10-26T19:37:42-0400
_audit_creation_method            fapswitch 2.2
_symmetry_space_group_name_H-M    P1
_symmetry_Int_Tables_number       1
_space_group_crystal_system       triclinic
_cell_length_a                    11.717467
_cell_length_b                    15.799423
_cell_length_c                    17.124356
_cell_angle_alpha                 96.292338
_cell_angle_beta                  90.285944
_cell_angle_gamma                 92.276248
_cell_volume                      3148.49428531

loop_
_atom_site_label
_atom_site_type_symbol
_atom_type_description
_atom_site_fract_x
_atom_site_fract_y
_atom_site_fract_z
_atom_type_partial_charge
Br1   Br    Br    0.485236 0.288815 0.076154 -0.449290
Br2   Br    Br    0.514764 0.711185 0.923846 -0.449290
C1    C     C_R   0.499171 0.489629 0.348536 0.556775
C2    C     C_R   0.477211 0.108762 0.483424 0.213049
C3    C     C_R   0.590410 0.848732 0.566518 -0.122566
C4    C     C_R   0.409590 0.151268 0.433482 -0.122566
C5    C     C_R   0.584742 0.759276 0.562210 0.034797
C6    C     C_R   0.415258 0.240724 0.437790 0.034797
C7    C     C_R   0.283782 0.500257 0.499967 0.554956
C8    C     C_R   0.716218 0.499743 0.500033 0.554956
C9    C     C_1   0.162232 0.500630 0.499991 -0.009199
C10   C     C_1   0.837768 0.499370 0.500009 -0.009199
C11   C     C_1   0.059847 0.500318 0.499998 -0.025369
C12   C     C_R   0.500829 0.510370 0.651464 0.556775
C13   C     C_1   0.940153 0.499681 0.500002 -0.025369
C14   C     C_R   0.498533 0.484020 0.262509 -0.025661
C15   C     C_R   0.501467 0.515980 0.737491 -0.025661
C16   C     C_R   0.503356 0.558569 0.225026 -0.163407
C17   C     C_R   0.496644 0.441431 0.774974 -0.163407
C18   C     C_R   0.502978 0.553698 0.143561 -0.105887
C19   C     C_R   0.497022 0.446302 0.856439 -0.105887
C20   C     C_R   0.497711 0.473648 0.097785 0.243302
C21   C     C_R   0.502289 0.526352 0.902215 0.243302
C22   C     C_R   0.492672 0.399116 0.135430 0.181116
C23   C     C_R   0.493090 0.404331 0.217225 -0.116428
C24   C     C_R   0.507328 0.600884 0.864570 0.181116
C25   C     C_R   0.506910 0.595669 0.782774 -0.116428
C26   C     C_R   0.446791 0.751584 0.460209 0.026126
C27   C     C_R   0.553209 0.248416 0.539791 0.026126
C28   C     C_R   0.449844 0.840952 0.462552 -0.108832
C29   C     C_R   0.550156 0.159048 0.537447 -0.108832
C30   C     C_R   0.522789 0.891238 0.516576 0.213049
Cu1   Cu    Cu3+1 0.494550 0.415220 0.496180 0.961522
Cu2   Cu    Cu3+1 0.505450 0.584780 0.503820 0.961522
H1    H     H_    0.492524 0.379129 0.741418 0.148272
H2    H     H_    0.395593 0.869904 0.422497 0.132912
H3    H     H_    0.647514 0.884866 0.608819 0.122212
H4    H     H_    0.352486 0.115134 0.391181 0.122212
H5    H     H_    0.637399 0.727557 0.601149 0.133746
H6    H     H_    0.362601 0.272443 0.398851 0.133746
H7    H     H_    0.507476 0.620871 0.258582 0.148272
H8    H     H_    0.493159 0.387280 0.883197 0.178131
H9    H     H_    0.506841 0.612720 0.116803 0.178131
H10   H     H_    0.489181 0.346003 0.245135 0.162975
H11   H     H_    0.510818 0.653997 0.754865 0.162975
H12   H     H_    0.609485 0.286350 0.581312 0.130241
H13   H     H_    0.390514 0.713650 0.418687 0.130241
H14   H     H_    0.604407 0.130096 0.577503 0.132912
N1    N     N_2   0.497298 0.465464 0.014454 -0.198386
N2    N     N_2   0.502702 0.534536 0.985546 -0.198386
N3    N     N_R   0.513630 0.712130 0.509560 -0.225319
N4    N     N_R   0.486370 0.287870 0.490440 -0.225319
N5    N     N_2   0.531300 0.982928 0.523046 -0.230462
N6    N     N_2   0.468699 0.017072 0.476954 -0.230462
O1    O     O_R   0.494910 0.420530 0.382500 -0.505698
O2    O     O_R   0.505090 0.579470 0.617500 -0.505698
O3    O     O_R   0.504100 0.563720 0.388950 -0.505373
O4    O     O_R   0.495900 0.436280 0.611050 -0.505374
O5    O     O_R   0.332600 0.428410 0.496780 -0.494338
O6    O     O_R   0.667400 0.571590 0.503220 -0.494337
O7    O     O_R   0.341800 0.571600 0.503230 -0.493917
O8    O     O_R   0.658200 0.428400 0.496770 -0.493917

loop_
_geom_bond_atom_site_label_1
_geom_bond_atom_site_label_2
_ccdc_geom_bond_type
Cu1   O1    S    
Cu2   O3    S    
C8    O6    A    
C4    H4    S    
C26   H13   S    
Cu2   O2    S    
Cu1   O4    S    
C3    H3    S    
C9    C11   T    
C6    N4    A    
C12   O2    A    
Cu2   O6    S    
C10   C13   T    
C28   H2    S    
C27   H12   S    
C3    C30   A    
C2    N6    S    
C25   H11   S    
C26   C28   A    
Cu1   Cu2   S    
Cu1   O5    S    
C5    N3    A    
Br2   C24   S    
C14   C16   A    
C17   H1    S    
N5    N6    D    
Cu1   N4    S    
C28   C30   A    
C7    C9    S    
C12   C15   S    
Cu2   N3    S    
C8    O8    A    
C8    C10   S    
C20   N1    S    
C7    O7    A    
C1    O3    A    
C23   H10   S    
C2    C4    A    
C17   C19   A    
C18   C20   A    
C16   C18   A    
C29   H14   S    
C19   C21   A    
C11   C13   S    
C24   C25   A    
C12   O4    A    
C26   N3    A    
C20   C22   A    
C21   C24   A    
C2    C29   A    
C19   H8    S    
C15   C25   A    
C30   N5    S    
C18   H9    S    
C22   C23   A    
Br1   C22   S    
C27   C29   A    
N1    N2    D    
C16   H7    S    
C14   C23   A    
C3    C5    A    
C5    H5    S    
C21   N2    S    
C4    C6    A    
C6    H6    S    
C15   C17   A    
C1    O1    A    
Cu2   O7    S    
C1    C14   S    
Cu1   O8    S    
C7    O5    A    
C27   N4    A    
