data_mof_unit_59366.cif
_audit_creation_date              2012-12-10T19:52:14-0500
_audit_creation_method            fapswitch 2.2
_symmetry_space_group_name_H-M    P1
_symmetry_Int_Tables_number       1
_space_group_crystal_system       triclinic
_cell_length_a                    15.017683
_cell_length_b                    14.216042
_cell_length_c                    10.71346
_cell_angle_alpha                 90.59318
_cell_angle_beta                  92.180523
_cell_angle_gamma                 90.40069
_cell_volume                      2285.39701844

loop_
_atom_site_label
_atom_site_type_symbol
_atom_type_description
_atom_site_fract_x
_atom_site_fract_y
_atom_site_fract_z
_atom_type_partial_charge
C1    C     C_R   0.327628 0.499561 0.506123 1.029130
C2    C     C_3   0.595663 0.522236 0.934363 0.642532
C3    C     C_R   0.086941 0.566248 0.481051 0.364643
C4    C     C_R   0.098344 0.413217 0.580953 0.363198
C5    C     C_R   0.179325 0.575681 0.488399 0.345845
C6    C     C_R   0.191117 0.415868 0.570419 0.384591
C7    C     C_R   0.231422 0.497245 0.521532 -0.396768
C8    C     C_R   0.047308 0.485980 0.529894 -0.233704
C9    C     C_R   0.904962 0.420104 0.450547 -0.261985
C10   C     C_R   0.908256 0.549812 0.599244 -0.230345
C11   C     C_R   0.811888 0.425516 0.438204 0.436033
C12   C     C_R   0.817754 0.563710 0.578380 0.424499
C13   C     C_R   0.768793 0.498294 0.503102 -0.272139
C14   C     C_R   0.951593 0.481516 0.531558 0.153398
C15   C     C_R   0.462902 0.105149 0.397301 -0.535049
C16   C     C_R   0.433972 0.894945 0.435608 -0.536901
C17   C     C_R   0.499322 0.499405 0.257437 0.943074
C18   C     C_R   0.455292 0.204595 0.405486 0.608517
C19   C     C_R   0.435097 0.794302 0.431858 0.548556
C20   C     C_R   0.541843 0.205191 0.595665 0.396060
C21   C     C_R   0.564624 0.797402 0.565619 0.470189
C22   C     C_R   0.535640 0.105260 0.601553 0.264208
C23   C     C_R   0.576632 0.894780 0.544158 0.309477
C24   C     C_R   0.502653 0.053777 0.495838 0.031930
C25   C     C_R   0.505352 0.946921 0.490468 0.019705
C26   C     C_R   0.672340 0.500124 0.499432 0.945147
C27   C     C_R   0.500049 0.499672 0.742159 0.988092
C28   C     C_3   0.424810 0.563881 0.065397 0.233065
C29   C     C_3   0.484139 0.394484 0.069517 0.247664
C30   C     C_3   0.429834 0.571006 0.921674 0.258771
C31   C     C_3   0.472676 0.396975 0.925456 0.228905
C32   C     C_3   0.592842 0.529334 0.078640 -0.396078
C33   C     C_3   0.499982 0.497872 0.120757 -0.245721
C34   C     C_3   0.499284 0.497733 0.878513 -0.183850
H1    H     H_    0.436941 0.068012 0.315061 0.185301
H2    H     H_    0.378352 0.933593 0.395974 0.179490
H3    H     H_    0.361616 0.525492 0.082686 0.145983
H4    H     H_    0.421817 0.366690 0.109672 0.148870
H5    H     H_    0.454371 0.640500 0.891124 0.122578
H6    H     H_    0.519837 0.345775 0.885032 0.196799
H7    H     H_    0.610853 0.600365 0.114939 0.149909
H8    H     H_    0.645638 0.484358 0.122178 0.250293
H9    H     H_    0.941873 0.371200 0.394616 0.149521
H10   H     H_    0.946210 0.596798 0.661777 0.152388
N1    N     N_R   0.499980 0.252470 0.500000 -0.173464
N2    N     N_R   0.499980 0.747530 0.500000 -0.202100
O1    O     O_R   0.369070 0.579480 0.500010 -0.544466
O2    O     O_R   0.369070 0.420520 0.500010 -0.576789
O3    O     O_R   0.499990 0.579480 0.314790 -0.568660
O4    O     O_R   0.499990 0.420520 0.314790 -0.554913
O5    O     O_R   0.630940 0.579480 0.499990 -0.571209
O6    O     O_R   0.630940 0.420520 0.499990 -0.590396
O7    O     O_R   0.500020 0.579480 0.685200 -0.594934
O8    O     O_R   0.500020 0.420520 0.685200 -0.596686
Zn1   Zn    Zn3+2 0.500010 0.606140 0.500000 1.059883
Zn2   Zn    Zn3+2 0.500010 0.393860 0.500000 1.054697
O9    O     O_3   0.415325 0.651454 0.130060 -0.563740
C35   C     C_3   0.469343 0.727137 0.091550 -0.292284
H11   H     H_    0.529441 0.707411 0.042082 0.152526
H12   H     H_    0.492691 0.768105 0.175211 0.194562
H13   H     H_    0.428669 0.774298 0.030718 0.132924
O10   O     O_3   0.558966 0.338659 0.107198 -0.548028
C36   C     C_3   0.543210 0.241156 0.091324 -0.212646
H14   H     H_    0.562781 0.217762 0.997183 0.146579
H15   H     H_    0.473620 0.219778 0.106493 0.154810
H16   H     H_    0.585922 0.203331 0.160724 0.178019
O11   O     O_3   0.761466 0.369518 0.353811 -0.577426
C37   C     C_3   0.794431 0.277065 0.343977 -0.278280
H17   H     H_    0.739457 0.230570 0.307885 0.185707
H18   H     H_    0.818087 0.248603 0.435764 0.137512
H19   H     H_    0.848087 0.274241 0.275543 0.161200
O12   O     O_3   0.777025 0.638381 0.636479 -0.565296
C38   C     C_3   0.805706 0.723080 0.581655 -0.145416
H20   H     H_    0.784357 0.783393 0.639288 0.218333
H21   H     H_    0.774906 0.730192 0.486183 0.164299
H22   H     H_    0.879412 0.729632 0.578043 0.127800
O13   O     O_3   0.407719 0.256825 0.316940 -0.566769
C39   C     C_3   0.329697 0.209985 0.270680 -0.411010
H23   H     H_    0.282169 0.263477 0.234512 0.193078
H24   H     H_    0.295767 0.169550 0.343642 0.151351
H25   H     H_    0.344942 0.162496 0.191592 0.154296
O14   O     O_3   0.371602 0.739568 0.365360 -0.497206
C40   C     C_3   0.312165 0.791090 0.287026 -0.147271
H26   H     H_    0.271209 0.740596 0.229385 0.206189
H27   H     H_    0.347982 0.836857 0.221767 0.106628
H28   H     H_    0.265491 0.832933 0.342802 0.119683
O15   O     O_3   0.585557 0.256183 0.690019 -0.610050
C41   C     C_3   0.678236 0.245836 0.678322 -0.303604
H29   H     H_    0.699999 0.173130 0.700409 0.173476
H30   H     H_    0.713243 0.293993 0.746166 0.204752
H31   H     H_    0.699313 0.265043 0.583537 0.184363
O16   O     O_3   0.620641 0.751030 0.648739 -0.526554
C42   C     C_3   0.611283 0.789410 0.770081 -0.160872
H32   H     H_    0.669476 0.768486 0.829673 0.195488
H33   H     H_    0.549191 0.762532 0.810496 0.147048
H34   H     H_    0.611068 0.867469 0.774948 0.181151
O17   O     O_3   0.559162 0.057367 0.709329 -0.766860
H35   H     H_    0.567056 0.102714 0.779751 0.346644
O18   O     O_3   0.658313 0.934950 0.577142 -0.757541
H36   H     H_    0.665497 0.993440 0.528977 0.335836
O19   O     O_3   0.344954 0.551715 0.863136 -0.548700
C43   C     C_3   0.292920 0.633819 0.856297 -0.325776
H37   H     H_    0.321214 0.684685 0.790028 0.156294
H38   H     H_    0.286181 0.667246 0.949698 0.174775
H39   H     H_    0.225053 0.613904 0.820578 0.178865
O20   O     O_3   0.382544 0.375770 0.889095 -0.564998
C44   C     C_3   0.372110 0.281535 0.848314 -0.205787
H40   H     H_    0.399309 0.231289 0.917976 0.090123
H41   H     H_    0.403358 0.270672 0.757097 0.203643
H42   H     H_    0.299925 0.265815 0.835440 0.200016
O21   O     O_3   0.625780 0.608195 0.888034 -0.812491
H43   H     H_    0.689177 0.615717 0.916640 0.352260
O22   O     O_3   0.655805 0.450527 0.903020 -0.763773
H44   H     H_    0.668856 0.457374 0.813394 0.341175
O23   O     O_3   0.034817 0.638506 0.433777 -0.600927
C45   C     C_3   0.028570 0.628934 0.302657 -0.305910
H45   H     H_    0.998011 0.560148 0.273614 0.158690
H46   H     H_    0.094865 0.637587 0.260987 0.178647
H47   H     H_    0.984731 0.685162 0.264854 0.177382
O24   O     O_3   0.057056 0.338572 0.637685 -0.601399
C46   C     C_3   0.056810 0.357098 0.767229 -0.294181
H48   H     H_    0.019489 0.422471 0.787998 0.156805
H49   H     H_    0.125785 0.361818 0.808802 0.197379
H50   H     H_    0.022583 0.297989 0.812796 0.177280
O25   O     O_3   0.218944 0.659965 0.457782 -0.543555
C47   C     C_3   0.197640 0.730631 0.545712 -0.193214
H51   H     H_    0.142610 0.774538 0.506923 0.180072
H52   H     H_    0.256691 0.776963 0.562466 0.160720
H53   H     H_    0.179270 0.703306 0.638498 0.101770
O26   O     O_3   0.244095 0.345607 0.622002 -0.562896
C48   C     C_3   0.224934 0.258022 0.563244 -0.226930
H54   H     H_    0.199880 0.264252 0.464391 0.135339
H55   H     H_    0.176474 0.217795 0.617703 0.189248
H56   H     H_    0.287215 0.216551 0.563381 0.149872

loop_
_geom_bond_atom_site_label_1
_geom_bond_atom_site_label_2
_ccdc_geom_bond_type
C15   C18   A    
C23   O18   S    
O15   C41   S    
C36   H15   S    
C42   H32   S    
C38   H21   S    
C38   H20   S    
O21   H43   S    
C6    O26   S    
C48   H56   S    
O17   H35   S    
C19   N2    A    
O13   C39   S    
C45   H45   S    
C47   H51   S    
O22   H44   S    
C37   H19   S    
C2    O22   S    
C39   H24   S    
O20   C44   S    
C35   H12   S    
O23   C45   S    
C20   O15   S    
C29   C33   S    
C31   H6    S    
C43   H39   S    
C2    C32   S    
C46   H50   S    
C40   H26   S    
N1    Zn2   S    
C37   H17   S    
N2    Zn1   S    
C47   H52   S    
C32   H7    S    
C19   O14   S    
C20   N1    A    
C4    C8    A    
C2    C34   S    
C35   H13   S    
C12   O12   S    
C36   H16   S    
C42   H33   S    
C22   O17   S    
C28   O9    S    
C44   H41   S    
C17   C33   S    
C15   H1    S    
C11   O11   S    
O7    Zn1   S    
C27   C34   S    
O8    Zn2   S    
C2    O21   S    
C9    H9    S    
C30   C34   S    
C10   H10   S    
O11   C37   S    
O19   C43   S    
C27   O8    A    
C24   C25   S    
C4    C6    A    
C3    C8    A    
C10   C14   A    
C17   O3    A    
C5    C7    A    
C39   H23   S    
C1    O1    A    
C47   H53   S    
C3    C5    A    
C35   H11   S    
O3    Zn1   S    
O4    Zn2   S    
C29   H4    S    
C9    C14   A    
C38   H22   S    
O10   C36   S    
C26   O6    A    
O18   H36   S    
C41   H31   S    
C44   H40   S    
C31   C34   S    
C12   C13   A    
C43   H38   S    
C9    C11   A    
C46   H48   S    
C10   C12   A    
C15   C24   A    
C40   H27   S    
C20   C22   A    
C28   C33   S    
C42   H34   S    
C21   C23   A    
O25   C47   S    
C44   H42   S    
C22   C24   A    
C13   C26   S    
C48   H54   S    
C18   N1    A    
O24   C46   S    
O1    Zn1   S    
C21   N2    A    
C16   C25   A    
O2    Zn2   S    
C29   O10   S    
C8    C14   S    
C1    C7    S    
C41   H30   S    
O12   C38   S    
C48   H55   S    
C17   O4    A    
C27   O7    A    
C1    O2    A    
C6    C7    A    
C45   H47   S    
C32   C33   S    
C28   C30   S    
O26   C48   S    
C29   C31   S    
C3    O23   S    
C26   O5    A    
C16   H2    S    
C11   C13   A    
C39   H25   S    
O9    C35   S    
C28   H3    S    
C16   C19   A    
C30   O19   S    
O16   C42   S    
C31   O20   S    
C45   H46   S    
C30   H5    S    
O5    Zn1   S    
C23   C25   A    
C18   O13   S    
C43   H37   S    
C46   H49   S    
C36   H14   S    
C40   H28   S    
C41   H29   S    
C37   H18   S    
O14   C40   S    
C5    O25   S    
C32   H8    S    
C4    O24   S    
O6    Zn2   S    
C21   O16   S    
