data_mof_unit_20329.cif
_audit_creation_date              2012-12-10T18:12:42-0500
_audit_creation_method            fapswitch 2.2
_symmetry_space_group_name_H-M    P1
_symmetry_Int_Tables_number       1
_space_group_crystal_system       triclinic
_cell_length_a                    12.617413
_cell_length_b                    13.142581
_cell_length_c                    15.708077
_cell_angle_alpha                 90.70463
_cell_angle_beta                  103.054246
_cell_angle_gamma                 82.257107
_cell_volume                      2513.90211983

loop_
_atom_site_label
_atom_site_type_symbol
_atom_type_description
_atom_site_fract_x
_atom_site_fract_y
_atom_site_fract_z
_atom_type_partial_charge
C1    C     C_R   0.438691 0.691182 0.486788 0.847975
C2    C     C_R   0.596553 0.200075 0.501418 -0.047014
C3    C     C_R   0.300339 0.838327 0.499753 -0.191294
C4    C     C_R   0.501355 0.500308 0.661973 0.903713
C5    C     C_R   0.272075 0.943093 0.508049 -0.148636
C6    C     C_R   0.345457 0.010279 0.499467 -0.193098
C7    C     C_R   0.446983 0.973451 0.477982 0.084339
C8    C     C_R   0.466999 0.869498 0.456236 0.083177
C9    C     C_R   0.529342 0.036225 0.477279 0.076867
C10   C     C_R   0.621167 0.999898 0.441806 0.174202
C11   C     C_R   0.630923 0.901173 0.408770 -0.253597
C12   C     C_3   0.503704 0.500878 0.917894 0.143311
C13   C     C_R   0.554778 0.836615 0.415776 -0.200591
C14   C     C_R   0.523659 0.133866 0.512406 -0.258184
C15   C     C_R   0.687487 0.164652 0.466862 -0.205098
C16   C     C_R   0.561110 0.308760 0.508748 0.857732
C17   C     C_R   0.399357 0.800793 0.476804 -0.112020
C18   C     C_R   0.088507 0.344104 0.381674 -0.312109
C19   C     C_R   0.799802 0.630544 0.602056 0.026314
C20   C     C_R   0.904521 0.658938 0.623840 -0.253678
C21   C     C_R   0.985990 0.609428 0.585363 -0.191022
C22   C     C_R   0.962839 0.530515 0.524732 0.014796
C23   C     C_3   0.439636 0.427404 0.014537 -0.267820
C24   C     C_R   0.854823 0.503888 0.505365 0.235131
C25   C     C_R   0.042046 0.477066 0.482830 -0.015220
C26   C     C_R   0.011887 0.397855 0.423428 0.195978
C27   C     C_R   0.905645 0.372808 0.406282 -0.295990
C28   C     C_R   0.498579 0.499864 0.337987 0.885145
C29   C     C_R   0.828440 0.425183 0.446664 -0.208349
C30   C     C_R   0.150675 0.498632 0.497206 -0.043923
C31   C     C_R   0.194382 0.369019 0.398947 0.008707
C32   C     C_3   0.452814 0.594505 0.019750 -0.269742
C33   C     C_3   0.559428 0.573694 0.985290 -0.218949
C34   C     C_3   0.495469 0.500875 0.081871 0.142773
C35   C     C_1   0.504342 0.500819 0.751567 -0.176796
C36   C     C_1   0.495302 0.500013 0.248305 -0.189616
C37   C     C_3   0.399075 0.520616 0.951911 0.545852
C38   C     C_3   0.212626 0.556639 0.941079 0.092092
C39   C     C_3   0.101500 0.578550 0.877330 -0.805310
C40   C     C_3   0.546352 0.407944 0.980137 -0.220102
C41   C     C_3   0.602132 0.480738 0.049298 -0.123900
C42   C     C_1   0.505219 0.500977 0.827136 -0.020549
C43   C     C_1   0.494115 0.500406 0.172658 -0.058298
C44   C     C_R   0.700840 0.063809 0.438520 -0.201723
H1    H     H_    0.608964 0.632458 0.971243 0.149453
H2    H     H_    0.181224 0.557150 0.540900 0.128112
H3    H     H_    0.736069 0.668933 0.631590 0.141703
H4    H     H_    0.413993 0.670103 0.037810 0.137301
H5    H     H_    0.065768 0.634358 0.604501 0.142136
H6    H     H_    0.922517 0.719216 0.670345 0.150111
H7    H     H_    0.748509 0.402174 0.430803 0.209492
H8    H     H_    0.685811 0.464249 0.091933 0.138469
H9    H     H_    0.585352 0.332498 0.961917 0.149922
H10   H     H_    0.390232 0.368428 0.028383 0.137808
H11   H     H_    0.744597 0.215792 0.457734 0.148485
H12   H     H_    0.460078 0.162252 0.545882 0.150404
H13   H     H_    0.698430 0.873200 0.378795 0.150209
H14   H     H_    0.770704 0.037160 0.410865 0.134649
H15   H     H_    0.223371 0.623609 0.984769 0.134729
H16   H     H_    0.212557 0.486951 0.980637 0.135792
H17   H     H_    0.087581 0.512549 0.833254 0.262066
H18   H     H_    0.035269 0.591024 0.913916 0.200140
H19   H     H_    0.098345 0.648496 0.837352 0.252600
H20   H     H_    0.246462 0.786502 0.514046 0.152634
H21   H     H_    0.319408 0.090659 0.507787 0.135787
H22   H     H_    0.195085 0.972016 0.524891 0.142905
H23   H     H_    0.564651 0.761054 0.388159 0.172927
H24   H     H_    0.255012 0.327993 0.367622 0.136782
H25   H     H_    0.881916 0.312326 0.361276 0.150221
H26   H     H_    0.066766 0.283404 0.336374 0.142884
N1    N     N_R   0.222180 0.444680 0.455580 -0.102484
N2    N     N_R   0.776980 0.554790 0.543960 -0.131202
O1    O     O_R   0.366730 0.627160 0.478790 -0.616520
O2    O     O_R   0.544830 0.662520 0.507160 -0.618385
O3    O     O_R   0.410960 0.482330 0.609040 -0.603657
O4    O     O_R   0.589060 0.517690 0.637410 -0.614964
O5    O     O_R   0.455170 0.337480 0.492840 -0.616000
O6    O     O_R   0.633270 0.372840 0.521210 -0.635038
O7    O     O_R   0.410940 0.482310 0.362590 -0.610115
O8    O     O_R   0.589040 0.517670 0.390960 -0.635737
O9    O     O_3   0.295530 0.541054 0.893512 -0.610854
Zn1   Zn    Zn3+2 0.381080 0.476390 0.481050 0.943630
Zn2   Zn    Zn3+2 0.618920 0.523610 0.518950 0.928126

loop_
_geom_bond_atom_site_label_1
_geom_bond_atom_site_label_2
_ccdc_geom_bond_type
C18   H26   S    
C14   H12   S    
C8    C13   A    
C27   C29   A    
C33   H1    S    
C19   C20   A    
C18   C26   A    
O2    Zn2   S    
C21   H5    S    
C30   N1    A    
C7    C8    A    
C3    H20   S    
C26   C27   A    
C1    O2    A    
C15   C44   A    
C13   H23   S    
C38   C39   S    
C19   H3    S    
C23   C40   S    
C16   O5    A    
C12   C37   S    
C35   C42   T    
C28   O7    A    
C24   C29   A    
C4    O3    A    
C20   H6    S    
O6    Zn2   S    
C6    H21   S    
C44   H14   S    
C22   C25   A    
C12   C42   S    
C2    C16   S    
C9    C10   A    
C41   H8    S    
C27   H25   S    
N1    Zn1   S    
C31   N1    A    
C4    C35   S    
C21   C22   A    
C32   H4    S    
C37   O9    S    
C19   N2    A    
C34   C41   S    
O8    Zn2   S    
C2    C14   A    
O4    Zn2   S    
C31   H24   S    
C39   H17   S    
C10   C44   A    
C25   C26   A    
C23   C37   S    
C15   H11   S    
C12   C40   S    
C9    C14   A    
C23   C34   S    
C32   C37   S    
C2    C15   A    
C38   H16   S    
C40   C41   S    
C38   O9    S    
C22   C24   A    
O1    Zn1   S    
C24   N2    A    
C23   H10   S    
C29   H7    S    
C25   C30   A    
C7    C9    A    
C39   H18   S    
C30   H2    S    
C34   C43   S    
C5    H22   S    
C3    C5    A    
O7    Zn1   S    
O3    Zn1   S    
C6    C7    A    
C39   H19   S    
C1    C17   S    
C8    C17   A    
C33   C41   S    
C32   C33   S    
C1    O1    A    
C11   C13   A    
C5    C6    A    
O5    Zn1   S    
C3    C17   A    
C16   O6    A    
C28   O8    A    
C4    O4    A    
N2    Zn2   S    
C10   C11   A    
C38   H15   S    
C20   C21   A    
C28   C36   S    
C40   H9    S    
C36   C43   T    
C18   C31   A    
C12   C33   S    
C11   H13   S    
C32   C34   S    
