data_mof_unit_36733.cif
_audit_creation_date              2012-10-26T19:50:06-0400
_audit_creation_method            fapswitch 2.2
_symmetry_space_group_name_H-M    P1
_symmetry_Int_Tables_number       1
_space_group_crystal_system       triclinic
_cell_length_a                    15.127111
_cell_length_b                    13.948473
_cell_length_c                    10.97101
_cell_angle_alpha                 89.35996
_cell_angle_beta                  93.553399
_cell_angle_gamma                 89.387937
_cell_volume                      2310.13955193

loop_
_atom_site_label
_atom_site_type_symbol
_atom_type_description
_atom_site_fract_x
_atom_site_fract_y
_atom_site_fract_z
_atom_type_partial_charge
C1    C     C_R   0.329556 0.500907 0.503476 0.551271
C2    C     C_R   0.948984 0.496856 0.488534 0.053573
C3    C     C_R   0.574572 0.103954 0.541329 -0.127697
C4    C     C_R   0.426453 0.106187 0.457011 -0.139210
C5    C     C_R   0.573218 0.205076 0.544751 0.190595
C6    C     C_R   0.428226 0.207432 0.449583 0.174542
C7    C     C_R   0.500268 0.052303 0.500239 -0.011449
C8    C     C_R   0.445283 0.892360 0.415938 -0.093283
C9    C     C_R   0.555155 0.889722 0.583428 -0.106751
C10   C     C_R   0.444303 0.790183 0.417553 0.427595
C11   C     C_R   0.554207 0.787855 0.583888 0.413146
C12   C     C_R   0.669569 0.499406 0.501544 0.586130
C13   C     C_R   0.500115 0.943494 0.500000 -0.010245
C14   C     C_R   0.504836 0.500806 0.262788 0.562816
C15   C     C_R   0.498653 0.499777 0.737916 0.597696
C16   C     C_R   0.522177 0.681628 0.110289 -0.095366
C17   C     C_R   0.438674 0.667442 0.879603 -0.103718
C18   C     C_R   0.496273 0.765957 0.045652 0.022766
C19   C     C_R   0.444007 0.757440 0.935176 0.025341
C20   C     C_R   0.479273 0.585449 0.935960 -0.070525
C21   C     C_R   0.504205 0.590111 0.060965 -0.063405
C22   C     C_R   0.511729 0.502824 0.129350 -0.030663
C23   C     C_R   0.231568 0.503238 0.504121 -0.109861
C24   C     C_R   0.498584 0.500156 0.872487 -0.017384
C25   C     C_R   0.518642 0.415451 0.066819 0.233081
C26   C     C_R   0.529487 0.418702 0.940779 0.243623
C27   C     C_R   0.089177 0.588103 0.491499 0.247254
C28   C     C_R   0.911567 0.530266 0.595222 0.242477
C29   C     C_R   0.181775 0.589902 0.512341 0.029593
C30   C     C_R   0.818983 0.533162 0.601908 0.035624
C31   C     C_3   0.466087 0.261846 0.086253 -0.039520
C32   C     C_3   0.658605 0.333184 0.931270 -0.051821
C33   C     C_3   0.327939 0.787308 0.263061 -0.110053
C34   C     C_R   0.765568 0.497451 0.502672 -0.084388
C35   C     C_3   0.634711 0.776216 0.773723 -0.093138
C36   C     C_2   0.529508 0.860023 0.091279 0.568810
C37   C     C_2   0.395243 0.840072 0.875570 0.612746
C38   C     C_3   0.016010 0.702489 0.374897 -0.066796
C39   C     C_3   0.991300 0.490166 0.772012 -0.092634
C40   C     C_2   0.222218 0.681124 0.554524 0.669190
C41   C     C_2   0.780303 0.569903 0.714619 0.608957
C42   C     C_3   0.044428 0.279352 0.571984 -0.095706
C43   C     C_3   0.891932 0.466086 0.177885 -0.115481
C44   C     C_2   0.655319 0.247796 0.596270 0.596195
C45   C     C_R   0.186405 0.416541 0.489329 -0.154334
C46   C     C_2   0.352073 0.250628 0.375662 0.559162
C47   C     C_R   0.803481 0.460626 0.399840 -0.164542
C48   C     C_R   0.094337 0.413613 0.479866 0.249514
C49   C     C_R   0.895230 0.463387 0.389392 0.266456
C50   C     C_R   0.045538 0.499592 0.481208 0.065738
Cu1   Cu    Cu3+1 0.500000 0.596430 0.500000 1.124306
Cu2   Cu    Cu3+1 0.500000 0.403570 0.500000 1.108122
H1    H     H_    0.406181 0.932378 0.347052 0.100187
H2    H     H_    0.399170 0.294569 0.065985 0.135542
H3    H     H_    0.459680 0.205442 0.157130 0.151218
H4    H     H_    0.667105 0.327917 0.032303 0.129602
H5    H     H_    0.698110 0.394007 0.898879 0.159633
H6    H     H_    0.687063 0.265687 0.897350 0.162066
H7    H     H_    0.284439 0.735686 0.212739 0.154894
H8    H     H_    0.360359 0.831104 0.193972 0.154368
H9    H     H_    0.285001 0.832552 0.318055 0.139320
H10   H     H_    0.650821 0.719712 0.843616 0.155567
H11   H     H_    0.580666 0.820443 0.808969 0.132902
H12   H     H_    0.598336 0.927026 0.648371 0.096398
H13   H     H_    0.694809 0.819963 0.763807 0.136458
H14   H     H_    0.558844 0.997667 0.053442 0.340617
H15   H     H_    0.327568 0.963743 0.895745 0.343805
H16   H     H_    0.968366 0.652224 0.329397 0.098404
H17   H     H_    0.074862 0.710884 0.319670 0.136298
H18   H     H_    0.982584 0.773508 0.377836 0.163945
H19   H     H_    0.046187 0.447627 0.736228 0.095063
H20   H     H_    0.935067 0.442874 0.792757 0.087392
H21   H     H_    0.016737 0.521585 0.859579 0.158513
H22   H     H_    0.229399 0.824630 0.534522 0.347342
H23   H     H_    0.562520 0.688439 0.194353 0.179353
H24   H     H_    0.795925 0.652726 0.864224 0.309687
H25   H     H_    0.992089 0.314023 0.623466 0.093603
H26   H     H_    0.108244 0.275272 0.628327 0.107186
H27   H     H_    0.023339 0.204729 0.553481 0.170795
H28   H     H_    0.872312 0.542974 0.184910 0.094087
H29   H     H_    0.833628 0.421795 0.150352 0.115047
H30   H     H_    0.938563 0.461181 0.103981 0.142100
H31   H     H_    0.788552 0.253809 0.596391 0.327890
H32   H     H_    0.223413 0.238775 0.316426 0.352633
H33   H     H_    0.400954 0.661689 0.793665 0.213165
H34   H     H_    0.222450 0.349775 0.487550 0.195318
H35   H     H_    0.760814 0.431628 0.326668 0.130902
H36   H     H_    0.634825 0.066006 0.571935 0.133653
H37   H     H_    0.367430 0.069188 0.423980 0.150428
H38   H     H_    0.488935 0.225315 0.004431 0.161490
N1    N     N_R   0.500000 0.258690 0.500000 -0.266867
N2    N     N_R   0.500000 0.741330 0.500000 -0.195859
O1    O     O_R   0.371460 0.581430 0.500010 -0.450311
O2    O     O_3   0.569017 0.342026 0.885327 -0.519628
O3    O     O_3   0.391242 0.734958 0.337341 -0.527422
O4    O     O_3   0.609882 0.731590 0.662070 -0.506111
O5    O     O_2   0.557136 0.867890 0.197761 -0.543059
O6    O     O_R   0.534135 0.938441 0.011446 -0.684037
O7    O     O_2   0.383560 0.844133 0.764289 -0.513673
O8    O     O_R   0.359814 0.911732 0.946833 -0.679750
O9    O     O_3   0.040434 0.672514 0.495669 -0.491940
O10   O     O_3   0.965819 0.565707 0.690346 -0.479386
O11   O     O_2   0.272548 0.681306 0.645883 -0.511482
O12   O     O_R   0.628540 0.581430 0.499990 -0.464056
O13   O     O_R   0.198686 0.767552 0.494996 -0.681569
O14   O     O_2   0.709819 0.539387 0.746551 -0.526867
O15   O     O_R   0.825713 0.638072 0.786235 -0.639968
O16   O     O_3   0.052576 0.326983 0.459366 -0.509401
O17   O     O_3   0.935041 0.429721 0.286914 -0.513307
O18   O     O_2   0.652816 0.305371 0.678349 -0.471704
O19   O     O_R   0.736785 0.219393 0.553912 -0.712481
O20   O     O_2   0.362262 0.317599 0.305940 -0.489949
O21   O     O_R   0.269018 0.207238 0.376067 -0.737448
O22   O     O_R   0.371470 0.418560 0.500010 -0.504368
O23   O     O_R   0.628530 0.418560 0.499990 -0.477360
O24   O     O_R   0.500000 0.581450 0.319650 -0.503626
O25   O     O_R   0.500000 0.581450 0.680350 -0.475637
O26   O     O_R   0.500010 0.418580 0.319650 -0.414738
O27   O     O_R   0.499990 0.418580 0.680350 -0.436897
O28   O     O_3   0.528835 0.329189 0.131290 -0.546316

loop_
_geom_bond_atom_site_label_1
_geom_bond_atom_site_label_2
_ccdc_geom_bond_type
C11   O4    S    
C26   O2    S    
C32   O2    S    
C38   H18   S    
H32   O21   S    
C23   C45   A    
C46   O20   D    
C27   C29   A    
C16   H23   S    
C32   H6    S    
C47   C49   A    
C35   O4    S    
C8    C13   A    
C17   H33   S    
C23   C29   A    
C24   C26   A    
C12   O12   A    
C38   O9    S    
C3    C7    A    
Cu2   O23   S    
C35   H13   S    
C6    N1    A    
C9    H12   S    
C17   C20   A    
C18   C19   A    
C9    C13   A    
C19   C37   S    
C17   C19   A    
C11   N2    A    
C20   C24   A    
C14   O26   A    
C22   C25   A    
C39   H20   S    
C30   C41   S    
C36   O5    D    
C2    C50   S    
C27   C50   A    
C12   O23   A    
C48   C50   A    
C38   H17   S    
C10   N2    A    
C42   H27   S    
C33   H7    S    
C21   C22   A    
C43   H28   S    
C32   H5    S    
C4    C7    A    
C33   O3    S    
C41   O14   D    
C30   C34   A    
Cu1   Cu2   S    
C4    C6    A    
C25   C26   A    
C27   O9    S    
C15   O25   A    
C47   H35   S    
C44   O19   S    
C35   H11   S    
C2    C49   A    
C28   O10   S    
Cu1   N2    S    
C31   H38   S    
C16   C18   A    
C9    C11   A    
C5    N1    A    
H15   O8    S    
Cu1   O1    S    
C1    O1    A    
C15   C24   S    
C5    C44   S    
C38   H16   S    
C1    C23   S    
H24   O15   S    
C43   H29   S    
H31   O19   S    
C1    O22   A    
C12   C34   S    
C25   O28   S    
C37   O7    D    
C39   O10   S    
C49   O17   S    
C4    H37   S    
C45   C48   A    
C6    C46   S    
C46   O21   S    
C3    H36   S    
C3    C5    A    
C8    H1    S    
C36   O6    S    
C16   C21   A    
C42   H26   S    
Cu2   O22   S    
C33   H8    S    
Cu1   O24   S    
C14   C22   S    
C28   C30   A    
C45   H34   S    
Cu1   O12   S    
C40   O11   D    
H14   O6    S    
C48   O16   S    
C18   C36   S    
C10   O3    S    
C33   H9    S    
C14   O24   A    
C29   C40   S    
Cu1   O25   S    
C15   O27   A    
C35   H10   S    
C39   H21   S    
C31   H2    S    
C31   O28   S    
Cu2   O27   S    
C41   O15   S    
C7    C13   S    
C20   C21   A    
C42   H25   S    
C8    C10   A    
C43   H30   S    
C39   H19   S    
Cu2   N1    S    
C2    C28   A    
C34   C47   A    
C43   O17   S    
C31   H3    S    
C42   O16   S    
C32   H4    S    
C37   O8    S    
C44   O18   D    
C40   O13   S    
H22   O13   S    
Cu2   O26   S    
