data_mof_unit_62064.cif
_audit_creation_date              2012-12-10T21:20:48-0500
_audit_creation_method            fapswitch 2.2
_symmetry_space_group_name_H-M    P1
_symmetry_Int_Tables_number       1
_space_group_crystal_system       triclinic
_cell_length_a                    17.616914
_cell_length_b                    16.7238
_cell_length_c                    19.286183
_cell_angle_alpha                 90.058309
_cell_angle_beta                  90.362396
_cell_angle_gamma                 90.04432
_cell_volume                      5682.01058688

loop_
_atom_site_label
_atom_site_type_symbol
_atom_type_description
_atom_site_fract_x
_atom_site_fract_y
_atom_site_fract_z
_atom_type_partial_charge
C1    C     C_R   0.353452 0.499959 0.499918 0.946854
C2    C     C_R   0.548252 0.167766 0.544447 -0.273589
C3    C     C_R   0.548667 0.832390 0.544140 -0.278173
C4    C     C_R   0.451705 0.167603 0.455533 -0.276827
C5    C     C_R   0.452248 0.747969 0.456676 0.023329
C6    C     C_R   0.547394 0.252035 0.543654 0.023283
C7    C     C_R   0.547780 0.748118 0.543330 0.019370
C8    C     C_R   0.452581 0.251876 0.456344 0.019580
C9    C     C_R   0.500027 0.875558 0.500023 0.163956
C10   C     C_R   0.499980 0.124440 0.499986 0.163498
C11   C     C_1   0.500017 0.963411 0.500016 -0.048405
C12   C     C_R   0.646523 0.500051 0.499928 0.949828
C13   C     C_1   0.499992 0.036588 0.499996 -0.048292
C14   C     C_R   0.500048 0.499929 0.365468 0.917738
C15   C     C_R   0.500020 0.500057 0.634534 0.918456
C16   C     C_R   0.543538 0.557357 0.254298 0.048416
C17   C     C_R   0.458120 0.441993 0.745928 0.048387
C18   C     C_R   0.542026 0.558453 0.746411 0.057296
C19   C     C_R   0.459486 0.441018 0.253408 0.057023
C20   C     C_R   0.544109 0.556429 0.182177 -0.218886
C21   C     C_R   0.458999 0.442094 0.818040 -0.218633
C22   C     C_R   0.542027 0.557844 0.818511 -0.218910
C23   C     C_R   0.728787 0.500286 0.498830 -0.110847
C24   C     C_R   0.460941 0.440791 0.181346 -0.217641
C25   C     C_R   0.502862 0.498429 0.145512 0.046840
C26   C     C_R   0.500911 0.499715 0.854527 0.047137
C27   C     C_R   0.500838 0.499604 0.290143 -0.037188
C28   C     C_R   0.500045 0.500190 0.709868 -0.037505
C29   C     C_R   0.501763 0.499174 0.930103 0.309972
C30   C     C_R   0.502992 0.498365 0.069936 0.310070
C31   C     C_R   0.848515 0.555199 0.539332 0.070597
C32   C     C_R   0.152710 0.445265 0.455766 0.062873
C33   C     C_R   0.152469 0.555518 0.539520 0.061418
C34   C     C_R   0.271138 0.499884 0.499243 -0.130718
C35   C     C_R   0.846270 0.446951 0.453757 0.038884
C36   C     C_R   0.769001 0.554733 0.541005 0.006122
C37   C     C_R   0.231895 0.444956 0.456782 0.054285
C38   C     C_R   0.231665 0.555010 0.540775 0.045346
C39   C     C_R   0.767116 0.446590 0.455069 0.047468
C40   C     C_R   0.886098 0.501264 0.495941 0.052353
C41   C     C_R   0.113679 0.500691 0.496971 0.016743
C42   C     C_1   0.966245 0.501154 0.495554 -0.010094
C43   C     C_1   0.033520 0.500995 0.495931 -0.061250
C44   C     C_R   0.451385 0.832238 0.455895 -0.273308
H1    H     H_    0.577214 0.601107 0.155169 0.154685
H2    H     H_    0.584771 0.284930 0.578082 0.126598
H3    H     H_    0.585450 0.715356 0.577473 0.142692
H4    H     H_    0.415196 0.284631 0.421940 0.142830
H5    H     H_    0.644613 0.609141 0.276157 0.180822
H6    H     H_    0.569823 0.672480 0.275517 0.189813
H7    H     H_    0.431645 0.327046 0.724171 0.189838
H8    H     H_    0.356736 0.390204 0.725329 0.181149
H9    H     H_    0.642676 0.611712 0.727187 0.173177
H10   H     H_    0.567000 0.673693 0.724998 0.185251
H11   H     H_    0.433981 0.326050 0.275385 0.185987
H12   H     H_    0.426442 0.397080 0.845185 0.154814
H13   H     H_    0.358411 0.388064 0.271368 0.174422
H14   H     H_    0.876188 0.668118 0.568929 0.180611
H15   H     H_    0.879036 0.599261 0.633652 0.179163
H16   H     H_    0.078724 0.421238 0.377564 0.185505
H17   H     H_    0.077676 0.354341 0.443585 0.186214
H18   H     H_    0.077217 0.579967 0.615705 0.200695
H19   H     H_    0.078113 0.647098 0.549875 0.200387
H20   H     H_    0.920849 0.356280 0.439685 0.185253
H21   H     H_    0.919006 0.424926 0.375047 0.185756
H22   H     H_    0.742229 0.666591 0.573729 0.182188
H23   H     H_    0.574847 0.602724 0.846017 0.153731
H24   H     H_    0.746033 0.596549 0.637439 0.172831
H25   H     H_    0.257442 0.332127 0.426780 0.199426
H26   H     H_    0.256274 0.400343 0.361905 0.190788
H27   H     H_    0.257496 0.667497 0.572019 0.205688
H28   H     H_    0.255325 0.598741 0.636502 0.195998
H29   H     H_    0.740155 0.404942 0.359352 0.196604
H30   H     H_    0.741135 0.334603 0.422582 0.206504
H31   H     H_    0.428554 0.395667 0.153713 0.154301
H32   H     H_    0.412999 0.863259 0.421071 0.139428
H33   H     H_    0.586350 0.136749 0.579537 0.139123
H34   H     H_    0.587070 0.863525 0.578969 0.137804
H35   H     H_    0.413593 0.136465 0.420440 0.138834
H36   H     H_    0.414588 0.715078 0.422504 0.126712
N1    N     N_R   0.463206 0.442397 0.034139 -0.185199
N2    N     N_3   0.414408 0.382896 0.289050 -0.451272
N3    N     N_3   0.891798 0.609629 0.581591 -0.469185
N4    N     N_3   0.112851 0.389255 0.412329 -0.476037
N5    N     N_3   0.112337 0.611753 0.581996 -0.471684
N6    N     N_3   0.885296 0.392055 0.409173 -0.473836
N7    N     N_3   0.728647 0.607586 0.586451 -0.448757
N8    N     N_3   0.272828 0.390453 0.413330 -0.442041
N9    N     N_3   0.272381 0.608988 0.585445 -0.432504
N10   N     N_3   0.725199 0.393257 0.410736 -0.432848
N11   N     N_R   0.541671 0.555066 0.965892 -0.185431
N12   N     N_R   0.462619 0.442776 0.965406 -0.184985
N13   N     N_R   0.542258 0.554687 0.034640 -0.185074
N14   N     N_R   0.500000 0.707230 0.500000 -0.089335
N15   N     N_R   0.500000 0.292770 0.500000 -0.089347
N16   N     N_3   0.587970 0.615686 0.291000 -0.439565
N17   N     N_3   0.413076 0.383969 0.709480 -0.439643
N18   N     N_3   0.586328 0.617026 0.710512 -0.450043
O1    O     O_R   0.389110 0.566570 0.500000 -0.617313
O2    O     O_R   0.610890 0.433430 0.500000 -0.619224
O3    O     O_R   0.610890 0.566570 0.500000 -0.604063
O4    O     O_R   0.389110 0.433430 0.500000 -0.605103
O5    O     O_R   0.499990 0.566560 0.398140 -0.615981
O6    O     O_R   0.500010 0.433440 0.601860 -0.615917
O7    O     O_R   0.500010 0.566560 0.601860 -0.603571
O8    O     O_R   0.499990 0.433440 0.398140 -0.603839
Zn1   Zn    Zn3+2 0.500000 0.588860 0.500000 0.969975
Zn2   Zn    Zn3+2 0.500000 0.411140 0.500000 0.969341

loop_
_geom_bond_atom_site_label_1
_geom_bond_atom_site_label_2
_ccdc_geom_bond_type
H7    N17   S    
C21   C26   A    
O3    Zn1   S    
C34   C37   A    
H16   N4    S    
C37   N8    S    
O6    Zn2   S    
C4    C8    A    
H26   N8    S    
C1    O1    A    
C5    N14   A    
C15   C28   S    
H21   N6    S    
O7    Zn1   S    
C38   N9    S    
H15   N3    S    
H29   N10   S    
C30   N13   A    
C3    C7    A    
C31   C36   A    
C35   N6    S    
C20   C25   A    
H8    N17   S    
C31   N3    S    
C31   C40   A    
C44   H32   S    
C33   N5    S    
N1    N12   A    
C32   C41   A    
O4    Zn2   S    
C14   C27   S    
C19   N2    S    
C19   C27   A    
C39   N10   S    
C20   H1    S    
C16   C27   A    
C40   C42   S    
C18   C22   A    
H19   N5    S    
C41   C43   S    
C2    C6    A    
C8    N15   A    
H20   N6    S    
C1    C34   S    
C36   N7    S    
C32   N4    S    
H18   N5    S    
N14   Zn1   S    
C16   N16   S    
O2    Zn2   S    
C18   C28   A    
C24   C25   A    
C4    H35   S    
H22   N7    S    
C12   C23   S    
C10   C13   S    
C17   C21   A    
H11   N2    S    
C7    H3    S    
C35   C39   A    
C8    H4    S    
C3    C9    A    
N11   N13   A    
H27   N9    S    
C16   C20   A    
C32   C37   A    
C5    H36   S    
C9    C11   S    
H25   N8    S    
C5    C44   A    
C23   C36   A    
C15   O6    A    
C42   C43   T    
C4    C10   A    
C2    C10   A    
C29   N11   A    
C25   C30   S    
C7    N14   A    
C9    C44   A    
C6    H2    S    
C34   C38   A    
C17   C28   A    
H17   N4    S    
C21   H12   S    
C24   H31   S    
H9    N18   S    
O1    Zn1   S    
C33   C38   A    
H6    N16   S    
C33   C41   A    
C15   O7    A    
C30   N1    A    
C35   C40   A    
C12   O3    A    
C2    H33   S    
H14   N3    S    
H28   N9    S    
C11   C13   T    
H30   N10   S    
C14   O5    A    
O8    Zn2   S    
C23   C39   A    
C19   C24   A    
H5    N16   S    
C22   H23   S    
C12   O2    A    
N15   Zn2   S    
C14   O8    A    
C26   C29   S    
C6    N15   A    
C22   C26   A    
H24   N7    S    
H13   N2    S    
H10   N18   S    
O5    Zn1   S    
C18   N18   S    
C3    H34   S    
C17   N17   S    
C1    O4    A    
C29   N12   A    
