data_mof_unit_27361.cif
_audit_creation_date              2012-12-10T17:03:46-0500
_audit_creation_method            fapswitch 2.2
_symmetry_space_group_name_H-M    P1
_symmetry_Int_Tables_number       1
_space_group_crystal_system       triclinic
_cell_length_a                    10.011978
_cell_length_b                    10.745716
_cell_length_c                    13.171965
_cell_angle_alpha                 89.728611
_cell_angle_beta                  70.467616
_cell_angle_gamma                 89.821818
_cell_volume                      1335.54929073

loop_
_atom_site_label
_atom_site_type_symbol
_atom_type_description
_atom_site_fract_x
_atom_site_fract_y
_atom_site_fract_z
_atom_type_partial_charge
C1    C     C_R   0.500155 0.737294 0.499618 0.975678
C2    C     C_R   0.371613 0.482254 0.820979 -0.176781
C3    C     C_2   0.598525 0.064056 0.532798 0.514033
C4    C     C_R   0.421810 0.492846 0.703772 0.885526
C5    C     C_2   0.490647 0.131175 0.521879 -0.440435
C6    C     C_2   0.584222 0.929738 0.541539 -0.263384
C7    C     C_2   0.502756 0.868990 0.496213 -0.410697
C8    C     C_2   0.109150 0.454134 0.422210 -0.130097
C9    C     C_2   0.957584 0.446671 0.425827 -0.157308
C10   C     C_R   0.498022 0.262613 0.505525 0.941726
C11   C     C_R   0.578319 0.499805 0.296073 0.853234
C12   C     C_R   0.432865 0.471298 0.983858 0.032605
C13   C     C_R   0.774529 0.378015 0.021247 -0.132588
C14   C     C_R   0.625013 0.482331 0.180385 -0.075662
C15   C     C_R   0.237457 0.529438 0.879421 -0.248890
C16   C     C_R   0.197848 0.545066 0.990109 0.538592
C17   C     C_R   0.295224 0.516063 0.042459 -0.315302
C18   C     C_3   0.061445 0.697449 0.101032 0.052656
C19   C     C_3   0.983747 0.677369 0.221175 -0.307283
C20   C     C_3   0.980771 0.795278 0.285684 -0.971362
C21   C     C_3   0.838756 0.092402 0.462285 0.084970
C22   C     C_3   0.967935 0.125459 0.493815 -0.273980
C23   C     C_R   0.463286 0.439716 0.875130 0.039546
C24   C     C_3   0.105494 0.113548 0.398771 -0.987048
C25   C     C_R   0.541308 0.456807 0.029624 0.080094
C26   C     C_R   0.669190 0.392887 0.973016 0.094888
C27   C     C_R   0.687139 0.344309 0.870688 0.108724
C28   C     C_R   0.584678 0.367219 0.823133 -0.190052
C29   C     C_R   0.527054 0.508019 0.129479 -0.237360
C30   C     C_R   0.751197 0.420464 0.125476 -0.163823
H1    H     H_    0.828401 0.400172 0.164551 0.161185
H2    H     H_    0.437381 0.565798 0.171409 0.149347
H3    H     H_    0.164555 0.558418 0.838788 0.182556
H4    H     H_    0.259251 0.525436 0.128866 0.136606
H5    H     H_    0.600443 0.325832 0.745294 0.208225
H6    H     H_    0.002799 0.768231 0.070660 0.172053
H7    H     H_    0.168932 0.737025 0.088418 0.128221
H8    H     H_    0.873324 0.647643 0.233600 0.246339
H9    H     H_    0.037860 0.602752 0.251015 0.214486
H10   H     H_    0.090462 0.825017 0.276041 0.260177
H11   H     H_    0.923547 0.776459 0.372350 0.274062
H12   H     H_    0.390475 0.089181 0.526358 0.135571
H13   H     H_    0.925294 0.871276 0.258297 0.258251
H14   H     H_    0.839791 0.148585 0.390780 0.143853
H15   H     H_    0.847164 0.992037 0.440520 0.131190
H16   H     H_    0.957548 0.222266 0.524251 0.261901
H17   H     H_    0.972683 0.062398 0.559656 0.238324
H18   H     H_    0.121316 0.015904 0.370130 0.266769
H19   H     H_    0.196264 0.140893 0.424355 0.280440
H20   H     H_    0.103170 0.175502 0.331633 0.258426
H21   H     H_    0.647856 0.879953 0.581235 0.188679
H22   H     H_    0.441210 0.914030 0.452661 0.149906
H23   H     H_    0.189645 0.417257 0.351377 0.165910
H24   H     H_    0.071724 0.526161 0.568817 0.174653
H25   H     H_    0.936209 0.396233 0.361788 0.153523
H26   H     H_    0.873147 0.552769 0.555835 0.174945
H27   H     H_    0.872985 0.330131 0.981029 0.177931
I1    I     I_    0.867294 0.238948 0.780165 -0.434401
N1    N     N_2   0.148270 0.498670 0.498870 -0.180532
N2    N     N_2   0.852610 0.498640 0.498840 -0.178494
O1    O     O_R   0.386950 0.680940 0.500020 -0.609468
O2    O     O_3   0.714397 0.119891 0.549407 -0.603851
O3    O     O_R   0.613110 0.680900 0.499980 -0.613773
O4    O     O_R   0.330780 0.500000 0.653640 -0.608037
O5    O     O_R   0.556930 0.499960 0.653610 -0.611923
O6    O     O_R   0.386890 0.319100 0.500020 -0.610878
O7    O     O_R   0.613050 0.319060 0.499980 -0.563225
O8    O     O_R   0.443070 0.500040 0.346390 -0.615141
O9    O     O_R   0.669220 0.500000 0.346360 -0.631620
O10   O     O_3   0.061234 0.584705 0.045732 -0.652188
Zn1   Zn    Zn3+2 0.349000 0.500030 0.500020 0.951640
Zn2   Zn    Zn3+2 0.651000 0.499970 0.499980 0.948143

loop_
_geom_bond_atom_site_label_1
_geom_bond_atom_site_label_2
_ccdc_geom_bond_type
C12   C17   A    
C18   O10   S    
O9    Zn2   S    
C2    C4    S    
C5    H12   S    
C11   O9    A    
O6    Zn1   S    
C23   C28   A    
C6    C7    D    
C9    H25   S    
C19   H8    S    
C6    H21   S    
O5    Zn2   S    
C4    O4    A    
C19   C20   S    
C12   C25   A    
C9    N2    D    
O1    Zn1   S    
C22   H17   S    
C26   C27   A    
C8    H23   S    
C5    C10   S    
C10   O7    A    
C21   C22   S    
O3    Zn2   S    
C24   H20   S    
C2    C15   A    
C12   C23   A    
C21   O2    S    
C4    O5    A    
C19   H9    S    
C14   C30   A    
O8    Zn1   S    
C1    O3    A    
C22   H16   S    
C18   H7    S    
C7    H22   S    
C20   H11   S    
C29   H2    S    
C21   H15   S    
H24   N1    S    
C10   O6    A    
C8    N1    D    
C25   C29   A    
C30   H1    S    
C20   H10   S    
C11   C14   S    
C22   C24   S    
C13   C26   A    
C3    O2    S    
C13   H27   S    
C17   H4    S    
N2    Zn2   S    
C14   C29   A    
C15   C16   A    
C24   H18   S    
C13   C30   A    
C24   H19   S    
C20   H13   S    
C16   O10   S    
C11   O8    A    
C2    C23   A    
C18   C19   S    
C21   H14   S    
O4    Zn1   S    
C27   C28   A    
C16   C17   A    
O7    Zn2   S    
C25   C26   A    
C1    C7    S    
C18   H6    S    
C15   H3    S    
C3    C6    S    
H26   N2    S    
C28   H5    S    
N1    Zn1   S    
C8    C9    S    
C3    C5    D    
C27   I1    S    
C1    O1    A    
