data_mof_unit_37042.cif
_audit_creation_date              2012-12-11T17:00:22-0500
_audit_creation_method            fapswitch 2.2
_symmetry_space_group_name_H-M    P1
_symmetry_Int_Tables_number       1
_space_group_crystal_system       triclinic
_cell_length_a                    6.943685
_cell_length_b                    13.745014
_cell_length_c                    20.24228
_cell_angle_alpha                 103.431483
_cell_angle_beta                  90.396346
_cell_angle_gamma                 90.546588
_cell_volume                      1878.93426123

loop_
_atom_site_label
_atom_site_type_symbol
_atom_type_description
_atom_site_fract_x
_atom_site_fract_y
_atom_site_fract_z
_atom_type_partial_charge
O1    O     O_R   0.506770 0.599700 0.449550 -0.534565
O2    O     O_R   0.179980 0.595740 0.587960 -0.536900
O3    O     O_R   0.004580 0.400300 0.550450 -0.536652
C1    C     C_R   0.349276 0.620506 0.613968 0.696999
O4    O     O_R   0.177380 0.611700 0.452380 -0.551233
O5    O     O_R   0.001970 0.416370 0.413900 -0.543690
C2    C     C_R   0.345653 0.635459 0.434058 0.710642
O6    O     O_R   0.509390 0.583630 0.586100 -0.543662
O7    O     O_3   0.337530 0.435890 0.487530 -0.372119
V1    V     V_3+5 0.064660 0.511890 0.502310 1.460526
O8    O     O_R   0.671950 0.404260 0.412040 -0.545415
C3    C     C_R   0.839975 0.381819 0.385232 0.710024
O9    O     O_R   0.674540 0.388300 0.547620 -0.540871
C4    C     C_R   0.843019 0.362026 0.564531 0.677073
V2    V     V_3+5 0.564030 0.488110 0.497690 1.457179
O10   O     O_3   0.841030 0.564110 0.512470 -0.366054
C5    C     C_R   0.791304 0.109918 0.607595 -0.059856
H1    H     H_    0.760195 0.033243 0.581267 0.224031
C6    C     C_R   0.848378 0.281617 0.601506 -0.144644
C7    C     C_R   0.897130 0.312605 0.928711 -0.169492
C8    C     C_R   0.909651 0.387365 0.893084 -0.116267
C9    C     C_R   0.894899 0.363985 0.822467 -0.127408
C10   C     C_R   0.865668 0.263965 0.785174 0.087216
C11   C     C_R   0.847175 0.187973 0.822293 0.026705
C12   C     C_R   0.852589 0.237251 0.712541 0.011220
C13   C     C_R   0.812359 0.136181 0.678824 -0.000838
C14   C     C_R   0.792522 0.062195 0.716160 0.379729
C15   C     C_R   0.812374 0.088448 0.787066 -0.297134
C16   C     C_R   0.876310 0.307882 0.672083 -0.233194
C17   C     C_R   0.806760 0.181166 0.568733 0.347233
C18   C     C_R   0.865443 0.213157 0.894291 -0.052884
H2    H     H_    0.913878 0.384706 0.693949 0.148278
H3    H     H_    0.913334 0.332296 0.983521 0.135326
H4    H     H_    0.905744 0.426350 0.798897 0.162312
H5    H     H_    0.932865 0.464253 0.920408 0.133242
H6    H     H_    0.797898 0.030099 0.814628 0.130486
C19   C     C_R   0.750139 0.270614 0.198059 0.019554
C20   C     C_R   0.869352 0.186699 0.183433 -0.149366
C21   C     C_R   0.994130 0.172136 0.236077 0.364565
C22   C     C_R   0.987275 0.237985 0.301737 -0.253300
H7    H     H_    0.082047 0.226077 0.341809 0.124261
C23   C     C_R   0.849478 0.314250 0.317001 -0.121212
C24   C     C_R   0.736626 0.329848 0.263303 0.039838
C25   C     C_3   0.526455 0.346102 0.256806 -0.326475
C26   C     C_3   0.542348 0.285938 0.183502 0.232039
H8    H     H_    0.491957 0.425944 0.262867 0.225862
H9    H     H_    0.439696 0.307055 0.289002 0.129953
H10   H     H_    0.449153 0.218290 0.171458 0.163479
C27   C     C_R   0.476854 0.672912 0.732340 -0.074644
C28   C     C_R   0.354663 0.691252 0.681540 -0.206253
C29   C     C_R   0.218921 0.770307 0.700872 0.384935
C30   C     C_R   0.218479 0.829134 0.768127 -0.122886
H11   H     H_    0.120455 0.891418 0.780817 0.154508
C31   C     C_R   0.353968 0.814481 0.816767 -0.162622
C32   C     C_R   0.478046 0.733238 0.797802 -0.033257
C33   C     C_3   0.692329 0.723577 0.804413 0.639542
C34   C     C_3   0.689707 0.657487 0.732338 0.164598
H12   H     H_    0.768288 0.689188 0.694175 0.138876
C35   C     C_R   0.469005 0.882802 0.397577 0.424777
C36   C     C_R   0.357507 0.716634 0.399048 -0.316545
C37   C     C_R   0.284110 0.697052 0.077448 0.178478
C38   C     C_R   0.291547 0.618135 0.111015 -0.116250
C39   C     C_R   0.356617 0.637880 0.178709 0.468344
C40   C     C_R   0.378288 0.738209 0.217304 -0.027234
C41   C     C_R   0.407719 0.813818 0.181154 -0.138016
C42   C     C_R   0.383750 0.763608 0.290198 -0.046804
C43   C     C_R   0.457617 0.858508 0.325382 -0.146957
C44   C     C_R   0.522552 0.926566 0.288335 0.333886
C45   C     C_R   0.490399 0.906172 0.217574 -0.055672
C46   C     C_R   0.309507 0.698663 0.329225 0.279077
C47   C     C_R   0.434754 0.809867 0.433468 0.314772
C48   C     C_R   0.357989 0.791898 0.109990 -0.126309
O11   O     O_R   0.203450 0.916320 0.913910 -0.548807
O12   O     O_R   0.535520 0.888300 0.047620 -0.557264
O13   O     O_R   0.710860 0.083650 0.086100 -0.543630
C49   C     C_R   0.367406 0.866912 0.068360 0.871193
O14   O     O_R   0.532860 0.904250 0.912040 -0.540856
O15   O     O_R   0.708190 0.099710 0.949550 -0.549837
C50   C     C_R   0.363879 0.882896 0.884807 0.742307
O16   O     O_R   0.206120 0.900260 0.050460 -0.517814
O17   O     O_3   0.375280 0.064080 0.012470 -0.374490
V3    V     V_3+5 0.648180 0.988110 0.997690 1.474810
O18   O     O_R   0.038220 0.111740 0.952370 -0.546739
C51   C     C_R   0.870035 0.136520 0.934346 0.666414
O19   O     O_R   0.040880 0.095790 0.087940 -0.510729
C52   C     C_R   0.873116 0.118611 0.114803 0.740040
V4    V     V_3+5 0.148800 0.011950 0.002300 1.531508
O20   O     O_3   0.871820 0.935920 0.987530 -0.379257
O21   O     O_3   0.780501 0.148809 0.499293 -0.603098
H13   H     H_    0.810620 0.203671 0.476763 0.279946
O22   O     O_3   0.523011 0.346465 0.137016 -0.577496
H14   H     H_    0.538908 0.301454 0.091397 0.294817
O23   O     O_3   0.092037 0.796841 0.655472 -0.622397
H15   H     H_    0.143340 0.774557 0.609005 0.294068
O24   O     O_3   0.750278 0.674503 0.855269 -0.629476
H16   H     H_    0.654580 0.620953 0.856903 0.302395
O25   O     O_3   0.791628 0.814084 0.807854 -0.679357
H17   H     H_    0.848042 0.836071 0.854093 0.323519
O26   O     O_3   0.734146 0.557727 0.730232 -0.651864
H18   H     H_    0.716186 0.521420 0.682181 0.289152
O27   O     O_3   0.753415 0.964363 0.682269 -0.621271
H19   H     H_    0.740107 0.922231 0.715649 0.328331
O28   O     O_3   0.470160 0.835250 0.502830 -0.595833
H20   H     H_    0.416045 0.783835 0.524617 0.276171
O29   O     O_3   0.629387 0.009446 0.321848 -0.623919
H21   H     H_    0.611172 0.065922 0.299858 0.296814
O30   O     O_3   0.511072 0.977807 0.435228 -0.559628
H22   H     H_    0.428434 0.024471 0.417344 0.321393
O31   O     O_3   0.187228 0.620881 0.298359 -0.613447
H23   H     H_    0.122496 0.591685 0.332617 0.304422
O32   O     O_3   0.216857 0.682954 0.011319 -0.640815
H24   H     H_    0.120242 0.627952 0.002259 0.283574
O33   O     O_3   0.423816 0.558226 0.202502 -0.576976
H25   H     H_    0.525941 0.583329 0.236907 0.289383
C53   C     C_2   0.246909 0.513625 0.073887 0.497545
H26   H     H_    0.264157 0.490743 0.019251 0.010631
O34   O     O_2   0.187074 0.452146 0.103904 -0.477292
C54   C     C_2   0.569448 0.978189 0.182839 0.328858
H27   H     H_    0.716789 0.970145 0.165360 0.072528
O35   O     O_2   0.471262 0.047887 0.175762 -0.540487
O36   O     O_3   0.111071 0.089510 0.223973 -0.622230
H28   H     H_    0.182017 0.087683 0.266358 0.302303

loop_
_geom_bond_atom_site_label_1
_geom_bond_atom_site_label_2
_ccdc_geom_bond_type
C33   O24   S    
O18   V4    S    
C32   C33   S    
O23   H15   S    
O24   H16   S    
C1    O6    A    
O25   H17   S    
O19   C52   A    
C30   H11   S    
C13   C14   A    
C19   C20   A    
O12   C49   A    
C20   C52   S    
C5    C13   A    
C31   C50   S    
C16   H2    S    
O5    C3    A    
C20   C21   A    
V3    O20   S    
V2    O10   S    
C34   O26   S    
C45   C54   S    
C27   C34   S    
C33   C34   S    
C5    H1    S    
C54   H27   S    
O11   V4    S    
C3    C23   S    
C35   C43   A    
O8    V2    S    
O18   C51   A    
C25   H8    S    
C44   C45   A    
C53   O34   D    
O30   H22   S    
O1    V2    S    
O7    V1    S    
C25   H9    S    
C48   C49   S    
O19   V4    S    
C42   C43   A    
O9    C4    A    
C5    C17   A    
C33   O25   S    
O12   V3    S    
C17   O21   S    
C30   C31   A    
O17   V3    S    
O14   C50   A    
C12   C16   A    
C9    H4    S    
C29   C30   A    
O27   H19   S    
C49   O16   A    
C21   C22   A    
O4    C2    A    
C36   C47   A    
C12   C13   A    
C27   C32   A    
C14   O27   S    
C35   O30   S    
C18   C51   S    
C43   C44   A    
C1    C28   S    
C40   C42   A    
C19   C24   A    
O2    C1    A    
C24   C25   S    
C38   C39   A    
C46   O31   S    
O15   V3    S    
O13   C52   A    
O26   H18   S    
C36   C46   A    
C10   C11   A    
C28   C29   A    
O11   C50   A    
O36   H28   S    
O17   V4    S    
O3    C4    A    
C29   O23   S    
C7    H3    S    
C37   C48   A    
C22   H7    S    
O6    V2    S    
O9    V2    S    
C44   O29   S    
C19   C26   S    
O2    V1    S    
C2    C36   S    
O22   H14   S    
C25   C26   S    
O33   H25   S    
C26   H10   S    
C47   O28   S    
C31   C32   A    
O32   H24   S    
O1    C2    A    
C4    C6    S    
C11   C15   A    
O5    V1    S    
O8    C3    A    
O13   V3    S    
C8    H5    S    
O16   V4    S    
C41   C48   A    
O29   H21   S    
C21   O36   S    
C40   C41   A    
O7    V2    S    
C11   C18   A    
O4    V1    S    
O3    V1    S    
V1    O10   S    
O31   H23   S    
C34   H12   S    
C42   C46   A    
O14   V3    S    
C37   O32   S    
C41   C45   A    
C22   C23   A    
C10   C12   A    
C37   C38   A    
C26   O22   S    
C54   O35   D    
C39   C40   A    
C39   O33   S    
O15   C51   A    
C38   C53   S    
C7    C8    A    
C15   H6    S    
V4    O20   S    
C27   C28   A    
C23   C24   A    
O28   H20   S    
C9    C10   A    
O21   H13   S    
C8    C9    A    
C6    C17   A    
C53   H26   S    
C35   C47   A    
C14   C15   A    
C7    C18   A    
C6    C16   A    
