data_mof_unit_41982.cif
_audit_creation_date              2012-12-10T19:47:56-0500
_audit_creation_method            fapswitch 2.2
_symmetry_space_group_name_H-M    P1
_symmetry_Int_Tables_number       1
_space_group_crystal_system       triclinic
_cell_length_a                    15.05305
_cell_length_b                    14.117307
_cell_length_c                    10.367245
_cell_angle_alpha                 90.270699
_cell_angle_beta                  86.997855
_cell_angle_gamma                 89.867701
_cell_volume                      2200.07258283

loop_
_atom_site_label
_atom_site_type_symbol
_atom_type_description
_atom_site_fract_x
_atom_site_fract_y
_atom_site_fract_z
_atom_type_partial_charge
C1    C     C_R   0.327922 0.499751 0.489493 0.975622
C2    C     C_R   0.672139 0.499625 0.509850 0.987272
C3    C     C_R   0.048109 0.520403 0.504511 0.084567
C4    C     C_R   0.952073 0.520276 0.501196 0.072317
C5    C     C_R   0.472301 0.105003 0.393138 -0.274631
C6    C     C_R   0.557605 0.894692 0.576539 -0.259449
C7    C     C_R   0.527729 0.105659 0.607019 -0.272992
C8    C     C_R   0.442408 0.894498 0.423703 -0.252822
C9    C     C_R   0.471516 0.204247 0.395999 0.116166
C10   C     C_R   0.555690 0.795440 0.576081 0.146519
C11   C     C_R   0.528470 0.204889 0.604090 0.118297
C12   C     C_R   0.444305 0.795257 0.424060 0.138351
C13   C     C_R   0.500024 0.053382 0.500097 0.152805
C14   C     C_R   0.500019 0.946559 0.500122 0.111367
C15   C     C_R   0.516613 0.499701 0.258267 0.983512
C16   C     C_R   0.483040 0.500329 0.741587 0.955871
C17   C     C_R   0.569465 0.672966 0.092797 0.439560
C18   C     C_R   0.428122 0.328704 0.911960 0.479808
C19   C     C_R   0.438656 0.677105 0.908690 0.446747
C20   C     C_R   0.564074 0.325175 0.085349 0.413511
C21   C     C_R   0.540098 0.758753 0.043821 -0.311232
C22   C     C_R   0.459204 0.242712 0.958029 -0.303539
C23   C     C_R   0.472897 0.760896 0.957722 -0.318357
C24   C     C_R   0.529099 0.240878 0.039190 -0.296685
C25   C     C_R   0.473921 0.588288 0.947662 -0.092717
C26   C     C_R   0.526299 0.413453 0.050767 -0.133923
C27   C     C_R   0.529716 0.586604 0.052925 -0.105550
C28   C     C_R   0.469035 0.415033 0.948244 -0.097101
C29   C     C_R   0.460319 0.501654 0.882082 -0.021843
C30   C     C_R   0.539080 0.499442 0.117714 -0.062043
C31   C     C_R   0.097845 0.592502 0.445419 -0.144711
C32   C     C_R   0.912088 0.439601 0.452913 -0.174475
C33   C     C_R   0.901377 0.590752 0.563786 -0.152504
C34   C     C_R   0.088981 0.438018 0.545559 -0.209001
C35   C     C_R   0.189888 0.582553 0.427188 -0.016972
C36   C     C_R   0.822031 0.424392 0.474875 -0.044751
C37   C     C_R   0.809212 0.580735 0.578737 -0.021786
C38   C     C_R   0.178807 0.423090 0.519308 -0.088195
C39   C     C_R   0.231689 0.500088 0.473987 -0.146835
C40   C     C_R   0.768318 0.499730 0.525548 -0.158990
H1    H     H_    0.555669 0.173055 0.067090 0.203972
H2    H     H_    0.447570 0.828955 0.928652 0.187090
H3    H     H_    0.430016 0.176339 0.929171 0.205693
H4    H     H_    0.568943 0.825053 0.073515 0.187946
H5    H     H_    0.064181 0.652947 0.405859 0.184504
H6    H     H_    0.953229 0.383802 0.408747 0.175249
H7    H     H_    0.934274 0.650051 0.607796 0.185210
H8    H     H_    0.048469 0.380823 0.585983 0.177204
H9    H     H_    0.452239 0.069715 0.306627 0.141089
H10   H     H_    0.604930 0.929777 0.635320 0.159705
H11   H     H_    0.547809 0.070898 0.693541 0.142055
H12   H     H_    0.395056 0.929436 0.364996 0.159836
H13   H     H_    0.449018 0.242817 0.313953 0.149019
H14   H     H_    0.599257 0.756585 0.635974 0.139047
H15   H     H_    0.550986 0.243927 0.686123 0.144218
H16   H     H_    0.400739 0.756278 0.364179 0.137957
N1    N     N_R   0.500000 0.252470 0.500000 -0.065982
N2    N     N_R   0.500000 0.747530 0.500000 -0.074719
O1    O     O_R   0.369060 0.579480 0.500010 -0.582456
O2    O     O_R   0.630940 0.420520 0.499990 -0.571806
O3    O     O_R   0.630940 0.579480 0.499990 -0.577018
O4    O     O_R   0.369060 0.420520 0.500010 -0.569737
O5    O     O_R   0.499990 0.579480 0.316780 -0.608993
O6    O     O_R   0.500010 0.420520 0.683220 -0.627899
O7    O     O_R   0.500010 0.579480 0.683220 -0.606461
O8    O     O_R   0.499990 0.420520 0.316780 -0.619128
Zn1   Zn    Zn3+2 0.500000 0.606140 0.500000 1.079296
Zn2   Zn    Zn3+2 0.500000 0.393860 0.500000 1.080046
S1    S     S_3+6 0.666624 0.679663 0.182058 0.052917
O9    O     O_2   0.692262 0.586442 0.237375 -0.255609
O10   O     O_2   0.742135 0.713202 0.093284 -0.262114
O11   O     O_3   0.650794 0.758428 0.303233 -0.547177
H17   H     H_    0.662605 0.821257 0.263963 0.360097
S2    S     S_3+6 0.329579 0.322912 0.828323 0.042694
O12   O     O_2   0.352926 0.289985 0.693293 -0.309706
O13   O     O_2   0.268462 0.251391 0.893002 -0.250167
O14   O     O_3   0.277194 0.427708 0.827173 -0.517331
H18   H     H_    0.216817 0.413475 0.798915 0.395970
S3    S     S_3+6 0.340586 0.690167 0.822746 0.062949
O15   O     O_2   0.313069 0.600515 0.758825 -0.247831
O16   O     O_2   0.266488 0.720922 0.916649 -0.261441
O17   O     O_3   0.356063 0.774239 0.709465 -0.554103
H19   H     H_    0.340562 0.834906 0.753516 0.364159
S4    S     S_3+6 0.664218 0.314930 0.164489 0.047636
O18   O     O_2   0.642091 0.291149 0.302895 -0.285274
O19   O     O_2   0.719026 0.235352 0.104854 -0.247896
O20   O     O_3   0.724358 0.414610 0.154762 -0.488701
H20   H     H_    0.735323 0.425678 0.060997 0.374764
C41   C     C_2   0.238301 0.651810 0.342608 0.947118
O21   O     O_2   0.216752 0.735417 0.345605 -0.594125
O22   O     O_R   0.305459 0.620220 0.254165 -0.798406
H21   H     H_    0.330295 0.672659 0.196447 0.349446
C42   C     C_2   0.791446 0.325344 0.460469 1.048580
O23   O     O_2   0.820332 0.277193 0.369129 -0.519697
O24   O     O_R   0.736970 0.283891 0.557864 -0.788745
H22   H     H_    0.723512 0.215001 0.539101 0.351510
C43   C     C_2   0.759434 0.648727 0.665037 0.943000
O25   O     O_2   0.781122 0.732151 0.666941 -0.593230
O26   O     O_R   0.690657 0.616180 0.749316 -0.815712
H23   H     H_    0.664429 0.667991 0.807789 0.346641
C44   C     C_2   0.209808 0.323304 0.521861 1.034519
O27   O     O_2   0.180707 0.269952 0.606550 -0.555764
O28   O     O_R   0.265328 0.287658 0.420605 -0.773498
H24   H     H_    0.278556 0.217711 0.430625 0.348402

loop_
_geom_bond_atom_site_label_1
_geom_bond_atom_site_label_2
_ccdc_geom_bond_type
O8    Zn2   S    
O20   H20   S    
C17   S1    S    
C42   O23   D    
C19   C23   A    
O24   H22   S    
S4    O20   S    
C1    O4    A    
C37   C43   S    
C43   O25   D    
O14   H18   S    
C7    C11   A    
C44   O27   D    
C23   H2    S    
S2    O13   D    
C32   C36   A    
C28   C29   A    
C10   N2    A    
S4    O19   D    
C38   C44   S    
C1    O1    A    
C38   C39   A    
C2    O2    A    
S1    O10   D    
O1    Zn1   S    
C36   C42   S    
C20   C24   A    
O7    Zn1   S    
S2    O14   S    
C41   O22   S    
C8    H12   S    
C5    C13   A    
C2    O3    A    
C12   N2    A    
C44   O28   S    
C34   C38   A    
C13   C14   S    
C27   C30   A    
C24   H1    S    
C5    H9    S    
C19   C25   A    
C43   O26   S    
C25   C29   A    
O5    Zn1   S    
S2    O12   D    
C17   C27   A    
C36   C40   A    
C18   C28   A    
S4    O18   D    
C9    N1    A    
O22   H21   S    
S3    O16   D    
C3    C34   A    
C16   C29   S    
C15   O8    A    
C33   C37   A    
S1    O11   S    
C35   C39   A    
C5    C9    A    
C6    C14   A    
C21   H4    S    
O3    Zn1   S    
C22   H3    S    
C8    C12   A    
C4    C32   A    
C6    H10   S    
C3    C31   A    
C12   H16   S    
C35   C41   S    
C26   C30   A    
C20   S4    S    
C25   C27   A    
C33   H7    S    
C22   C24   A    
C9    H13   S    
N1    Zn2   S    
C3    C4    S    
O6    Zn2   S    
C11   H15   S    
C15   C30   S    
C4    C33   A    
C8    C14   A    
C18   C22   A    
C32   H6    S    
O11   H17   S    
C6    C10   A    
S3    O17   S    
C37   C40   A    
C26   C28   A    
O26   H23   S    
O4    Zn2   S    
C21   C23   A    
C7    H11   S    
C42   O24   S    
C20   C26   A    
C31   C35   A    
S1    O9    D    
C10   H14   S    
C17   C21   A    
C1    C39   S    
S3    O15   D    
C2    C40   S    
N2    Zn1   S    
C7    C13   A    
C34   H8    S    
O2    Zn2   S    
C18   S2    S    
O17   H19   S    
C31   H5    S    
O28   H24   S    
C15   O5    A    
C16   O7    A    
C16   O6    A    
C41   O21   D    
C11   N1    A    
C19   S3    S    
