data_mof_unit_41028.cif
_audit_creation_date              2013-03-05T16:41:45-0500
_audit_creation_method            fapswitch 2.2
_symmetry_space_group_name_H-M    P1
_symmetry_Int_Tables_number       1
_space_group_crystal_system       triclinic
_cell_length_a                    10.744512
_cell_length_b                    10.730111
_cell_length_c                    9.874095
_cell_angle_alpha                 90.002419
_cell_angle_beta                  90.134253
_cell_angle_gamma                 92.274693
_cell_volume                      1137.48234922

loop_
_atom_site_label
_atom_site_type_symbol
_atom_site_description
_atom_site_fract_x
_atom_site_fract_y
_atom_site_fract_z
_atom_type_partial_charge
O1    O     O_R   0.500020 0.316790 0.614690 -0.626295
O2    O     O_R   0.500000 0.316760 0.385350 -0.628228
C1    C     C_R   0.503173 0.259918 0.499719 0.876225
O3    O     O_R   0.316770 0.500020 0.614690 -0.630570
O4    O     O_R   0.316760 0.499980 0.385350 -0.625044
C2    C     C_R   0.259958 0.508154 0.500965 0.866627
Zn1   Zn    Zn3+2 0.500010 0.500020 0.653130 0.994039
Zn2   Zn    Zn3+2 0.499990 0.499980 0.346870 0.953133
O5    O     O_R   0.500000 0.683240 0.614650 -0.576315
O6    O     O_R   0.499980 0.683210 0.385310 -0.616829
O7    O     O_R   0.683240 0.500020 0.614650 -0.583300
O8    O     O_R   0.683230 0.499980 0.385310 -0.634621
C3    C     C_R   0.504732 0.740181 0.499932 0.898692
C4    C     C_R   0.738894 0.487274 0.500275 0.897056
H1    H     H_    0.111152 0.511030 0.285403 0.196470
C5    C     C_R   0.110302 0.537958 0.757507 -0.286730
H2    H     H_    0.194515 0.595647 0.767485 0.173813
C6    C     C_R   0.048958 0.500934 0.877068 0.544082
C7    C     C_R   0.941172 0.424721 0.868357 -0.140599
H3    H     H_    0.897582 0.387633 0.959377 0.152865
C8    C     C_R   0.882302 0.407507 0.743366 -0.211527
H4    H     H_    0.794860 0.353925 0.740573 0.166126
C9    C     C_R   0.936283 0.459419 0.624526 0.112773
C10   C     C_R   0.059793 0.504479 0.629195 0.048490
C11   C     C_R   0.126060 0.513147 0.504840 -0.104139
C12   C     C_R   0.062754 0.504786 0.381225 -0.219201
H5    H     H_    0.887835 0.494248 0.282970 0.180122
C13   C     C_R   0.935547 0.489879 0.379584 -0.199180
C14   C     C_R   0.871264 0.471201 0.501205 -0.112019
C15   C     C_R   0.538281 0.065204 0.618948 0.087992
C16   C     C_R   0.522824 0.129134 0.498057 -0.105777
C17   C     C_R   0.532115 0.065378 0.374694 -0.211077
H6    H     H_    0.529371 0.113419 0.278311 0.177791
C18   C     C_R   0.533149 0.936447 0.375163 -0.187368
H7    H     H_    0.530473 0.887834 0.278957 0.209633
C19   C     C_R   0.525663 0.872214 0.499085 -0.168165
C20   C     C_R   0.542349 0.937736 0.620285 0.148108
C21   C     C_3   0.471462 0.929190 0.751225 0.152978
C22   C     C_3   0.465542 0.069761 0.746776 -0.585816
H8    H     H_    0.379072 0.878861 0.743582 0.092096
H9    H     H_    0.369428 0.101549 0.730110 0.182328
H10   H     H_    0.520291 0.118218 0.828082 0.230898
C23   C     C_R   0.396437 0.460596 0.070928 0.225059
N1    N     N_R   0.499160 0.499140 0.142800 -0.150393
C24   C     C_R   0.596380 0.552136 0.074540 -0.149457
H11   H     H_    0.673040 0.593430 0.132342 0.196429
C25   C     C_R   0.597338 0.555054 0.930825 0.345333
N2    N     N_R   0.499160 0.499180 0.857150 -0.180692
C26   C     C_R   0.396142 0.460803 0.928697 0.167670
C27   C     C_3   0.332692 0.334987 0.924687 -0.482045
C28   C     C_3   0.332186 0.335582 0.078382 -0.460925
H12   H     H_    0.238343 0.335279 0.879065 0.220605
H13   H     H_    0.393684 0.265366 0.882346 0.203506
H14   H     H_    0.237288 0.340022 0.122212 0.228638
H15   H     H_    0.391440 0.263895 0.123859 0.202130
N3    N     N_R   0.547339 0.888636 0.865124 0.265468
O9    O     O_R   0.661382 0.932015 0.881259 -0.347741
O10   O     O_R   0.495900 0.820878 0.960303 -0.448008
N4    N     N_R   0.701841 0.620119 0.867812 0.234079
O11   O     O_R   0.685848 0.691167 0.763834 -0.306177
O12   O     O_R   0.804236 0.638939 0.936576 -0.463987
O13   O     O_3   0.098841 0.530653 0.002697 -0.685751
C29   C     C_3   0.089298 0.659838 0.029131 0.075919
H16   H     H_    0.020383 0.670551 0.111661 0.189544
H17   H     H_    0.057199 0.715862 0.941125 0.176835
C30   C     C_3   0.215712 0.714171 0.076078 -0.360982
H18   H     H_    0.247493 0.662725 0.166571 0.240598
H19   H     H_    0.284388 0.702911 0.993676 0.248653
C31   C     C_3   0.209762 0.852225 0.111546 -0.877092
H20   H     H_    0.182380 0.906578 0.021225 0.263994
H21   H     H_    0.302775 0.888031 0.146491 0.282338
H22   H     H_    0.141484 0.865534 0.194108 0.256916

loop_
_geom_bond_atom_site_label_1
_geom_bond_atom_site_label_2
_geom_bond_distance
_ccdc_geom_bond_type
O4    Zn2   2.005921 S    
C27   H12   1.108471 S    
C23   N1    1.361220 A    
C29   H17   1.118276 S    
C20   C21   1.503076 S    
C12   C13   1.369839 A    
C31   H22   1.110990 S    
C27   C28   1.517639 S    
C30   H19   1.109492 S    
C7    H3    1.082904 S    
Zn2   O8    2.004203 S    
C28   H14   1.111375 S    
Zn1   N2    2.014574 S    
C24   C25   1.419454 A    
C30   H18   1.110543 S    
C29   C30   1.527681 S    
C21   N3    1.463811 S    
N4    O11   1.293998 A    
C5    C10   1.417756 A    
C6    O13   1.382398 S    
O1    Zn1   2.002369 S    
C8    H4    1.082140 S    
C17   H6    1.083249 S    
C1    C16   1.427484 S    
C23   C28   1.485966 S    
C27   H13   1.096560 S    
O13   C29   1.418267 S    
C19   C20   1.395534 A    
O3    Zn1   2.004204 S    
O4    C2    1.300346 A    
C9    C14   1.410603 A    
Zn2   O6    2.002370 S    
N2    C26   1.364311 A    
C21   H8    1.113487 S    
O8    C4    1.291600 A    
C15   C22   1.487949 S    
Zn1   O7    2.005920 S    
C22   H10   1.111025 S    
C18   C19   1.405298 A    
C31   H20   1.111089 S    
C8    C9    1.414644 A    
C15   C16   1.389683 A    
C18   H7    1.083490 S    
O7    C4    1.288934 A    
C23   C26   1.404405 A    
N4    O12   1.300406 A    
C2    C11   1.442388 S    
C31   H21   1.110549 S    
N3    O9    1.302799 A    
C9    C10   1.394906 A    
C25   N4    1.440970 S    
C29   H16   1.111377 S    
C30   C31   1.525990 S    
Zn2   N1    2.015024 S    
C21   C22   1.512837 S    
C10   C11   1.422027 A    
C22   H9    1.112224 S    
C3    C19   1.425663 S    
C5    C6    1.403161 A    
C26   C27   1.488521 S    
H5    C13   1.083829 S    
Zn1   O5    2.002369 S    
C6    C7    1.393446 A    
O5    C3    1.287176 A    
C13   C14   1.397252 A    
H1    C12   1.081501 S    
O2    C1    1.284519 A    
C4    C14   1.439455 S    
C28   H15   1.111853 S    
C7    C8    1.394431 A    
C11   C12   1.397070 A    
C24   H11   1.081354 S    
O3    C2    1.281497 A    
C16   C17   1.402733 A    
O2    Zn2   2.002369 S    
N1    C24   1.350914 A    
C25   N2    1.395563 A    
C15   C20   1.370238 A    
N3    O10   1.299188 A    
C5    H2    1.080148 S    
O1    C1    1.289985 A    
O6    C3    1.286252 A    
C17   C18   1.383939 A    
