data_mof_unit_36872.cif
_audit_creation_date              2013-03-05T15:42:28-0500
_audit_creation_method            fapswitch 2.2
_symmetry_space_group_name_H-M    P1
_symmetry_Int_Tables_number       1
_space_group_crystal_system       triclinic
_cell_length_a                    7.746302
_cell_length_b                    8.570625
_cell_length_c                    23.459177
_cell_angle_alpha                 90.942588
_cell_angle_beta                  86.158657
_cell_angle_gamma                 93.837875
_cell_volume                      1550.37407809

loop_
_atom_site_label
_atom_site_type_symbol
_atom_site_description
_atom_site_fract_x
_atom_site_fract_y
_atom_site_fract_z
_atom_type_partial_charge
O1    O     O_R   0.389250 0.738570 0.503790 -0.617688
O2    O     O_R   0.610750 0.261430 0.496210 -0.617690
O3    O     O_R   0.678390 0.711620 0.493890 -0.616553
O4    O     O_R   0.321610 0.288380 0.506110 -0.616653
C1    C     C_R   0.545984 0.794842 0.498512 0.980348
C2    C     C_R   0.454016 0.205157 0.501489 0.980232
O5    O     O_R   0.355400 0.513520 0.588790 -0.602035
O6    O     O_R   0.644600 0.486480 0.411210 -0.601833
O7    O     O_R   0.644550 0.486570 0.578900 -0.597314
O8    O     O_R   0.355450 0.513430 0.421100 -0.597279
C3    C     C_R   0.503514 0.503728 0.610494 0.924352
C4    C     C_R   0.496488 0.496299 0.389506 0.924158
Zn1   Zn    Zn3+2 0.306930 0.518000 0.506610 1.025704
Zn2   Zn    Zn3+2 0.693070 0.482000 0.493390 1.025800
C5    C     C_R   0.446331 0.366255 0.119950 0.622343
C6    C     C_R   0.553426 0.634063 0.880060 0.622355
N1    N     N_R   0.484873 0.503911 0.148105 -0.372302
N2    N     N_R   0.514925 0.496398 0.851905 -0.372310
C7    C     C_R   0.528138 0.640312 0.119627 0.618148
C8    C     C_R   0.471664 0.359998 0.880384 0.618128
C9    C     C_R   0.539273 0.641315 0.059837 -0.210522
C10   C     C_R   0.460490 0.359005 0.940174 -0.210514
C11   C     C_R   0.496388 0.501026 0.030068 -0.172376
C12   C     C_R   0.503360 0.499297 0.969943 -0.172376
C13   C     C_R   0.446778 0.362400 0.060291 -0.211002
C14   C     C_R   0.552966 0.637923 0.939720 -0.211001
C15   C     C_R   0.592801 0.777836 0.029181 0.636095
C16   C     C_R   0.406947 0.222487 0.970829 0.636105
C17   C     C_R   0.599629 0.776150 0.969812 0.635310
C18   C     C_R   0.400106 0.224175 0.030198 0.635298
O9    O     O_2   0.410720 0.233376 0.149811 -0.416014
O10   O     O_2   0.589013 0.766945 0.850199 -0.415970
O11   O     O_2   0.558949 0.774276 0.149388 -0.421055
O12   O     O_2   0.440900 0.226023 0.850625 -0.421045
C19   C     C_R   0.362694 0.452088 0.764661 -0.054031
C20   C     C_R   0.637209 0.548110 0.235334 -0.054236
H1    H     H_    0.245447 0.414954 0.789938 0.173404
H2    H     H_    0.754445 0.585228 0.210048 0.173420
C21   C     C_R   0.360966 0.455382 0.705740 -0.182242
C22   C     C_R   0.639001 0.544736 0.294253 -0.182239
H3    H     H_    0.242768 0.416115 0.686133 0.212375
H4    H     H_    0.757218 0.583959 0.313854 0.212708
C23   C     C_R   0.510252 0.507503 0.672477 -0.176362
C24   C     C_R   0.489733 0.492617 0.327523 -0.176471
C25   C     C_R   0.663341 0.558007 0.699109 0.300371
C26   C     C_R   0.336589 0.442274 0.300901 0.300665
C27   C     C_R   0.665542 0.546309 0.758276 -0.138342
C28   C     C_R   0.334315 0.454031 0.241743 -0.138359
H5    H     H_    0.782004 0.582972 0.779354 0.191247
H6    H     H_    0.217790 0.417465 0.220683 0.191055
C29   C     C_R   0.515180 0.496110 0.791031 0.184147
C30   C     C_R   0.484673 0.504177 0.208976 0.184227
C31   C     C_2   0.570162 0.958408 0.497690 -0.331468
C32   C     C_2   0.429838 0.041592 0.502310 -0.331534
H7    H     H_    0.702555 0.009818 0.493308 0.191518
H8    H     H_    0.297445 0.990182 0.506692 0.191526
N3    N     N_2   0.950330 0.457950 0.484560 -0.165706
N4    N     N_2   0.049670 0.542050 0.515440 -0.165823
H9    H     H_    0.013590 0.381748 0.457471 0.243200
H10   H     H_    0.986411 0.618251 0.542529 0.243130
F1    F     F_    0.642252 0.913265 0.056208 -0.534393
F2    F     F_    0.357494 0.087059 0.943802 -0.534384
F3    F     F_    0.655308 0.910068 0.942165 -0.535483
F4    F     F_    0.344419 0.090259 0.057845 -0.535493
N5    N     N_R   0.812068 0.630655 0.667653 0.213528
O13   O     O_R   0.792167 0.741963 0.632060 -0.395469
O14   O     O_R   0.967302 0.608337 0.682542 -0.401601
N6    N     N_R   0.187816 0.369800 0.332370 0.213622
O15   O     O_R   0.207474 0.258046 0.367800 -0.395336
O16   O     O_R   0.032608 0.393121 0.317737 -0.402018

loop_
_geom_bond_atom_site_label_1
_geom_bond_atom_site_label_2
_geom_bond_distance
_ccdc_geom_bond_type
O5    Zn1   1.990099 S    
C19   C21   1.383953 A    
O7    Zn2   2.016230 S    
C17   F3    1.358220 S    
C32   H8    1.087822 S    
C5    O9    1.349850 S    
C18   F4    1.358220 S    
C15   C17   1.390092 A    
C23   C25   1.416210 A    
C22   H4    1.083129 S    
C20   C30   1.396765 A    
O6    C4    1.294327 A    
C11   C12   1.407785 A    
C8    O12   1.349796 S    
C16   C18   1.390084 A    
C9    C15   1.407466 A    
C19   H1    1.083120 S    
C27   H5    1.083431 S    
C10   C16   1.407463 A    
C31   C32   1.336786 D    
O5    C3    1.294305 A    
O7    C3    1.293808 A    
C12   C14   1.411400 A    
N3    N4    1.272689 D    
O2    C2    1.274928 A    
O3    Zn2   1.978651 S    
O8    C4    1.293789 A    
C2    C32   1.402109 S    
O1    C1    1.274928 A    
C6    C14   1.399183 A    
N1    C30   1.427859 S    
C28   H6    1.083437 S    
C7    C9    1.399625 A    
C8    C10   1.399617 A    
N2    C29   1.427873 S    
C28   C30   1.398586 A    
N2    C8    1.366956 A    
C31   H7    1.087822 S    
C9    C11   1.411990 A    
C19   C29   1.396740 A    
O2    Zn2   1.954941 S    
C10   C12   1.411987 A    
C3    C23   1.458257 S    
C5    C13   1.399173 A    
O4    C2    1.285674 A    
N3    H9    1.028577 S    
Zn2   N3    2.013696 S    
N4    H10   1.028572 S    
C20   H2    1.083116 S    
C26   C28   1.394487 A    
C22   C24   1.402521 A    
C11   C13   1.411401 A    
O1    Zn1   1.954941 S    
C21   H3    1.083158 S    
C14   C17   1.407784 A    
C6    N2    1.367829 A    
N5    O13   1.301615 A    
C7    O11   1.349794 S    
C25   C27   1.394574 A    
C1    C31   1.402109 S    
C13   C18   1.407783 A    
C5    N1    1.367823 A    
N6    O16   1.301159 A    
C6    O10   1.349851 S    
C4    C24   1.458256 S    
C20   C22   1.383989 A    
O6    Zn2   1.990099 S    
Zn1   N4    2.013698 S    
C15   F1    1.358234 S    
N1    C7    1.366947 A    
C26   N6    1.436733 S    
C21   C23   1.402555 A    
C25   N5    1.436908 S    
N5    O14   1.301475 A    
C27   C29   1.398601 A    
O4    Zn1   1.978651 S    
C24   C26   1.416122 A    
N6    O15   1.301570 A    
O3    C1    1.285675 A    
O8    Zn1   2.016230 S    
C16   F2    1.358234 S    
