data_mof_unit_27892.cif
_audit_creation_date              2012-12-11T20:22:15-0500
_audit_creation_method            fapswitch 2.2
_symmetry_space_group_name_H-M    P1
_symmetry_Int_Tables_number       1
_space_group_crystal_system       triclinic
_cell_length_a                    8.326691
_cell_length_b                    17.392292
_cell_length_c                    27.028657
_cell_angle_alpha                 99.621557
_cell_angle_beta                  92.401945
_cell_angle_gamma                 81.496541
_cell_volume                      3816.21680032

loop_
_atom_site_label
_atom_site_type_symbol
_atom_type_description
_atom_site_fract_x
_atom_site_fract_y
_atom_site_fract_z
_atom_type_partial_charge
Ba1   Ba    Ba6+2 0.860160 0.462360 0.521850 1.765703
Ba2   Ba    Ba6+2 0.329680 0.537570 0.478140 1.821615
C1    C     C_3   0.786739 0.174181 0.622011 0.206511
C2    C     C_R   0.809600 0.501668 0.165414 0.719337
C3    C     C_2   0.774344 0.571287 0.274703 0.276365
C4    C     C_3   0.171533 0.281262 0.652897 0.415305
C5    C     C_3   0.743570 0.588788 0.330606 -0.232923
C6    C     C_1   0.975169 0.483960 0.341811 0.018157
C7    C     C_2   0.984786 0.461811 0.291424 0.265429
C8    C     C_2   0.890976 0.511385 0.255777 0.225296
C9    C     C_R   0.008049 0.492601 0.100033 -0.098935
C10   C     C_R   0.131277 0.477370 0.135665 -0.121871
C11   C     C_R   0.289471 0.450499 0.118888 0.017897
C12   C     C_3   0.683360 0.248457 0.648905 0.641850
C13   C     C_R   0.845880 0.506961 0.115531 -0.046685
C14   C     C_2   0.860826 0.541470 0.362442 0.122258
C15   C     C_2   0.336386 0.464693 0.635873 -0.329905
C16   C     C_3   0.153072 0.250924 0.701781 0.251278
C17   C     C_R   0.248115 0.473790 0.981910 -0.027400
C18   C     C_R   0.960497 0.518728 0.963903 -0.036060
C19   C     C_R   0.122890 0.496383 0.947534 0.051787
C20   C     C_R   0.409364 0.460947 0.964897 -0.107554
C21   C     C_R   0.447074 0.460838 0.915133 0.405041
C22   C     C_R   0.323258 0.482637 0.880575 -0.095739
C23   C     C_3   0.500167 0.638213 0.632623 0.332192
C24   C     C_R   0.160962 0.498182 0.896465 -0.161394
C25   C     C_R   0.037032 0.516842 0.861294 -0.110692
C26   C     C_R   0.075345 0.503852 0.809386 0.582221
C27   C     C_R   0.356741 0.492899 0.831242 0.696375
C28   C     C_3   0.235720 0.292382 0.406095 0.724553
C29   C     C_2   0.407186 0.427249 0.722366 0.360244
C30   C     C_3   0.443474 0.411546 0.666153 -0.151279
C31   C     C_1   0.208074 0.511939 0.655681 0.032771
C32   C     C_2   0.176410 0.525407 0.704446 -0.118874
C33   C     C_2   0.277460 0.480635 0.740760 0.187775
C34   C     C_3   0.491994 0.651182 0.690049 0.643831
C35   C     C_R   0.209265 0.467990 0.032421 -0.042443
C36   C     C_R   0.046797 0.492533 0.048853 0.038974
C37   C     C_R   0.921773 0.515883 0.014628 0.057698
C38   C     C_R   0.324915 0.437848 0.067813 0.339214
C39   C     C_R   0.723276 0.526923 0.081034 -0.004782
C40   C     C_3   0.235024 0.203786 0.388906 0.625716
C41   C     C_R   0.842961 0.546233 0.929183 -0.009245
C42   C     C_R   0.878860 0.546203 0.879176 0.465621
C43   C     C_R   0.760739 0.534161 0.032417 -0.074680
C44   C     C_2   0.460780 0.282367 0.520610 -0.218643
C45   C     C_3   0.019701 0.717349 0.351490 0.716179
C46   C     C_3   0.382175 0.230419 0.549116 -0.033708
C47   C     C_2   0.428777 0.144315 0.531494 0.042634
C48   C     C_2   0.559320 0.117788 0.502232 0.070981
C49   C     C_2   0.642142 0.176319 0.481813 -0.108731
C50   C     C_1   0.581421 0.252359 0.489488 0.050009
C51   C     C_R   0.792989 0.864460 0.481854 -0.073756
C52   C     C_3   0.993235 0.713873 0.600810 0.667003
C53   C     C_R   0.853302 0.784437 0.477096 -0.022502
C54   C     C_R   0.625341 0.762467 0.523172 0.090277
C55   C     C_R   0.564687 0.842629 0.528617 -0.071736
C56   C     C_3   0.991887 0.754225 0.303671 -0.371784
C57   C     C_R   0.648060 0.894263 0.507841 0.036768
C58   C     C_2   0.620442 0.032134 0.489692 -0.029394
C59   C     C_2   0.587498 0.979412 0.517944 -0.030915
C60   C     C_R   0.769857 0.734228 0.497903 -0.269847
C61   C     C_3   0.071106 0.789789 0.608563 0.269855
C62   C     C_3   0.674173 0.339040 0.357594 0.931511
C63   C     C_3   0.584521 0.317455 0.306858 0.665147
C64   C     C_3   0.466545 0.762876 0.364222 0.985631
C65   C     C_3   0.383575 0.835593 0.342099 0.642902
C66   C     C_R   0.092548 0.486299 0.187138 0.652490
H1    H     H_    0.605068 0.592328 0.621131 0.015066
H2    H     H_    0.438021 0.174216 0.353365 0.299040
H3    H     H_    0.283828 0.105903 0.415127 0.324000
H4    H     H_    0.106683 0.193304 0.381688 0.061476
H5    H     H_    0.807717 0.748746 0.644527 0.352545
H6    H     H_    0.017172 0.684101 0.561666 -0.051613
H7    H     H_    0.934609 0.870214 0.652848 0.316515
H8    H     H_    0.028317 0.825138 0.578512 -0.032721
H9    H     H_    0.204476 0.774648 0.605767 0.083530
H10   H     H_    0.884453 0.278164 0.339527 0.320532
H11   H     H_    0.650398 0.450991 0.359202 0.286720
H12   H     H_    0.212189 0.287954 0.732800 0.051977
H13   H     H_    0.824753 0.185827 0.585412 0.089759
H14   H     H_    0.616942 0.203045 0.298616 0.292337
H15   H     H_    0.518605 0.363729 0.247528 0.347344
H16   H     H_    0.453985 0.316688 0.314433 -0.031373
H17   H     H_    0.715113 0.222606 0.716164 0.300217
H18   H     H_    0.701768 0.087547 0.643828 0.335854
H19   H     H_    0.387425 0.616830 0.616386 -0.085722
H20   H     H_    0.362195 0.754991 0.700589 0.361457
H21   H     H_    0.487724 0.593474 0.702200 -0.014358
H22   H     H_    0.722129 0.639752 0.707099 0.302024
H23   H     H_    0.904609 0.701284 0.361897 -0.027863
H24   H     H_    0.897493 0.158328 0.644771 0.092142
H25   H     H_    0.095124 0.613686 0.314091 0.254230
H26   H     H_    0.929358 0.715776 0.274564 0.105023
H27   H     H_    0.915443 0.812711 0.311755 0.107089
H28   H     H_    0.663647 0.757417 0.327043 0.274042
H29   H     H_    0.502451 0.742341 0.432501 0.285054
H30   H     H_    0.549453 0.905220 0.355065 0.327928
H31   H     H_    0.250935 0.842392 0.347834 0.071791
H32   H     H_    0.114831 0.343999 0.657118 -0.026749
H33   H     H_    0.343598 0.870314 0.277667 0.321014
H34   H     H_    0.109349 0.761450 0.288421 0.150291
H35   H     H_    0.162337 0.375310 0.289075 0.323368
H36   H     H_    0.383449 0.431221 0.144920 0.179252
H37   H     H_    0.601916 0.363727 0.741091 0.346325
H38   H     H_    0.605514 0.403318 0.867196 0.350424
H39   H     H_    0.511574 0.450155 0.989514 0.149498
H40   H     H_    0.440235 0.352147 0.023071 0.314087
H41   H     H_    0.617911 0.661078 0.263271 0.331119
H42   H     H_    0.597299 0.539958 0.092090 0.121521
H43   H     H_    0.720740 0.570941 0.939879 0.115286
H44   H     H_    0.303761 0.276985 0.646858 -0.024898
H45   H     H_    0.750625 0.155688 0.459680 0.075745
H46   H     H_    0.808258 0.607891 0.826875 0.335259
H47   H     H_    0.084407 0.573971 0.719065 0.138093
H48   H     H_    0.659031 0.553285 0.009497 0.060662
H49   H     H_    0.786321 0.613990 0.420959 0.268212
H50   H     H_    0.362131 0.459463 0.596381 0.085233
H51   H     H_    0.514025 0.998601 0.551059 0.099565
H52   H     H_    0.358436 0.104927 0.545231 0.061710
H53   H     H_    0.022490 0.255379 0.710413 0.048966
H54   H     H_    0.435495 0.345380 0.532987 0.033489
H55   H     H_    0.822092 0.673455 0.497025 0.080768
H56   H     H_    0.863212 0.903049 0.467346 0.067630
H57   H     H_    0.211590 0.156125 0.730472 0.315636
H58   H     H_    0.361998 0.305187 0.408057 -0.139250
H59   H     H_    0.221639 0.353843 0.472560 0.269955
H60   H     H_    0.696492 0.013019 0.457061 0.074921
H61   H     H_    0.454209 0.864717 0.549332 0.067458
H62   H     H_    0.579943 0.261861 0.623223 -0.036284
N1    N     N_R   0.931647 0.498390 0.202091 -0.400338
N2    N     N_R   0.235656 0.493055 0.794384 -0.419255
O1    O     O_2   0.906370 0.542040 0.619810 -0.461819
O2    O     O_2   0.183868 0.780372 0.481579 -0.451367
O3    O     O_3   0.074586 0.772668 0.390019 -0.581038
O4    O     O_3   0.138370 0.541980 0.559630 -0.502910
O5    O     O_3   0.572820 0.404940 0.471170 -0.444587
O6    O     O_2   0.345130 0.693150 0.532000 -0.494573
O7    O     O_3   0.517885 0.709091 0.616462 -0.613714
O8    O     O_2   0.432013 0.540402 0.322735 -0.388129
O9    O     O_3   0.414175 0.693794 0.336434 -0.581056
O10   O     O_2   0.202549 0.484268 0.218460 -0.552755
O11   O     O_2   0.492549 0.503634 0.821389 -0.482334
O12   O     O_3   0.651275 0.284403 0.388788 -0.717163
O13   O     O_2   0.669137 0.500006 0.176126 -0.524758
O14   O     O_2   0.966339 0.499468 0.777841 -0.552562
O15   O     O_3   0.686580 0.398330 0.583860 -0.488611
O16   O     O_2   0.754618 0.465957 0.676135 -0.452974
O17   O     O_3   0.059076 0.666959 0.636008 -0.616338
O18   O     O_3   0.777630 0.311064 0.660579 -0.637408
O19   O     O_2   0.844570 0.306830 0.467970 -0.404518
O20   O     O_3   0.101900 0.357890 0.557750 -0.471261
O21   O     O_2   0.057345 0.213898 0.514787 -0.437164
O22   O     O_3   0.320856 0.178086 0.344156 -0.730781
O23   O     O_3   0.095241 0.236247 0.613078 -0.607994
O24   O     O_3   0.302258 0.161286 0.426337 -0.779052
O25   O     O_3   0.826278 0.733258 0.607926 -0.784754
O26   O     O_3   0.036991 0.834020 0.656271 -0.685290
O27   O     O_3   0.840145 0.334682 0.349244 -0.721688
O28   O     O_3   0.610578 0.415707 0.379195 -0.679465
O29   O     O_3   0.653519 0.243421 0.281568 -0.688670
O30   O     O_3   0.595016 0.374145 0.276239 -0.685523
O31   O     O_3   0.621434 0.232143 0.692911 -0.709578
O32   O     O_3   0.696367 0.111175 0.612708 -0.748433
O33   O     O_3   0.349856 0.701371 0.706525 -0.675809
O34   O     O_2   0.283330 0.457940 0.380160 -0.457723
O35   O     O_3   0.628878 0.682879 0.712016 -0.679862
O36   O     O_3   0.134302 0.649181 0.343185 -0.654687
O37   O     O_3   0.635500 0.760138 0.362587 -0.845579
O38   O     O_3   0.417910 0.772891 0.414119 -0.681162
O39   O     O_3   0.438783 0.904693 0.367194 -0.725672
O40   O     O_3   0.412174 0.825792 0.290376 -0.768590
O41   O     O_3   0.061260 0.388522 0.269926 -0.640207
O42   O     O_3   0.490218 0.379255 0.753534 -0.695186
O43   O     O_3   0.605826 0.434372 0.901428 -0.709309
O44   O     O_3   0.465618 0.387912 0.054090 -0.721169
O45   O     O_3   0.051340 0.457960 0.440360 -0.391039
O46   O     O_3   0.701363 0.622856 0.243968 -0.691215
O47   O     O_3   0.757751 0.580374 0.850076 -0.632861
O48   O     O_3   0.847955 0.560570 0.413685 -0.668682
O49   O     O_3   0.227031 0.172444 0.697727 -0.675688
O50   O     O_3   0.161377 0.313773 0.452726 -0.686647
O51   O     O_3   0.503130 0.601610 0.416130 -0.435088
O52   O     O_3   0.148240 0.331358 0.370015 -0.638663
O53   O     O_3   0.616890 0.595000 0.528820 -0.459486
O54   O     O_3   0.087820 0.642040 0.442240 -0.425550
P1    P     P_3+3 0.071770 0.565500 0.613330 1.026977
P2    P     P_3+3 0.664870 0.318630 0.453960 1.072059
P3    P     P_3+3 0.158427 0.257876 0.556777 1.019279
P4    P     P_3+3 0.117940 0.434440 0.386660 1.147011
P5    P     P_3+3 0.049448 0.744886 0.448229 1.042189
P6    P     P_3+3 0.663987 0.399482 0.648037 0.958786
P7    P     P_3+3 0.526776 0.692307 0.550864 1.005197
P8    P     P_3+3 0.524451 0.605586 0.351767 1.102960

loop_
_geom_bond_atom_site_label_1
_geom_bond_atom_site_label_2
_ccdc_geom_bond_type
C34   H21   S    
O16   P6    D    
C19   C24   A    
C28   H58   S    
C44   C50   D    
H22   O35   S    
C59   H51   S    
C64   O37   S    
C23   H19   S    
C41   C42   A    
C51   C57   A    
C64   O9    S    
O21   P3    D    
C10   C66   A    
C24   C25   A    
C49   H45   S    
C15   C31   D    
H33   O40   S    
C55   H61   S    
O9    P8    S    
C17   C19   A    
C22   C24   A    
Ba1   Ba2   S    
C35   C38   A    
O12   P2    S    
C36   C37   A    
C55   C57   A    
C27   N2    Am   
C21   O43   S    
C52   C61   S    
H3    O24   S    
C20   H39   S    
C27   O11   D    
C53   C60   A    
H5    O25   S    
H35   O41   S    
O51   P8    S    
C54   C55   A    
C30   P6    S    
Ba1   O20   S    
C32   C33   S    
O54   P5    S    
C47   C48   D    
C22   C27   A    
C11   C38   A    
O23   P3    S    
C52   H6    S    
C9    C13   A    
C25   C42   A    
H25   O36   S    
C6    P4    S    
C6    C7    D    
C63   O30   S    
C1    H13   S    
C21   C22   A    
C66   O10   D    
C56   H34   S    
Ba2   O45   S    
C52   O17   S    
Ba1   O4    S    
C17   C35   A    
C7    C8    S    
Ba2   O34   S    
C4    O23   S    
H49   O48   S    
C65   H31   S    
C37   C43   A    
O5    P2    S    
C11   H36   S    
Ba1   P1    S    
C64   C65   S    
C6    C14   D    
C28   O50   S    
C62   O28   S    
C41   H43   S    
Ba1   O1    S    
H41   O46   S    
C42   O47   S    
C60   H55   S    
C48   C49   S    
C2    N1    Am   
C51   C53   A    
O19   P2    D    
C4    C16   S    
C44   C46   S    
C57   C59   S    
H57   O49   S    
C49   C50   D    
Ba2   O6    S    
Ba2   P4    S    
C58   H60   S    
C17   C20   A    
C13   C39   A    
H11   O28   S    
C38   O44   S    
C18   C37   A    
C63   H16   S    
C62   O12   S    
C16   O49   S    
C65   O39   S    
C32   H47   S    
C34   O35   S    
Ba2   O4    S    
H29   O38   S    
C28   O52   S    
C1    H24   S    
O34   P4    D    
C4    H32   S    
O2    P5    D    
C66   N1    Am   
C40   O24   S    
C56   H27   S    
Ba2   O54   S    
C35   C36   A    
C29   C30   S    
O15   P6    S    
H38   O43   S    
C12   O18   S    
O20   P3    S    
C40   H4    S    
C31   C32   D    
C44   H54   S    
C31   P1    S    
C18   C19   A    
C5    P8    S    
C7    O41   S    
C23   O7    S    
O3    P5    S    
C46   P3    S    
C1    C12   S    
C15   H50   S    
H30   O39   S    
C1    O32   S    
H7    O26   S    
C46   C47   S    
C40   O22   S    
H15   O30   S    
O17   P1    S    
H37   O42   S    
O4    P1    S    
H17   O31   S    
C54   C60   A    
Ba1   O15   S    
C23   H1    S    
C18   C41   A    
Ba1   O5    S    
C3    C5    S    
C61   H9    S    
Ba1   P2    S    
C15   C30   S    
C12   H62   S    
C5    C14   S    
O52   P4    S    
O45   P4    S    
C45   O3    S    
H2    O22   S    
Ba2   O5    S    
C45   H23   S    
C64   O38   S    
C28   C40   S    
C39   H42   S    
C8    N1    S    
O53   P7    S    
C51   H56   S    
C12   O31   S    
C9    C10   A    
H14   O29   S    
Ba1   O53   S    
C65   O40   S    
O6    P7    D    
C16   H53   S    
C26   O14   D    
H28   O37   S    
C48   C58   S    
C62   C63   S    
C2    C13   A    
C56   H26   S    
Ba2   O53   S    
C3    C8    D    
H20   O33   S    
C52   O25   S    
C45   O36   S    
C43   H48   S    
O8    P8    D    
C2    O13   D    
H40   O44   S    
C62   O27   S    
C34   O33   S    
Ba1   O19   S    
C29   C33   D    
Ba2   O51   S    
C3    O46   S    
O1    P1    D    
C23   C34   S    
O18   P6    S    
C54   P7    S    
C47   H52   S    
O7    P7    S    
H10   O27   S    
H18   O32   S    
C10   C11   A    
C16   H12   S    
H46   O47   S    
C61   H8    S    
C63   O29   S    
C25   C26   A    
H59   O50   S    
C39   C43   A    
C20   C21   A    
C58   C59   D    
C9    C36   A    
C4    H44   S    
C50   P2    S    
C61   O26   S    
C26   N2    Am   
Ba1   O45   S    
C33   N2    S    
C14   O48   S    
C53   P5    S    
C45   C56   S    
C29   O42   S    
