data_mof_unit_57994.cif
_audit_creation_date              2013-03-05T15:49:33-0500
_audit_creation_method            fapswitch 2.2
_symmetry_space_group_name_H-M    P1
_symmetry_Int_Tables_number       1
_space_group_crystal_system       triclinic
_cell_length_a                    24.964962
_cell_length_b                    7.232377
_cell_length_c                    21.969325
_cell_angle_alpha                 89.996533
_cell_angle_beta                  110.182628
_cell_angle_gamma                 90.000803
_cell_volume                      3723.12958199

loop_
_atom_site_label
_atom_site_type_symbol
_atom_site_description
_atom_site_fract_x
_atom_site_fract_y
_atom_site_fract_z
_atom_type_partial_charge
O1    O     O_R   0.554350 0.505270 0.581390 -0.582511
O2    O     O_R   0.445650 0.005270 0.418610 -0.582045
O3    O     O_R   0.553380 0.177580 0.454800 -0.602599
O4    O     O_R   0.446620 0.677580 0.545200 -0.602660
C1    C     C_R   0.567174 0.345664 0.439641 0.945191
C2    C     C_R   0.432839 0.845653 0.560373 0.944712
O5    O     O_R   0.560970 0.175640 0.583140 -0.566808
O6    O     O_R   0.439030 0.675640 0.416860 -0.567009
O7    O     O_R   0.453290 0.004120 0.547860 -0.578981
O8    O     O_R   0.546710 0.504120 0.452140 -0.579341
C3    C     C_R   0.576418 0.344130 0.607504 1.002312
C4    C     C_R   0.423571 0.844138 0.392507 1.001268
O9    O     O_3   0.464660 0.338800 0.488280 -0.291882
O10   O     O_3   0.535340 0.838800 0.511720 -0.292142
V1    V     V_3+5 0.506560 0.064420 0.502170 1.193850
V2    V     V_3+5 0.493440 0.564420 0.497830 1.193644
C5    C     C_R   0.141532 0.859182 0.286933 0.193885
C6    C     C_R   0.858442 0.359395 0.713058 0.193921
H1    H     H_    0.056687 0.872850 0.215337 0.128877
H2    H     H_    0.943291 0.373169 0.784641 0.128872
C7    C     C_R   0.119608 0.934537 0.172915 -0.150330
C8    C     C_R   0.880370 0.434554 0.827091 -0.150249
C9    C     C_R   0.397965 0.845275 0.272713 0.309575
C10   C     C_R   0.602006 0.345239 0.727339 0.308887
C11   C     C_R   0.357982 0.831041 0.209159 -0.106481
C12   C     C_R   0.642033 0.330756 0.790886 -0.106370
C13   C     C_R   0.298715 0.827864 0.199209 0.273764
C14   C     C_R   0.701293 0.327428 0.800785 0.273298
C15   C     C_R   0.279084 0.863879 0.251897 -0.057984
C16   C     C_R   0.720897 0.363737 0.748104 -0.057625
C17   C     C_R   0.320046 0.863028 0.316035 0.010627
C18   C     C_R   0.679924 0.363015 0.683979 0.010620
C19   C     C_R   0.219663 0.891022 0.243179 0.084297
C20   C     C_R   0.780317 0.390953 0.756825 0.084353
C21   C     C_R   0.201293 0.879611 0.297768 -0.046313
C22   C     C_R   0.798681 0.379729 0.702232 -0.046356
C23   C     C_R   0.243086 0.890009 0.360632 0.313350
C24   C     C_R   0.756883 0.390191 0.639373 0.313444
C25   C     C_R   0.301026 0.877853 0.368918 -0.283980
C26   C     C_R   0.698941 0.377988 0.631092 -0.284098
C27   C     C_R   0.178000 0.936660 0.182225 -0.110308
C28   C     C_R   0.821977 0.436477 0.817793 -0.110177
C29   C     C_R   0.102004 0.888854 0.224514 -0.203187
C30   C     C_R   0.897973 0.389061 0.775476 -0.203174
C31   C     C_R   0.379466 0.851185 0.326327 -0.326356
C32   C     C_R   0.620502 0.351137 0.673701 -0.326732
H3    H     H_    0.189995 0.976120 0.141387 0.156316
H4    H     H_    0.809973 0.475688 0.858649 0.156173
H5    H     H_    0.331485 0.886347 0.417750 0.119002
H6    H     H_    0.668481 0.386566 0.582263 0.118929
C33   C     C_R   0.097910 0.791054 0.855532 -0.231525
C34   C     C_R   0.902095 0.291042 0.144477 -0.231508
H7    H     H_    0.063453 0.692801 0.848010 0.170121
H8    H     H_    0.936550 0.192784 0.151999 0.170112
C35   C     C_R   0.134755 0.771502 0.819940 0.364101
C36   C     C_R   0.865255 0.271506 0.180077 0.364093
C37   C     C_R   0.180250 0.898890 0.829688 -0.247569
C38   C     C_R   0.819765 0.398907 0.170329 -0.247582
C39   C     C_R   0.187908 0.043497 0.875893 0.375255
C40   C     C_R   0.812101 0.543503 0.124114 0.375233
C41   C     C_R   0.149969 0.058898 0.910618 -0.191764
C42   C     C_R   0.850035 0.558891 0.089381 -0.192038
H9    H     H_    0.155682 0.169254 0.945636 0.182669
H10   H     H_    0.844319 0.669244 0.054357 0.182654
C43   C     C_R   0.104900 0.933874 0.900748 -0.209525
C44   C     C_R   0.895102 0.433860 0.099253 -0.209429
N1    N     N_R   0.274316 0.852546 0.817024 -0.027163
N2    N     N_R   0.725713 0.352483 0.183018 -0.027233
N3    N     N_R   0.307214 0.842118 0.780370 -0.044925
N4    N     N_R   0.692822 0.342068 0.219682 -0.044931
C45   C     C_R   0.284400 0.864599 0.714997 0.247077
C46   C     C_R   0.715639 0.364672 0.285047 0.247158
N5    N     N_R   0.227358 0.894333 0.687753 0.007738
N6    N     N_R   0.772675 0.394519 0.312278 0.007705
N7    N     N_R   0.194471 0.903971 0.724234 -0.012219
N8    N     N_R   0.805557 0.404140 0.275788 -0.012231
C47   C     C_R   0.217346 0.885115 0.789613 0.324559
C48   C     C_R   0.782677 0.385157 0.210415 0.324568
C49   C     C_R   0.357472 0.716472 0.677353 -0.109648
C50   C     C_R   0.642624 0.216431 0.322754 -0.110282
H11   H     H_    0.359503 0.602689 0.710035 0.203345
H12   H     H_    0.640626 0.102591 0.290112 0.203392
C51   C     C_R   0.391487 0.711463 0.638725 -0.136855
C52   C     C_R   0.608618 0.211391 0.361389 -0.136081
H13   H     H_    0.418810 0.592486 0.642668 0.194225
H14   H     H_    0.581362 0.092287 0.357519 0.194459
C53   C     C_R   0.391933 0.858277 0.597031 -0.184288
C54   C     C_R   0.608104 0.358302 0.403011 -0.184239
C55   C     C_R   0.355252 0.014987 0.593128 0.054701
C56   C     C_R   0.644750 0.515085 0.406876 0.054555
C57   C     C_R   0.319979 0.015761 0.632643 0.393981
C58   C     C_R   0.680027 0.515873 0.367364 0.394040
C59   C     C_R   0.321093 0.865381 0.674167 -0.090565
C60   C     C_R   0.678952 0.365437 0.325884 -0.090349
O11   O     O_R   0.953220 0.285790 0.047790 -0.583941
O12   O     O_R   0.046780 0.785790 0.952210 -0.583925
O13   O     O_R   0.939020 0.617570 0.916840 -0.587009
O14   O     O_R   0.060980 0.117570 0.083160 -0.587059
C61   C     C_R   0.923878 0.448142 0.892555 0.931958
C62   C     C_R   0.076112 0.948139 0.107450 0.932074
O15   O     O_R   0.946600 0.615450 0.045180 -0.594633
O16   O     O_R   0.053400 0.115450 0.954820 -0.594631
O17   O     O_R   0.054370 0.786770 0.081410 -0.571830
O18   O     O_R   0.945630 0.286770 0.918590 -0.571806
C63   C     C_R   0.934203 0.446678 0.061445 0.969201
C64   C     C_R   0.065797 0.946685 0.938555 0.969301
O19   O     O_3   0.035300 0.454160 0.011680 -0.274238
O20   O     O_3   0.964700 0.954160 0.988320 -0.274236
V3    V     V_3+5 0.993450 0.728620 0.997830 1.210695
V4    V     V_3+5 0.006550 0.228620 0.002170 1.210677
N9    N     N_R   0.125701 0.619589 0.775016 0.241674
O21   O     O_R   0.168713 0.533422 0.767426 -0.328932
O22   O     O_R   0.074651 0.552738 0.747168 -0.398987
N10   N     N_R   0.874312 0.119597 0.225010 0.241678
O23   O     O_R   0.831301 0.033460 0.232618 -0.328932
O24   O     O_R   0.925359 0.052718 0.252849 -0.398987
N11   N     N_R   0.233066 0.177629 0.887647 0.243374
O25   O     O_R   0.249027 0.236819 0.840632 -0.331790
O26   O     O_R   0.254316 0.256102 0.944237 -0.374196
N12   N     N_R   0.766942 0.677635 0.112355 0.243331
O27   O     O_R   0.750985 0.736831 0.159370 -0.331795
O28   O     O_R   0.745686 0.756089 0.055759 -0.374549
C65   C     C_3   0.356502 0.175440 0.547639 -0.385871
C66   C     C_3   0.307587 0.316452 0.527351 -0.206154
C67   C     C_3   0.309215 0.432226 0.469859 -0.840354
H15   H     H_    0.350135 0.508500 0.482420 0.263500
H16   H     H_    0.303869 0.343021 0.426983 0.264759
H17   H     H_    0.273845 0.533383 0.456855 0.276688
H18   H     H_    0.266068 0.244303 0.512493 0.296714
H19   H     H_    0.311308 0.412557 0.567990 0.231107
H20   H     H_    0.396818 0.253833 0.570113 0.230032
H21   H     H_    0.356817 0.112777 0.501645 0.201562
C68   C     C_3   0.643471 0.675584 0.452328 -0.386026
C69   C     C_3   0.692387 0.816592 0.472616 -0.206138
C70   C     C_3   0.690757 0.932385 0.530098 -0.840358
H22   H     H_    0.649835 0.008647 0.517532 0.263437
H23   H     H_    0.696105 0.843195 0.572981 0.264792
H24   H     H_    0.726124 0.033554 0.543092 0.276694
H25   H     H_    0.733905 0.744434 0.487485 0.296756
H26   H     H_    0.688676 0.912679 0.431972 0.230942
H27   H     H_    0.603152 0.753948 0.429824 0.229658
H28   H     H_    0.643143 0.612969 0.498326 0.201673
N13   N     N_R   0.286766 0.174172 0.636051 0.206108
O29   O     O_R   0.232398 0.177204 0.602674 -0.367975
O30   O     O_R   0.307054 0.289378 0.683930 -0.403258
N14   N     N_R   0.713207 0.674332 0.363914 0.206055
O31   O     O_R   0.767571 0.677506 0.397304 -0.368048
O32   O     O_R   0.692920 0.789301 0.315953 -0.403303
N15   N     N_R   0.228329 0.947812 0.415118 0.221706
O33   O     O_R   0.200395 0.101749 0.411300 -0.451512
O34   O     O_R   0.252311 0.871092 0.471552 -0.443622
N16   N     N_R   0.771631 0.448085 0.584890 0.221689
O35   O     O_R   0.799555 0.602048 0.588716 -0.451527
O36   O     O_R   0.747667 0.371364 0.528457 -0.443713
C71   C     C_3   0.117696 0.782030 0.336978 -0.406768
C72   C     C_3   0.137714 0.582835 0.355872 -0.301115
C73   C     C_3   0.116363 0.510946 0.408727 -0.693777
H29   H     H_    0.134004 0.596041 0.453306 0.271873
H30   H     H_    0.069001 0.515098 0.391872 0.250514
H31   H     H_    0.130403 0.365866 0.420743 0.282582
H32   H     H_    0.121214 0.492069 0.312535 0.217506
H33   H     H_    0.184940 0.575096 0.373813 0.217220
H34   H     H_    0.127516 0.870912 0.380218 0.256637
H35   H     H_    0.070233 0.779706 0.317016 0.199900
C74   C     C_3   0.882277 0.282319 0.663004 -0.406795
C75   C     C_3   0.862262 0.083130 0.644099 -0.300996
C76   C     C_3   0.883615 0.011293 0.591242 -0.693860
H36   H     H_    0.865978 0.096429 0.546669 0.271871
H37   H     H_    0.930977 0.015431 0.608101 0.250526
H38   H     H_    0.869570 0.866222 0.579215 0.282552
H39   H     H_    0.878761 0.992332 0.687432 0.217520
H40   H     H_    0.815036 0.075384 0.626155 0.217238
H41   H     H_    0.872449 0.371241 0.619769 0.256636
H42   H     H_    0.929740 0.280004 0.682964 0.199906
N17   N     N_R   0.458023 0.847165 0.283242 0.220438
O37   O     O_R   0.490049 0.708091 0.311440 -0.414334
O38   O     O_R   0.480802 0.988628 0.264840 -0.428663
N18   N     N_R   0.541933 0.347361 0.716847 0.220595
O39   O     O_R   0.509635 0.210124 0.687474 -0.414928
O40   O     O_R   0.519439 0.486878 0.736637 -0.428552
N19   N     N_R   0.260108 0.754842 0.139151 0.223992
O41   O     O_R   0.230830 0.606293 0.139604 -0.388049
O42   O     O_R   0.253180 0.836945 0.084241 -0.419887
N20   N     N_R   0.739912 0.253773 0.860733 0.224059
O43   O     O_R   0.769142 0.105283 0.860055 -0.388090
O44   O     O_R   0.746934 0.335302 0.915758 -0.420052
C77   C     C_3   0.378839 0.805621 0.152270 -0.305957
C78   C     C_3   0.378341 0.990289 0.117531 -0.229613
C79   C     C_3   0.392603 0.962819 0.055967 -0.763327
H43   H     H_    0.435503 0.899228 0.067811 0.253070
H44   H     H_    0.360239 0.872479 0.021338 0.276715
H45   H     H_    0.392593 0.098708 0.032429 0.263281
H46   H     H_    0.335870 0.057481 0.104423 0.246977
H47   H     H_    0.410154 0.085863 0.150346 0.232200
H48   H     H_    0.422730 0.747806 0.168390 0.213748
H49   H     H_    0.352460 0.701051 0.117901 0.226532
C80   C     C_3   0.621252 0.304839 0.847816 -0.305284
C81   C     C_3   0.622016 0.489082 0.882904 -0.228620
C82   C     C_3   0.607922 0.460890 0.944543 -0.763557
H50   H     H_    0.564976 0.397657 0.932736 0.253135
H51   H     H_    0.640266 0.369956 0.978937 0.276687
H52   H     H_    0.608125 0.596473 0.968341 0.263468
H53   H     H_    0.664528 0.555958 0.895981 0.246798
H54   H     H_    0.590241 0.585249 0.850344 0.232231
H55   H     H_    0.577310 0.247448 0.831704 0.213927
H56   H     H_    0.647569 0.199693 0.881970 0.226131

loop_
_geom_bond_atom_site_label_1
_geom_bond_atom_site_label_2
_geom_bond_distance
_ccdc_geom_bond_type
C70   H24   1.105670 S    
C51   C53   1.404824 A    
C75   H40   1.108093 S    
C73   H29   1.111000 S    
C9    C31   1.406344 A    
N13   O30   1.299884 A    
C65   H21   1.109948 S    
C13   C15   1.428064 A    
C80   H55   1.110436 S    
N9    O21   1.301087 A    
O1    C3    1.331432 A    
C50   C52   1.392729 A    
O2    C4    1.331438 A    
C2    O7    1.321580 A    
C5    C29   1.402346 A    
N18   O39   1.301051 A    
C81   H54   1.110447 S    
O3    V1    1.989545 S    
C65   C66   1.534404 S    
C76   H37   1.110835 S    
C8    C28   1.400560 A    
N19   O41   1.301396 A    
O20   V3    1.765249 S    
O5    C3    1.333347 A    
C68   H28   1.109947 S    
C74   C75   1.534401 S    
N6    N8    1.332472 A    
O14   V4    1.997230 S    
C72   C73   1.526373 S    
C21   C23   1.416799 A    
N8    C48   1.357094 A    
C49   C59   1.394891 A    
C77   H48   1.110482 S    
N15   O34   1.300461 A    
C69   H26   1.109803 S    
C77   H49   1.110277 S    
N18   O40   1.300423 A    
C37   C39   1.423710 A    
C9    N17   1.436119 S    
C38   C40   1.423702 A    
N13   O29   1.301404 A    
C15   C19   1.442154 A    
N20   O43   1.301380 A    
C40   C42   1.410706 A    
C33   C43   1.401670 A    
C41   H9    1.083319 S    
C12   C80   1.521936 S    
C42   H10   1.083323 S    
O11   C63   1.329546 A    
O13   C61   1.337897 A    
C7    C29   1.389626 A    
C1    C54   1.505816 S    
C8    C30   1.389642 A    
H1    C29   1.084705 S    
C20   C28   1.422315 A    
N1    C47   1.360126 A    
C67   H17   1.105658 S    
N16   O36   1.300454 A    
O16   C64   1.337776 A    
C81   C82   1.525747 S    
C55   C57   1.434086 A    
C11   C77   1.521853 S    
C57   N13   1.431281 S    
C65   H20   1.111483 S    
N2    N4    1.336075 A    
O5    V1    1.997323 S    
C61   O18   1.330335 A    
C72   H33   1.108081 S    
C82   H50   1.110854 S    
O6    V2    1.997251 S    
C24   C26   1.397023 A    
O15   C63   1.337768 A    
N5    N7    1.332434 A    
C80   H56   1.110283 S    
C80   C81   1.536272 S    
C24   N16   1.430953 S    
H2    C30   1.084701 S    
C6    C74   1.524994 S    
C34   H8    1.083571 S    
N10   O23   1.301086 A    
C76   H38   1.108911 S    
N14   O32   1.299914 A    
N19   O42   1.301403 A    
N2    C48   1.360099 A    
C23   C25   1.396938 A    
C39   C41   1.410713 A    
N3    C45   1.359786 A    
C42   C44   1.400788 A    
C58   N14   1.431285 S    
C16   C18   1.427118 A    
C37   C47   1.485067 S    
C70   H22   1.108832 S    
N17   O38   1.300826 A    
C23   N15   1.430987 S    
C69   H25   1.104414 S    
C45   N5    1.358040 A    
C7    C62   1.476371 S    
C16   C20   1.442175 A    
C55   C65   1.538749 S    
C71   H34   1.102319 S    
C74   H42   1.112682 S    
C57   C59   1.413582 A    
C62   O17   1.330323 A    
C2    C53   1.505764 S    
C78   C79   1.525728 S    
N1    N3    1.336048 A    
O4    V2    1.989610 S    
C79   H45   1.110481 S    
C13   N19   1.439213 S    
C6    C30   1.402365 A    
C82   H52   1.110470 S    
O13   V3    1.997301 S    
C56   C58   1.434118 A    
N17   O37   1.301109 A    
C17   C25   1.402658 A    
O6    C4    1.333314 A    
C58   C60   1.413556 A    
C27   H3    1.077697 S    
C66   H19   1.109816 S    
N9    O22   1.301654 A    
O1    V2    1.984694 S    
C28   H4    1.077726 S    
O2    V1    1.984734 S    
N7    C47   1.357106 A    
C7    C27   1.400484 A    
C46   N6    1.358020 A    
C51   H13   1.082809 S    
C81   H53   1.110177 S    
C54   C56   1.440953 A    
C72   H32   1.111991 S    
C73   H31   1.108899 S    
O14   C62   1.337862 A    
C35   C37   1.420142 A    
C10   N18   1.436658 S    
C68   C69   1.534419 S    
O19   V4    1.765254 S    
O18   V4    1.983550 S    
O16   V4    1.989898 S    
O4    C2    1.336527 A    
C79   H44   1.111038 S    
C39   N11   1.441479 S    
C44   C63   1.486920 S    
C50   C60   1.394835 A    
C5    C71   1.524998 S    
C43   C64   1.486938 S    
C76   H36   1.111004 S    
C34   C44   1.401674 A    
N12   O27   1.301078 A    
N12   O28   1.301608 A    
C82   H51   1.111044 S    
N14   O31   1.301406 A    
C56   C68   1.538726 S    
C1    O8    1.321589 A    
C70   H23   1.111154 S    
O12   C64   1.329545 A    
C8    C61   1.476455 S    
C35   N9    1.441685 S    
O7    V1    1.971651 S    
C18   C32   1.424047 A    
C52   C54   1.404793 A    
C10   C12   1.412768 A    
C4    C31   1.491369 S    
O3    C1    1.336547 A    
O11   V4    1.966936 S    
C78   H46   1.110222 S    
N10   O24   1.301648 A    
C25   H5    1.081666 S    
C14   C16   1.427858 A    
C69   C70   1.527535 S    
C45   C59   1.486873 S    
C71   H35   1.112683 S    
C11   C13   1.419264 A    
O12   V3    1.966903 S    
C12   C14   1.419356 A    
N20   O44   1.301380 A    
O17   V3    1.983587 S    
C19   C27   1.422271 A    
N11   O26   1.301602 A    
C14   N20   1.439311 S    
C46   C60   1.486875 S    
C77   C78   1.536145 S    
C15   C17   1.427223 A    
O8    V2    1.971689 S    
N11   O25   1.301087 A    
C49   C51   1.392775 A    
C67   H15   1.108851 S    
C75   C76   1.526364 S    
C6    C22   1.434996 A    
C26   H6    1.081660 S    
C22   C24   1.416798 A    
C19   C21   1.426516 A    
C50   H12   1.081683 S    
C36   C38   1.420132 A    
C66   H18   1.104423 S    
C40   N12   1.441477 S    
C33   C35   1.404941 A    
C18   C26   1.402752 A    
C49   H11   1.081718 S    
C79   H43   1.110850 S    
C38   C48   1.485054 S    
C78   H47   1.110517 S    
C41   C43   1.400790 A    
C75   H39   1.111996 S    
C9    C11   1.412376 A    
C66   C67   1.527535 S    
N16   O35   1.300965 A    
C20   C22   1.426411 A    
C73   H30   1.110835 S    
C17   C31   1.423939 A    
O9    V2    1.766043 S    
C71   C72   1.534386 S    
C67   H16   1.111152 S    
C53   C55   1.440941 A    
C36   N10   1.441694 S    
O10   V1    1.766038 S    
C52   H14   1.082740 S    
C3    C32   1.491444 S    
N4    C46   1.359770 A    
C68   H27   1.111491 S    
C5    C21   1.435012 A    
C33   H7    1.083572 S    
N15   O33   1.300963 A    
C74   H41   1.102327 S    
O15   V3    1.989833 S    
C34   C36   1.404938 A    
C10   C32   1.406786 A    
