data_mof_unit_25322.cif
_audit_creation_date              2012-12-10T18:10:51-0500
_audit_creation_method            fapswitch 2.2
_symmetry_space_group_name_H-M    P1
_symmetry_Int_Tables_number       1
_space_group_crystal_system       triclinic
_cell_length_a                    12.602487
_cell_length_b                    13.115053
_cell_length_c                    15.704843
_cell_angle_alpha                 90.934292
_cell_angle_beta                  103.015964
_cell_angle_gamma                 82.108374
_cell_volume                      2504.80255501

loop_
_atom_site_label
_atom_site_type_symbol
_atom_type_description
_atom_site_fract_x
_atom_site_fract_y
_atom_site_fract_z
_atom_type_partial_charge
C1    C     C_R   0.438582 0.691192 0.486081 0.883346
C2    C     C_R   0.597129 0.199417 0.502940 -0.057608
C3    C     C_R   0.296811 0.839199 0.491268 -0.318162
C4    C     C_R   0.501158 0.500803 0.661594 0.901494
C5    C     C_R   0.265644 0.945069 0.494997 0.557560
C6    C     C_R   0.342026 0.011379 0.491034 -0.288758
C7    C     C_R   0.446218 0.973357 0.474207 0.010714
C8    C     C_R   0.467579 0.868839 0.453826 0.080923
C9    C     C_R   0.529995 0.035477 0.476753 0.110083
C10   C     C_R   0.624974 0.997880 0.445270 0.176251
C11   C     C_R   0.636174 0.898651 0.412608 -0.258424
C12   C     C_3   0.388691 0.548967 0.028827 0.283510
C13   C     C_R   0.558272 0.834787 0.416565 -0.178945
C14   C     C_R   0.522661 0.133644 0.511393 -0.260535
C15   C     C_R   0.691331 0.162714 0.472540 -0.199273
C16   C     C_R   0.561250 0.308589 0.509130 0.859599
C17   C     C_R   0.398713 0.800755 0.473176 -0.180214
C18   C     C_R   0.086976 0.349030 0.376386 -0.319265
C19   C     C_R   0.799283 0.630849 0.602061 0.021330
C20   C     C_R   0.903447 0.660553 0.622971 -0.248147
C21   C     C_R   0.984866 0.611578 0.583769 -0.196541
C22   C     C_R   0.962163 0.531864 0.523401 0.014809
C23   C     C_3   0.502832 0.499494 0.083376 0.068466
C24   C     C_R   0.854484 0.504610 0.504304 0.241125
C25   C     C_R   0.041404 0.478480 0.481304 -0.019180
C26   C     C_R   0.010741 0.401003 0.419791 0.194516
C27   C     C_R   0.904573 0.375671 0.402532 -0.318767
C28   C     C_R   0.499007 0.498990 0.338497 0.885047
C29   C     C_R   0.827983 0.426202 0.444857 -0.220819
C30   C     C_R   0.150695 0.498283 0.497755 -0.049923
C31   C     C_R   0.193603 0.372072 0.395819 0.012444
C32   C     C_3   0.390933 0.547462 0.930789 -0.654518
C33   C     C_3   0.591696 0.568686 0.969947 0.398178
C34   C     C_3   0.527132 0.387788 0.052080 -0.495447
C35   C     C_3   0.595410 0.561825 0.069827 0.327192
C36   C     C_1   0.497304 0.497038 0.249280 -0.222474
C37   C     C_3   0.506495 0.501259 0.918759 0.074742
C38   C     C_3   0.276711 0.665416 0.098150 0.103143
C39   C     C_3   0.165344 0.683355 0.032587 -0.353668
C40   C     C_3   0.070572 0.700676 0.079309 -0.981255
C41   C     C_3   0.079732 0.976939 0.439233 0.078828
C42   C     C_3   0.059097 0.075170 0.383066 -0.365932
C43   C     C_3   0.967145 0.070034 0.301814 -0.976568
C44   C     C_3   0.754979 0.619242 0.946371 0.119639
C45   C     C_3   0.532115 0.388164 0.954575 0.392658
C46   C     C_3   0.731903 0.657633 0.851462 -0.368508
C47   C     C_3   0.798692 0.743959 0.842637 -0.976378
C48   C     C_3   0.740427 0.557555 0.195979 0.098913
C49   C     C_3   0.819473 0.632975 0.186153 -0.372297
C50   C     C_3   0.876718 0.670546 0.274985 -0.943168
C51   C     C_3   0.634944 0.264754 0.883614 0.122338
C52   C     C_3   0.627851 0.161293 0.924505 -0.394109
C53   C     C_3   0.630753 0.074487 0.858780 -0.940405
C54   C     C_1   0.499001 0.497038 0.174188 -0.046556
C55   C     C_1   0.505650 0.502523 0.826872 -0.009695
C56   C     C_1   0.504023 0.502201 0.751131 -0.214585
C57   C     C_R   0.706337 0.061056 0.445491 -0.202926
H1    H     H_    0.327965 0.501010 0.894690 0.172905
H2    H     H_    0.735369 0.668777 0.631960 0.144370
H3    H     H_    0.064032 0.638026 0.601753 0.138448
H4    H     H_    0.920988 0.721511 0.669177 0.155694
H5    H     H_    0.560297 0.649982 0.947280 -0.002416
H6    H     H_    0.465477 0.344642 0.919053 0.041910
H7    H     H_    0.461663 0.342522 0.060889 0.124474
H8    H     H_    0.285575 0.734541 0.139608 0.162913
H9    H     H_    0.280149 0.599894 0.143455 0.130849
H10   H     H_    0.162365 0.751898 0.990977 0.233200
H11   H     H_    0.154951 0.615716 0.989507 0.212532
H12   H     H_    0.605672 0.348392 0.092748 0.250849
H13   H     H_    0.070567 0.631942 0.119717 0.266990
H14   H     H_    0.991191 0.714213 0.030364 0.261677
H15   H     H_    0.077930 0.768960 0.121934 0.267487
H16   H     H_    0.325750 0.499611 0.036863 0.095212
H17   H     H_    0.706071 0.869767 0.385375 0.144064
H18   H     H_    0.779003 0.033028 0.421650 0.129927
H19   H     H_    0.004028 0.969694 0.462436 0.165201
H20   H     H_    0.094142 0.907555 0.399050 0.124340
H21   H     H_    0.036354 0.142290 0.422584 0.238514
H22   H     H_    0.135342 0.086411 0.362179 0.216300
H23   H     H_    0.750082 0.213306 0.465832 0.155173
H24   H     H_    0.988967 0.004110 0.260788 0.268516
H25   H     H_    0.954670 0.142191 0.262663 0.265301
H26   H     H_    0.889029 0.061321 0.320531 0.259871
H27   H     H_    0.368216 0.626754 0.902140 0.234004
H28   H     H_    0.254094 0.332315 0.363347 0.135200
H29   H     H_    0.880668 0.315976 0.356422 0.164375
H30   H     H_    0.748474 0.402056 0.429858 0.211921
H31   H     H_    0.844151 0.591026 0.968229 0.170612
H32   H     H_    0.736618 0.683681 0.990248 0.095772
H33   H     H_    0.753180 0.592807 0.809130 0.244541
H34   H     H_    0.456651 0.162655 0.542449 0.154097
H35   H     H_    0.643101 0.686775 0.828422 0.215079
H36   H     H_    0.779313 0.809336 0.884990 0.268594
H37   H     H_    0.778064 0.772093 0.773815 0.263825
H38   H     H_    0.888070 0.715382 0.861306 0.266259
H39   H     H_    0.578314 0.642587 0.092083 0.050471
H40   H     H_    0.785996 0.494588 0.241820 0.183111
H41   H     H_    0.674601 0.596858 0.226602 0.128222
H42   H     H_    0.882606 0.594592 0.152556 0.238778
H43   H     H_    0.773022 0.700407 0.145950 0.199174
H44   H     H_    0.815135 0.709190 0.309900 0.259023
H45   H     H_    0.242407 0.787446 0.504843 0.167149
H46   H     H_    0.931967 0.726424 0.265634 0.261313
H47   H     H_    0.926808 0.604855 0.315506 0.274821
H48   H     H_    0.712522 0.258125 0.860318 0.174961
H49   H     H_    0.566913 0.283606 0.824769 0.111082
H50   H     H_    0.698111 0.143447 0.981623 0.237760
H51   H     H_    0.550382 0.165811 0.947770 0.211520
H52   H     H_    0.560211 0.090068 0.801631 0.267255
H53   H     H_    0.625374 0.000705 0.890211 0.265145
H54   H     H_    0.708765 0.066684 0.836029 0.266270
H55   H     H_    0.315915 0.092331 0.498062 0.154916
H56   H     H_    0.569277 0.758782 0.389333 0.166706
H57   H     H_    0.064446 0.291166 0.328201 0.151979
H58   H     H_    0.181945 0.554874 0.543532 0.126461
N1    N     N_R   0.222200 0.444690 0.455710 -0.100514
N2    N     N_R   0.776960 0.554780 0.543830 -0.130949
O1    O     O_R   0.366740 0.627160 0.478850 -0.616898
O2    O     O_3   0.165823 0.983808 0.513748 -0.644795
O3    O     O_3   0.696975 0.535523 0.952404 -0.547527
O4    O     O_3   0.700464 0.512034 0.114616 -0.592918
O5    O     O_3   0.638854 0.343258 0.946745 -0.563538
O6    O     O_R   0.544830 0.662520 0.507140 -0.618743
O7    O     O_R   0.410920 0.482310 0.608710 -0.611530
O8    O     O_R   0.589010 0.517670 0.637000 -0.611651
O9    O     O_R   0.455170 0.337480 0.492860 -0.614549
O10   O     O_R   0.633260 0.372840 0.521150 -0.632538
O11   O     O_R   0.410990 0.482330 0.363000 -0.611280
O12   O     O_R   0.589080 0.517690 0.391290 -0.643040
O13   O     O_3   0.364152 0.652711 0.054203 -0.644680
Zn1   Zn    Zn3+2 0.381090 0.476390 0.481110 0.934995
Zn2   Zn    Zn3+2 0.618910 0.523610 0.518890 0.921659

loop_
_geom_bond_atom_site_label_1
_geom_bond_atom_site_label_2
_ccdc_geom_bond_type
C53   H53   S    
C55   C56   T    
C50   H47   S    
C8    C13   A    
C31   H28   S    
C40   H14   S    
O6    Zn2   S    
C27   C29   A    
C43   H26   S    
C39   H11   S    
C19   C20   A    
C18   C26   A    
C32   H1    S    
C18   H57   S    
C7    C8    A    
C30   N1    A    
C35   H39   S    
C48   H40   S    
C12   C23   S    
C26   C27   A    
C40   H13   S    
C4    O8    A    
C5    O2    S    
C38   O13   S    
C24   N2    A    
C38   C39   S    
C46   H35   S    
C44   O3    S    
C4    C56   S    
C4    O7    A    
C28   O12   A    
C41   C42   S    
C20   H4    S    
N2    Zn2   S    
O10   Zn2   S    
O1    Zn1   S    
C24   C29   A    
C38   H9    S    
C52   H50   S    
C33   H5    S    
C22   C25   A    
C2    C16   S    
C9    C10   A    
O12   Zn2   S    
C53   H54   S    
C42   H22   S    
C21   C22   A    
C12   C32   S    
C15   C57   A    
C39   H10   S    
C44   C46   S    
C30   H58   S    
C32   H27   S    
C51   C52   S    
C35   O4    S    
C10   C57   A    
C21   H3    S    
C48   O4    S    
C19   H2    S    
C25   C26   A    
C45   H6    S    
C33   C37   S    
O7    Zn1   S    
C27   H29   S    
C9    C14   A    
C1    O6    A    
C49   H42   S    
C15   H23   S    
C38   H8    S    
C51   H48   S    
C23   C34   S    
C34   H7    S    
C47   H36   S    
C34   C45   S    
C32   C37   S    
C41   O2    S    
C2    C15   A    
C34   H12   S    
C19   N2    A    
C12   O13   S    
C33   O3    S    
C3    H45   S    
C48   C49   S    
C42   H21   S    
C23   C35   S    
C43   H24   S    
C22   C24   A    
C42   C43   S    
C37   C45   S    
O11   Zn1   S    
C31   N1    A    
C39   C40   S    
C52   C53   S    
C23   C54   S    
C53   H52   S    
C25   C30   A    
C7    C9    A    
C46   C47   S    
C40   H15   S    
C6    H55   S    
C3    C5    A    
C11   H17   S    
C6    C7    A    
C46   H33   S    
C45   O5    S    
C48   H41   S    
C1    C17   S    
C8    C17   A    
C57   H18   S    
C44   H31   S    
C51   O5    S    
C41   H19   S    
C41   H20   S    
C11   C13   A    
O8    Zn2   S    
C5    C6    A    
N1    Zn1   S    
O9    Zn1   S    
C51   H49   S    
C33   C35   S    
C47   H37   S    
C3    C17   A    
C1    O1    A    
C2    C14   A    
C16   O10   A    
C14   H34   S    
C29   H30   S    
C36   C54   T    
C10   C11   A    
C37   C55   S    
C50   H46   S    
C20   C21   A    
C28   C36   S    
C50   H44   S    
C49   C50   S    
C43   H25   S    
C47   H38   S    
C52   H51   S    
C18   C31   A    
C12   H16   S    
C16   O9    A    
C13   H56   S    
C44   H32   S    
C28   O11   A    
C49   H43   S    
