data_mof_unit_35767.cif
_audit_creation_date              2012-12-10T17:11:29-0500
_audit_creation_method            fapswitch 2.2
_symmetry_space_group_name_H-M    P1
_symmetry_Int_Tables_number       1
_space_group_crystal_system       triclinic
_cell_length_a                    14.97717
_cell_length_b                    12.981453
_cell_length_c                    11.674803
_cell_angle_alpha                 99.952909
_cell_angle_beta                  93.511354
_cell_angle_gamma                 90.607932
_cell_volume                      2231.00135017

loop_
_atom_site_label
_atom_site_type_symbol
_atom_type_description
_atom_site_fract_x
_atom_site_fract_y
_atom_site_fract_z
_atom_type_partial_charge
C1    C     C_R   0.498534 0.299054 0.478539 0.800545
C2    C     C_R   0.501210 0.700942 0.521450 0.801081
C3    C     C_R   0.045011 0.317105 0.532348 -0.004703
C4    C     C_R   0.954347 0.678049 0.452394 -0.005920
C5    C     C_R   0.501261 0.814384 0.533860 -0.051496
C6    C     C_R   0.497804 0.185595 0.466066 -0.051961
C7    C     C_R   0.496914 0.014691 0.344252 -0.226618
C8    C     C_R   0.501497 0.985268 0.655612 -0.218111
C9    C     C_R   0.496398 0.122920 0.355187 -0.204146
C10   C     C_R   0.502357 0.877053 0.644711 -0.200028
C11   C     C_R   0.499104 0.139484 0.565995 -0.267407
C12   C     C_R   0.499577 0.860479 0.433891 -0.271160
C13   C     C_R   0.499684 0.031408 0.555795 0.176844
C14   C     C_R   0.498713 0.968546 0.444065 0.175855
C15   C     C_R   0.417219 0.399724 0.021749 -0.340488
C16   C     C_R   0.582818 0.600271 0.978263 -0.342340
C17   C     C_R   0.424964 0.409577 0.143945 0.089860
C18   C     C_R   0.575045 0.590423 0.856058 0.090532
C19   C     C_R   0.535562 0.543660 0.157089 0.026120
C20   C     C_R   0.464466 0.456331 0.842925 0.027558
C21   C     C_R   0.530033 0.536510 0.034249 0.067749
C22   C     C_R   0.470003 0.463487 0.965766 0.067367
C23   C     C_R   0.328931 0.499728 0.500507 0.807889
C24   C     C_R   0.671064 0.500275 0.499442 0.809265
C25   C     C_R   0.812618 0.588250 0.476134 -0.259230
C26   C     C_R   0.187188 0.411152 0.522114 -0.261019
C27   C     C_R   0.767240 0.500046 0.497949 -0.048911
C28   C     C_R   0.232703 0.499568 0.501059 -0.048626
C29   C     C_R   0.813053 0.411515 0.517995 -0.230888
C30   C     C_R   0.186734 0.586584 0.476435 -0.230083
C31   C     C_R   0.905852 0.410006 0.515787 0.105767
C32   C     C_R   0.093755 0.587032 0.475128 0.103541
C33   C     C_R   0.952875 0.498872 0.494154 0.040624
C34   C     C_R   0.046593 0.497631 0.494932 0.041653
C35   C     C_R   0.906100 0.589158 0.473123 0.070042
C36   C     C_R   0.093362 0.407415 0.516091 0.069179
C37   C     C_R   0.951746 0.320371 0.533865 -0.261429
C38   C     C_R   0.047772 0.675771 0.454248 -0.262262
Cu1   Cu    Cu3+1 0.506660 0.507730 0.615930 0.938093
Cu2   Cu    Cu3+1 0.493340 0.492270 0.384070 0.936467
H1    H     H_    0.774100 0.656003 0.463873 0.141195
H2    H     H_    0.225814 0.345770 0.542174 0.142299
H3    H     H_    0.370352 0.342648 0.971573 0.137728
H4    H     H_    0.629698 0.657340 0.028443 0.132712
H5    H     H_    0.776100 0.343753 0.534432 0.127314
H6    H     H_    0.223733 0.654304 0.459963 0.126787
H7    H     H_    0.914535 0.251651 0.547061 0.140118
H8    H     H_    0.084861 0.743743 0.438635 0.147958
H9    H     H_    0.498946 0.812508 0.347990 0.151461
H10   H     H_    0.499869 0.187460 0.651903 0.151943
H11   H     H_    0.503595 0.842567 0.722888 0.157210
H12   H     H_    0.495317 0.157413 0.277023 0.157684
H13   H     H_    0.496103 0.967246 0.258127 0.134071
H14   H     H_    0.502258 0.032714 0.741733 0.134638
H15   H     H_    0.418371 0.400487 0.789437 0.119544
H16   H     H_    0.581670 0.599493 0.210583 0.116649
H17   H     H_    0.615921 0.640016 0.813864 0.124937
H18   H     H_    0.384081 0.359988 0.186138 0.123477
N1    N     N_R   0.516670 0.519360 0.790130 -0.180659
N2    N     N_R   0.483330 0.480640 0.209870 -0.179813
O1    O     O_R   0.504720 0.354460 0.582000 -0.591529
O2    O     O_R   0.495280 0.645540 0.418000 -0.591858
O3    O     O_R   0.493480 0.341410 0.386200 -0.593193
O4    O     O_R   0.506520 0.658590 0.613800 -0.592854
O5    O     O_R   0.375880 0.506510 0.597910 -0.580125
O6    O     O_R   0.624120 0.493490 0.402090 -0.580940
O7    O     O_R   0.364640 0.493450 0.402110 -0.581736
O8    O     O_R   0.635360 0.506550 0.597890 -0.580929
C39   C     C_R   0.088706 0.216874 0.543590 0.118770
C40   C     C_R   0.076393 0.169741 0.641321 -0.166014
C41   C     C_R   0.114743 0.073337 0.649730 -0.152435
C42   C     C_R   0.165279 0.023088 0.560615 -0.104842
C43   C     C_R   0.177379 0.069036 0.462759 -0.124420
C44   C     C_R   0.138840 0.165207 0.453757 -0.161233
H19   H     H_    0.037113 0.207626 0.710823 0.128330
H20   H     H_    0.105018 0.037398 0.725189 0.126573
H21   H     H_    0.194772 0.948394 0.567185 0.121519
H22   H     H_    0.216238 0.029861 0.393572 0.131081
H23   H     H_    0.147677 0.199222 0.376667 0.128779
C45   C     C_R   0.910197 0.774898 0.429299 0.114422
C46   C     C_R   0.930630 0.870799 0.503238 -0.143128
C47   C     C_R   0.890384 0.962584 0.480778 -0.120488
C48   C     C_R   0.829774 0.959439 0.384278 -0.103238
C49   C     C_R   0.809865 0.864636 0.309526 -0.138112
C50   C     C_R   0.850365 0.772751 0.331280 -0.164965
H24   H     H_    0.977383 0.874319 0.578441 0.126850
H25   H     H_    0.906130 0.036131 0.538231 0.130461
H26   H     H_    0.798490 0.030510 0.367208 0.125089
H27   H     H_    0.763258 0.862392 0.234478 0.123481
H28   H     H_    0.835033 0.699978 0.272062 0.130228

loop_
_geom_bond_atom_site_label_1
_geom_bond_atom_site_label_2
_ccdc_geom_bond_type
C19   H16   S    
C16   C21   A    
Cu2   N2    S    
C27   C29   A    
Cu1   O8    S    
C24   C27   S    
C6    C9    A    
C12   H9    S    
Cu1   O4    S    
C8    C13   A    
Cu2   O3    S    
C19   C21   A    
C4    C45   S    
C41   H20   S    
C47   H25   S    
Cu2   O2    S    
C7    C9    A    
C43   C44   A    
C23   O7    A    
C42   H21   S    
C15   C22   A    
Cu2   O7    S    
C43   H22   S    
C31   C33   A    
C40   C41   A    
C32   C38   A    
C37   H7    S    
C16   H4    S    
C38   H8    S    
C46   H24   S    
C24   O6    A    
C17   H18   S    
C48   H26   S    
C4    C35   A    
Cu2   O6    S    
C21   C22   A    
Cu1   O5    S    
C9    H12   S    
C20   H15   S    
C10   H11   S    
C1    O3    A    
C2    O4    A    
C46   C47   A    
C7    C14   A    
Cu1   O1    S    
C1    C6    S    
C49   C50   A    
C5    C12   A    
C8    H14   S    
C6    C11   A    
C45   C46   A    
C31   C37   A    
C29   H5    S    
C32   C34   A    
C45   C50   A    
C18   H17   S    
C48   C49   A    
Cu1   N1    S    
C33   C34   A    
C39   C44   A    
C23   C28   S    
C20   N1    A    
C25   C35   A    
C26   C36   A    
C20   C22   A    
C44   H23   S    
C13   C14   A    
C2    C5    S    
C49   H27   S    
C7    H13   S    
C25   H1    S    
Cu1   Cu2   S    
C26   H2    S    
C15   C17   A    
C3    C39   S    
C30   H6    S    
C8    C10   A    
C12   C14   A    
C42   C43   A    
C1    O1    A    
C50   H28   S    
C19   N2    A    
C25   C27   A    
C26   C28   A    
C23   O5    A    
C28   C30   A    
C15   H3    S    
C41   C42   A    
C29   C31   A    
C11   H10   S    
C30   C32   A    
C11   C13   A    
C3    C36   A    
C33   C35   A    
C34   C36   A    
C39   C40   A    
C24   O8    A    
C17   N2    A    
C18   N1    A    
C5    C10   A    
C3    C37   A    
C16   C18   A    
C47   C48   A    
C40   H19   S    
C4    C38   A    
C2    O2    A    
