data_mof_unit_62649.cif
_audit_creation_date              2012-12-11T16:00:45-0500
_audit_creation_method            fapswitch 2.2
_symmetry_space_group_name_H-M    P1
_symmetry_Int_Tables_number       1
_space_group_crystal_system       triclinic
_cell_length_a                    6.945635
_cell_length_b                    17.26859
_cell_length_c                    18.588382
_cell_angle_alpha                 107.247461
_cell_angle_beta                  90.23913
_cell_angle_gamma                 90.601272
_cell_volume                      2129.08151622

loop_
_atom_site_label
_atom_site_type_symbol
_atom_type_description
_atom_site_fract_x
_atom_site_fract_y
_atom_site_fract_z
_atom_type_partial_charge
O1    O     O_R   0.505810 0.442350 0.559500 -0.522619
O2    O     O_R   0.167990 0.405060 0.411070 -0.531648
O3    O     O_R   0.005550 0.557650 0.440500 -0.519508
C1    C     C_R   0.337716 0.381694 0.382766 0.709336
O4    O     O_R   0.175580 0.432840 0.557140 -0.522944
O5    O     O_R   0.013190 0.585620 0.587600 -0.528956
C2    C     C_R   0.344506 0.415934 0.580649 0.732413
O6    O     O_R   0.498170 0.414380 0.412400 -0.540484
O7    O     O_3   0.341790 0.550090 0.509830 -0.359058
V1    V     V_3+5 0.063870 0.490710 0.498180 1.464437
O8    O     O_R   0.683930 0.594940 0.588930 -0.536814
C3    C     C_R   0.854032 0.618027 0.617100 0.745679
O9    O     O_R   0.676340 0.567160 0.442860 -0.526251
C4    C     C_R   0.845276 0.584040 0.419330 0.728422
V2    V     V_3+5 0.564820 0.509290 0.501820 1.459585
O10   O     O_3   0.836770 0.449910 0.490170 -0.365216
C5    C     C_1   0.856480 0.635927 0.367196 -0.177658
C6    C     C_1   0.867704 0.678391 0.323555 0.030270
C7    C     C_1   0.882026 0.728497 0.271613 0.023594
C8    C     C_1   0.894320 0.770735 0.227798 0.021126
C9    C     C_1   0.908666 0.820946 0.175948 0.023358
C10   C     C_1   0.919949 0.863583 0.132460 -0.182250
C11   C     C_3   0.805724 0.814983 0.739751 0.171756
C12   C     C_3   0.974816 0.768640 0.692860 -0.171850
H1    H     H_    0.045237 0.784106 0.645323 0.148703
C13   C     C_3   0.869959 0.688020 0.687797 -0.124490
C14   C     C_3   0.700076 0.733960 0.733764 -0.183394
C15   C     C_3   0.802242 0.730899 0.807101 0.150879
C16   C     C_3   0.971040 0.684283 0.760565 0.179828
C17   C     C_3   0.076389 0.765450 0.766490 -0.181329
C18   C     C_3   0.906721 0.811515 0.812568 -0.130596
H2    H     H_    0.545247 0.720800 0.719976 0.153883
H3    H     H_    0.231171 0.778584 0.780410 0.162369
C19   C     C_3   0.557079 0.285503 0.275801 -0.118386
C20   C     C_3   0.504367 0.195535 0.266008 -0.143914
H4    H     H_    0.601627 0.150866 0.279132 0.109449
H5    H     H_    0.697890 0.314529 0.297098 0.147647
C21   C     C_3   0.418879 0.189074 0.187922 -0.045678
C22   C     C_3   0.471082 0.278316 0.196959 -0.139289
C23   C     C_3   0.273089 0.304326 0.233783 0.176463
C24   C     C_3   0.219491 0.214685 0.223853 -0.123535
C25   C     C_3   0.305699 0.221957 0.302642 -0.183621
C26   C     C_3   0.357809 0.311229 0.311852 -0.053088
H6    H     H_    0.540422 0.301598 0.153671 0.149048
H7    H     H_    0.078512 0.185812 0.202567 0.128333
H8    H     H_    0.236106 0.198822 0.345969 0.115810
C27   C     C_1   0.354920 0.363937 0.632729 -0.177952
C28   C     C_1   0.366583 0.321410 0.676303 0.033483
C29   C     C_1   0.382054 0.271232 0.728161 0.028333
C30   C     C_1   0.395439 0.228964 0.771911 0.029979
C31   C     C_1   0.410884 0.178761 0.823748 0.039524
C32   C     C_1   0.422491 0.136198 0.867292 -0.168260
O11   O     O_R   0.278780 0.085730 0.087540 -0.541924
O12   O     O_R   0.601620 0.067180 0.942850 -0.520266
O13   O     O_R   0.763750 0.914350 0.912410 -0.519789
C33   C     C_R   0.432761 0.084148 0.919329 0.741585
O14   O     O_R   0.608970 0.094960 0.088920 -0.540988
O15   O     O_R   0.771150 0.942330 0.059520 -0.523050
C34   C     C_R   0.439214 0.118441 0.117163 0.679379
O16   O     O_R   0.271380 0.057750 0.940430 -0.523037
O17   O     O_3   0.435070 0.949970 0.990140 -0.349612
V3    V     V_3+5 0.713090 0.009280 0.001830 1.472535
O18   O     O_R   0.100340 0.932730 0.057200 -0.526198
C35   C     C_R   0.931316 0.915724 0.080557 0.717680
O19   O     O_R   0.092990 0.904950 0.911140 -0.534204
C36   C     C_R   0.922875 0.881840 0.883004 0.774418
V4    V     V_3+5 0.212100 0.990570 0.998260 1.475527
O20   O     O_3   0.940260 0.050030 0.009860 -0.366239
I1    I     I_    0.083463 0.388913 0.207710 -0.438273
I2    I     I_    0.670655 0.918465 0.722128 -0.440742
I3    I     I_    0.658834 0.701959 0.897526 -0.309870
I4    I     I_    0.110129 0.580758 0.776720 -0.331855

loop_
_geom_bond_atom_site_label_1
_geom_bond_atom_site_label_2
_ccdc_geom_bond_type
O15   V3    S    
C18   C36   S    
C19   H5    S    
C24   C25   S    
C7    C8    T    
C4    C5    S    
C1    O6    A    
O11   C34   A    
O14   V3    S    
C13   C14   S    
C15   C16   S    
C12   C13   S    
C6    C7    S    
O5    C3    A    
C17   C18   S    
O14   C34   A    
V2    O10   S    
O13   V3    S    
C31   C32   T    
C19   C20   S    
C25   H8    S    
C20   C25   S    
O8    V2    S    
C19   C22   S    
C23   C26   S    
C20   H4    S    
O16   V4    S    
O19   V4    S    
C11   C12   S    
O1    V2    S    
C11   C14   S    
O7    V1    S    
C16   I4    S    
O9    C4    A    
C11   I2    S    
C5    C6    T    
O12   C33   A    
O15   C35   A    
O18   V4    S    
C23   I1    S    
V4    O20   S    
C20   C21   S    
C12   H1    S    
C21   C24   S    
C22   C23   S    
O4    C2    A    
O12   V3    S    
C33   O16   A    
C3    C13   S    
C11   C18   S    
O2    C1    A    
C16   C17   S    
O17   V4    S    
C27   C28   T    
C30   C31   S    
O3    C4    A    
C23   C24   S    
O19   C36   A    
O6    V2    S    
O9    V2    S    
C15   I3    S    
C25   C26   S    
O2    V1    S    
O13   C36   A    
C28   C29   S    
C17   H3    S    
C14   H2    S    
O1    C2    A    
C15   C18   S    
C19   C26   S    
O18   C35   A    
O5    V1    S    
O8    C3    A    
C22   H6    S    
C1    C26   S    
V3    O20   S    
O7    V2    S    
O4    V1    S    
O3    V1    S    
V1    O10   S    
C21   C22   S    
O17   V3    S    
O11   V4    S    
C12   C17   S    
C10   C35   S    
C21   C34   S    
C8    C9    S    
C13   C16   S    
C29   C30   T    
C14   C15   S    
C24   H7    S    
C9    C10   T    
C32   C33   S    
C2    C27   S    
