data_mof_unit_34555.cif
_audit_creation_date              2013-03-05T15:57:38-0500
_audit_creation_method            fapswitch 2.2
_symmetry_space_group_name_H-M    P1
_symmetry_Int_Tables_number       1
_space_group_crystal_system       triclinic
_cell_length_a                    19.533169
_cell_length_b                    17.573352
_cell_length_c                    12.60284
_cell_angle_alpha                 90.068842
_cell_angle_beta                  99.090746
_cell_angle_gamma                 89.998438
_cell_volume                      4271.75015714

loop_
_atom_site_label
_atom_site_type_symbol
_atom_site_description
_atom_site_fract_x
_atom_site_fract_y
_atom_site_fract_z
_atom_type_partial_charge
O1    O     O_R   0.448200 0.076800 0.373930 -0.610957
O2    O     O_R   0.448200 0.923200 0.373930 -0.608917
O3    O     O_R   0.948200 0.576800 0.373930 -0.610951
O4    O     O_R   0.948200 0.423200 0.373930 -0.608926
O5    O     O_R   0.414750 0.076790 0.542400 -0.605386
O6    O     O_R   0.414750 0.923210 0.542400 -0.627944
O7    O     O_R   0.914750 0.576790 0.542400 -0.605347
O8    O     O_R   0.914750 0.423210 0.542400 -0.628026
C1    C     C_R   0.408298 0.099574 0.441768 0.883302
C2    C     C_R   0.411892 0.896308 0.444264 0.865894
C3    C     C_R   0.908309 0.599585 0.441776 0.883331
C4    C     C_R   0.911919 0.396278 0.444286 0.865985
Zn1   Zn    Zn3+2 0.522330 0.000000 0.387520 0.954238
Zn2   Zn    Zn3+2 0.022330 0.500000 0.387520 0.954269
Zn3   Zn    Zn3+2 0.477660 0.000000 0.612480 0.932781
Zn4   Zn    Zn3+2 0.977660 0.500000 0.612480 0.932759
O9    O     O_R   0.585240 0.923200 0.457600 -0.608101
O10   O     O_R   0.585240 0.076800 0.457600 -0.613176
O11   O     O_R   0.085240 0.423200 0.457600 -0.608115
O12   O     O_R   0.085240 0.576800 0.457600 -0.613128
O13   O     O_R   0.551780 0.923190 0.626070 -0.644501
O14   O     O_R   0.551780 0.076810 0.626070 -0.624635
O15   O     O_R   0.051780 0.423190 0.626070 -0.644576
O16   O     O_R   0.051780 0.576810 0.626070 -0.624574
C5    C     C_R   0.589253 0.897761 0.556418 0.848818
C6    C     C_R   0.590836 0.100554 0.557534 0.868862
C7    C     C_R   0.089260 0.397765 0.556422 0.848787
C8    C     C_R   0.090835 0.600552 0.557535 0.868787
C9    C     C_R   0.749968 0.178042 0.727386 -0.161622
C10   C     C_R   0.643870 0.702217 0.649093 -0.183864
C11   C     C_R   0.250133 0.677751 0.727207 -0.161681
C12   C     C_R   0.143979 0.202283 0.649325 -0.183735
H1    H     H_    0.662392 0.115021 0.762671 0.162220
H2    H     H_    0.570275 0.781826 0.694078 0.155479
H3    H     H_    0.162618 0.614649 0.762545 0.161947
H4    H     H_    0.070418 0.281920 0.694344 0.155558
H5    H     H_    0.377602 0.736641 0.751101 0.160716
H6    H     H_    0.206346 0.069765 0.624641 0.147691
H7    H     H_    0.877405 0.237041 0.751485 0.160893
H8    H     H_    0.706239 0.569717 0.624340 0.147680
H9    H     H_    0.776802 0.174696 0.809377 0.168850
H10   H     H_    0.627859 0.657323 0.698722 0.146818
H11   H     H_    0.277079 0.674223 0.809113 0.168405
H12   H     H_    0.128027 0.157427 0.699085 0.146882
C13   C     C_R   0.649591 0.149122 0.595523 -0.060912
C14   C     C_R   0.632134 0.831304 0.583544 -0.049897
C15   C     C_R   0.149590 0.649107 0.595536 -0.060732
C16   C     C_R   0.132158 0.331319 0.583558 -0.049964
C17   C     C_R   0.334572 0.828822 0.301081 -0.270472
C18   C     C_R   0.368807 0.209381 0.326885 -0.268792
C19   C     C_R   0.834870 0.328426 0.301129 -0.270447
C20   C     C_R   0.868926 0.709486 0.327042 -0.268769
C21   C     C_R   0.279859 0.778742 0.267784 0.373280
C22   C     C_R   0.325997 0.272735 0.303213 0.368250
C23   C     C_R   0.780302 0.278159 0.267829 0.373416
C24   C     C_R   0.826161 0.772882 0.303443 0.368205
C25   C     C_R   0.250932 0.739002 0.346130 -0.275823
C26   C     C_R   0.272936 0.285282 0.364001 -0.277717
C27   C     C_R   0.751309 0.238516 0.346195 -0.275827
C28   C     C_R   0.773072 0.785408 0.364183 -0.277728
C29   C     C_R   0.278425 0.746257 0.456768 0.030235
C30   C     C_R   0.260443 0.233165 0.444662 0.034361
C31   C     C_R   0.778617 0.246037 0.456869 0.030254
C32   C     C_R   0.760507 0.733235 0.444729 0.034372
C33   C     C_R   0.340704 0.786397 0.486402 0.090236
C34   C     C_R   0.296619 0.163798 0.454414 0.097903
C35   C     C_R   0.840811 0.286319 0.486566 0.090249
C36   C     C_R   0.796651 0.663846 0.454412 0.097915
C37   C     C_R   0.746209 0.214618 0.539222 0.103887
C38   C     C_R   0.712898 0.747528 0.515795 0.110439
C39   C     C_R   0.246118 0.714711 0.539144 0.103871
C40   C     C_R   0.212879 0.247499 0.515786 0.110404
C41   C     C_R   0.781686 0.211543 0.646521 0.157614
C42   C     C_R   0.693216 0.688415 0.581603 0.174703
C43   C     C_R   0.281742 0.711403 0.646339 0.157708
C44   C     C_R   0.193265 0.188433 0.581742 0.174674
C45   C     C_R   0.348542 0.740874 0.670604 -0.237725
C46   C     C_R   0.222255 0.116312 0.577686 -0.243938
C47   C     C_R   0.848448 0.241105 0.670897 -0.237727
C48   C     C_R   0.722195 0.616293 0.577492 -0.244039
C49   C     C_R   0.377765 0.778162 0.591652 -0.175973
C50   C     C_R   0.273443 0.104048 0.514741 -0.178462
C51   C     C_R   0.877753 0.278281 0.591932 -0.175983
C52   C     C_R   0.773427 0.604064 0.514624 -0.178555
C53   C     C_R   0.678413 0.188159 0.517914 -0.245973
C54   C     C_R   0.685398 0.819758 0.524707 -0.239178
C55   C     C_R   0.178297 0.688314 0.517965 -0.245874
C56   C     C_R   0.185376 0.319733 0.524630 -0.239180
C57   C     C_R   0.684347 0.145542 0.701501 -0.180462
C58   C     C_R   0.612262 0.773352 0.648499 -0.190280
C59   C     C_R   0.184483 0.645311 0.701412 -0.180325
C60   C     C_R   0.112358 0.273414 0.648672 -0.190211
C61   C     C_R   0.363641 0.834468 0.410061 -0.167464
C62   C     C_R   0.355641 0.156365 0.404395 -0.173017
C63   C     C_R   0.863774 0.334320 0.410160 -0.167566
C64   C     C_R   0.855692 0.656419 0.404435 -0.173014
H13   H     H_    0.647242 0.195269 0.439827 0.162187
H14   H     H_    0.702724 0.868020 0.483137 0.147993
H15   H     H_    0.147022 0.695581 0.439997 0.162068
H16   H     H_    0.202678 0.367963 0.482958 0.148021
H17   H     H_    0.353604 0.864681 0.242244 0.196369
H18   H     H_    0.413583 0.202389 0.286891 0.206005
H19   H     H_    0.853936 0.364205 0.242239 0.196460
H20   H     H_    0.913721 0.702500 0.287091 0.206028
H21   H     H_    0.708945 0.200309 0.318959 0.180558
H22   H     H_    0.740849 0.834847 0.344906 0.176499
H23   H     H_    0.208466 0.700933 0.318893 0.180612
H24   H     H_    0.240673 0.334685 0.344680 0.176511
H25   H     H_    0.430028 0.799505 0.613619 0.165968
H26   H     H_    0.294019 0.047045 0.512377 0.155382
H27   H     H_    0.929988 0.299685 0.613991 0.166167
H28   H     H_    0.793996 0.547059 0.512222 0.155356
C65   C     C_R   0.642987 0.002091 0.133113 -0.216196
C66   C     C_R   0.142986 0.502070 0.133112 -0.216602
H29   H     H_    0.658493 0.001931 0.305203 0.142331
H30   H     H_    0.158493 0.501916 0.305202 0.142303
H31   H     H_    0.669291 0.002186 0.933878 0.169866
H32   H     H_    0.169291 0.502154 0.933878 0.169742
H33   H     H_    0.697955 0.003288 0.128834 0.194389
H34   H     H_    0.197954 0.503259 0.128832 0.194226
N1    N     N_R   0.552340 0.000000 0.237260 -0.110877
N2    N     N_R   0.052340 0.500000 0.237260 -0.110859
C67   C     C_R   0.378711 0.998194 0.762168 0.028727
C68   C     C_R   0.878710 0.498205 0.762165 0.028766
C69   C     C_R   0.352847 0.997422 0.858364 -0.215913
C70   C     C_R   0.852846 0.497432 0.858362 -0.216055
C71   C     C_R   0.398906 0.998232 0.954393 -0.155722
C72   C     C_R   0.898905 0.498233 0.954392 -0.155737
C73   C     C_R   0.471372 0.999589 0.953933 0.013611
C74   C     C_R   0.971371 0.499582 0.953933 0.013683
C75   C     C_R   0.494888 0.000231 0.853727 0.234937
C76   C     C_R   0.994887 0.500223 0.853727 0.234933
C77   C     C_R   0.521199 0.000094 0.048187 -0.008202
C78   C     C_R   0.021198 0.500084 0.048187 -0.008136
C79   C     C_R   0.593167 0.001313 0.040578 0.176350
C80   C     C_R   0.093166 0.501294 0.040577 0.176473
C81   C     C_R   0.614656 0.001542 0.940791 -0.244083
C82   C     C_R   0.114655 0.501518 0.940790 -0.244174
C83   C     C_R   0.565976 0.000728 0.848607 -0.210488
C84   C     C_R   0.065975 0.500712 0.848607 -0.210362
C85   C     C_R   0.502655 0.999449 0.150595 -0.031215
C86   C     C_R   0.002655 0.499450 0.150595 -0.031144
C87   C     C_R   0.621066 0.001341 0.232094 0.023758
C88   C     C_R   0.121066 0.501329 0.232094 0.023876
N3    N     N_R   0.448170 0.000000 0.762060 -0.132507
N4    N     N_R   0.948170 0.500000 0.762060 -0.132531
H35   H     H_    0.449846 0.998625 0.165103 0.128065
H36   H     H_    0.949846 0.498633 0.165103 0.128049
H37   H     H_    0.343437 0.996933 0.687011 0.135696
H38   H     H_    0.843437 0.496957 0.687006 0.135730
H39   H     H_    0.376173 0.997519 0.026863 0.150449
H40   H     H_    0.876172 0.497519 0.026862 0.150340
H41   H     H_    0.297453 0.996049 0.858540 0.164063
H42   H     H_    0.797452 0.496067 0.858537 0.163928
H43   H     H_    0.585472 0.000310 0.774265 0.209930
H44   H     H_    0.085469 0.500297 0.774265 0.209883
N5    N     N_R   0.252013 0.770569 0.155417 0.216436
O17   O     O_R   0.278746 0.808045 0.082874 -0.403479
O18   O     O_R   0.200426 0.724641 0.124343 -0.389842
N6    N     N_R   0.338134 0.325738 0.221005 0.217976
O19   O     O_R   0.387060 0.313461 0.163910 -0.372499
O20   O     O_R   0.299914 0.386331 0.201532 -0.417601
N7    N     N_R   0.752673 0.269678 0.155420 0.216444
O21   O     O_R   0.779395 0.307156 0.082867 -0.403605
O22   O     O_R   0.701338 0.223421 0.124317 -0.390316
N8    N     N_R   0.838373 0.825948 0.221359 0.217993
O23   O     O_R   0.887356 0.813716 0.164367 -0.372283
O24   O     O_R   0.800162 0.886551 0.201891 -0.417442

loop_
_geom_bond_atom_site_label_1
_geom_bond_atom_site_label_2
_geom_bond_distance
_ccdc_geom_bond_type
C7    C16   1.446696 S    
C3    C64   1.457248 S    
N8    O24   1.301635 A    
C67   H37   1.079869 S    
C8    C15   1.449134 S    
C26   C30   1.418589 A    
N5    O17   1.301760 A    
Zn2   N2    2.068940 S    
C23   C27   1.399965 A    
N1    C87   1.354462 A    
C13   C53   1.385595 A    
N7    O21   1.301764 A    
O10   C6    1.314407 A    
N2    C88   1.354458 A    
C10   C58   1.393720 A    
C9    C57   1.393926 A    
C20   C64   1.403474 A    
C28   H22   1.078039 S    
H3    C59   1.082283 S    
O7    C3    1.317309 A    
C81   C83   1.380197 A    
C27   H21   1.078473 S    
C11   H11   1.083917 S    
Zn1   O10   1.940583 S    
C32   C36   1.404751 A    
C9    C41   1.403584 A    
N7    O22   1.301914 A    
C44   C46   1.392321 A    
C31   C37   1.411307 A    
C10   C42   1.403548 A    
C67   C69   1.385203 A    
C78   C86   1.394564 A    
C19   H19   1.083222 S    
Zn4   N4    2.056377 S    
O2    Zn1   1.966906 S    
O13   C5    1.306949 A    
C6    C13   1.449217 S    
C71   H39   1.076888 S    
O6    Zn3   1.940462 S    
H30   C88   1.081956 S    
C23   N7    1.441641 S    
C33   C49   1.414736 A    
C72   H40   1.076888 S    
Zn3   O14   1.966883 S    
C67   N3    1.357343 A    
C19   C63   1.404331 A    
C38   C42   1.420430 A    
C16   C56   1.384614 A    
C4    C63   1.458071 S    
C37   C41   1.419800 A    
C32   C38   1.411635 A    
O4    C4    1.308386 A    
O11   C7    1.314347 A    
C26   H24   1.078035 S    
C53   H13   1.079713 S    
C48   C52   1.387631 A    
C34   C62   1.404663 A    
H4    C60   1.083318 S    
C33   C61   1.406494 A    
O8    Zn4   1.940462 S    
C42   C48   1.392305 A    
C35   C63   1.406579 A    
C74   C78   1.411749 A    
C40   C56   1.389581 A    
C69   H41   1.082651 S    
H29   C87   1.081955 S    
C41   C47   1.392084 A    
C31   C35   1.404540 A    
C39   C43   1.419794 A    
C30   C34   1.404743 A    
C36   C52   1.412823 A    
O1    C1    1.307033 A    
Zn2   O12   1.940583 S    
C75   C83   1.400252 A    
C80   C82   1.387285 A    
Zn3   N3    2.056377 S    
C21   C25   1.399969 A    
C18   C62   1.403552 A    
C78   C80   1.424240 A    
O12   C8    1.314410 A    
C2    C61   1.457959 S    
C68   N4    1.357342 A    
C65   C87   1.381468 A    
C66   C88   1.381465 A    
C74   C76   1.410435 A    
C71   C73   1.416610 A    
O5    C1    1.317325 A    
C14   C54   1.384527 A    
H1    C57   1.082295 S    
C34   C50   1.412867 A    
Zn1   N1    2.068940 S    
C46   C50   1.387694 A    
C11   C43   1.403558 A    
H2    C58   1.083254 S    
C45   C49   1.387919 A    
O8    C4    1.316441 A    
N1    C85   1.341620 A    
H8    C48   1.083976 S    
C12   H12   1.083821 S    
C30   C40   1.411632 A    
C40   C44   1.420515 A    
C65   H33   1.083738 S    
C35   C51   1.414802 A    
C43   C45   1.392070 A    
C86   H36   1.075778 S    
C56   H16   1.079618 S    
O3    Zn2   1.967134 S    
C82   C84   1.380194 A    
C84   H44   1.065650 S    
C39   C55   1.389039 A    
C70   H42   1.082649 S    
O7    Zn4   1.941890 S    
C25   H23   1.078399 S    
C49   H25   1.081651 S    
C18   H18   1.083171 S    
Zn4   O15   1.967112 S    
O15   C7    1.306974 A    
O14   C6    1.308164 A    
N8    O23   1.301659 A    
C51   H27   1.081642 S    
C27   C31   1.418437 A    
O1    Zn1   1.967134 S    
N2    C86   1.341623 A    
C38   C54   1.389626 A    
C50   H26   1.081478 S    
C37   C53   1.389023 A    
C15   C55   1.385549 A    
C68   C70   1.385208 A    
C22   C26   1.400087 A    
C13   C57   1.400863 A    
C79   C81   1.387287 A    
C68   H38   1.079883 S    
C20   H20   1.083178 S    
C70   C72   1.389322 A    
C73   C77   1.411746 A    
C9    H9    1.083947 S    
C15   C59   1.400808 A    
Zn2   O11   1.942012 S    
N6    O20   1.301586 A    
H31   C81   1.084454 S    
O16   C8    1.308118 A    
C11   C59   1.393902 A    
C72   C74   1.416608 A    
C12   C44   1.403613 A    
C65   C79   1.395911 A    
C25   C29   1.418390 A    
C14   C58   1.400141 A    
C76   C84   1.400243 A    
H6    C46   1.084035 S    
C83   H43   1.065658 S    
C36   C64   1.404647 A    
C21   N5    1.441542 S    
Zn1   O9    1.942012 S    
C28   C32   1.418558 A    
O9    C5    1.314338 A    
N6    O19   1.301736 A    
C76   N4    1.354337 A    
C18   C22   1.396308 A    
C52   H28   1.081500 S    
C47   C51   1.387963 A    
C29   C39   1.411301 A    
C12   C60   1.393738 A    
H5    C45   1.084029 S    
C17   C21   1.396507 A    
C1    C62   1.457319 S    
C75   N3    1.354342 A    
C19   C23   1.396561 A    
O4    Zn2   1.966906 S    
C54   H14   1.079538 S    
Zn4   O16   1.966883 S    
O5    Zn3   1.941890 S    
O3    C3    1.307013 A    
O6    C2    1.316453 A    
C85   H35   1.075776 S    
C22   N6    1.441235 S    
C55   H15   1.079655 S    
C29   C33   1.404555 A    
Zn3   O13   1.967112 S    
C24   C28   1.400089 A    
N5    O18   1.301824 A    
C16   C60   1.400280 A    
C24   N8    1.441178 S    
C69   C71   1.389317 A    
C77   C79   1.424242 A    
C66   C80   1.395908 A    
C10   H10   1.083726 S    
C77   C85   1.394564 A    
C17   C61   1.404238 A    
H32   C82   1.084452 S    
C5    C14   1.446642 S    
C66   H34   1.083734 S    
C20   C24   1.396290 A    
C17   H17   1.083231 S    
H7    C47   1.084069 S    
C73   C75   1.410439 A    
O2    C2    1.308321 A    
