data_mof_unit_38536.cif
_audit_creation_date              2012-12-11T15:48:48-0500
_audit_creation_method            fapswitch 2.2
_symmetry_space_group_name_H-M    P1
_symmetry_Int_Tables_number       1
_space_group_crystal_system       triclinic
_cell_length_a                    11.065594
_cell_length_b                    10.932631
_cell_length_c                    18.81082
_cell_angle_alpha                 90.248668
_cell_angle_beta                  90.144068
_cell_angle_gamma                 60.485935
_cell_volume                      1980.3386318

loop_
_atom_site_label
_atom_site_type_symbol
_atom_type_description
_atom_site_fract_x
_atom_site_fract_y
_atom_site_fract_z
_atom_type_partial_charge
C1    C     C_R   0.239368 0.646785 0.610224 0.545853
C2    C     C_R   0.570444 0.146301 0.711256 -0.180617
C3    C     C_R   0.570461 0.146275 0.784422 -0.164108
C4    C     C_R   0.654064 0.621052 0.601229 0.533890
C5    C     C_3   0.914356 0.118709 0.785957 -0.253598
C6    C     C_3   0.901918 0.130319 0.705819 -0.243687
C7    C     C_R   0.660888 0.177793 0.674707 0.013100
C8    C     C_R   0.175963 0.673300 0.834121 -0.006245
C9    C     C_R   0.152965 0.580538 0.792976 0.006662
C10   C     C_R   0.161847 0.579115 0.719642 -0.033803
C11   C     C_R   0.199240 0.779631 0.724820 0.037180
C12   C     C_3   0.703409 0.533205 0.799327 -0.252382
C13   C     C_R   0.199291 0.772789 0.798852 -0.158528
C14   C     C_3   0.223442 0.424251 0.796678 -0.274397
C15   C     C_3   0.231069 0.423092 0.716148 -0.265016
C16   C     C_R   0.626887 0.229053 0.602573 0.537381
C17   C     C_R   0.190934 0.673141 0.683805 0.023987
C18   C     C_R   0.646715 0.663244 0.164343 0.020595
C19   C     C_R   0.702234 0.526835 0.192040 0.025604
C20   C     C_R   0.692949 0.506355 0.264051 0.019446
C21   C     C_R   0.560981 0.756148 0.282886 -0.171930
C22   C     C_R   0.569676 0.777651 0.210231 -0.168400
C23   C     C_3   0.703127 0.672248 0.812653 0.047926
C24   C     C_3   0.846921 0.404361 0.188076 -0.269700
C25   C     C_3   0.839205 0.388478 0.267346 -0.271854
C26   C     C_R   0.625633 0.619534 0.310697 0.011130
C27   C     C_R   0.660396 0.154392 0.176163 0.025446
C28   C     C_R   0.222428 0.649851 0.401455 0.550246
C29   C     C_R   0.529921 0.236350 0.206046 0.009905
C30   C     C_R   0.517888 0.250442 0.278655 0.036513
C31   C     C_R   0.766162 0.111176 0.293666 -0.190135
C32   C     C_R   0.779143 0.096111 0.220472 -0.166272
C33   C     C_3   0.400867 0.225521 0.199071 -0.278726
C34   C     C_3   0.675575 0.644420 0.676760 0.036690
C35   C     C_3   0.390960 0.234990 0.279241 -0.259541
C36   C     C_R   0.634600 0.185949 0.322985 0.029167
C37   C     C_R   0.150113 0.666526 0.182250 -0.027741
C38   C     C_R   0.223763 0.726540 0.212801 0.008888
C39   C     C_R   0.234203 0.728835 0.285038 0.000626
C40   C     C_R   0.618598 0.592288 0.385964 0.551363
C41   C     C_R   0.110016 0.600213 0.299669 0.212499
C42   C     C_R   0.100751 0.595462 0.225721 -0.150066
C43   C     C_3   0.205697 0.871929 0.206513 -0.260250
C44   C     C_3   0.208121 0.876444 0.286491 -0.261880
C45   C     C_3   0.799723 0.668942 0.688404 -0.255319
C46   C     C_R   0.177214 0.668486 0.329134 0.022562
C47   C     C_R   0.700796 0.100921 0.895987 0.541535
C48   C     C_R   0.724925 0.688042 0.888315 0.544763
C49   C     C_R   0.118194 0.706417 0.905805 0.542198
C50   C     C_R   0.677298 0.103971 0.104377 0.549622
C51   C     C_R   0.695726 0.688773 0.096906 0.547060
C52   C     C_R   0.615452 0.229333 0.395636 0.536653
C53   C     C_R   0.092363 0.709325 0.112584 0.554589
C54   C     C_3   0.564801 0.794609 0.785667 -0.233334
C55   C     C_3   0.545404 0.768892 0.707806 -0.222734
C56   C     C_3   0.700964 0.511460 0.718925 -0.214154
C57   C     C_3   0.823291 0.672153 0.769222 -0.215096
C58   C     C_3   0.936318 0.645356 0.379680 -0.004323
C59   C     C_3   0.942342 0.602267 0.457149 -0.321301
C60   C     C_R   0.674584 0.156932 0.823876 0.019554
C61   C     C_R   0.760872 0.193102 0.787439 -0.019169
C62   C     C_R   0.750918 0.206074 0.713761 -0.005329
Cr1   Cr    Cr6+3 0.392960 0.397920 0.502240 1.017761
Cr2   Cr    Cr6+3 0.398340 0.708480 0.501250 1.033297
Cr3   Cr    Cr6+3 0.708670 0.393570 0.496460 0.999820
Cr4   Cr    Cr6+3 0.937650 0.938540 0.007610 1.002997
Cr5   Cr    Cr6+3 0.625330 0.937370 0.994520 1.003679
Cr6   Cr    Cr6+3 0.937940 0.625230 0.001190 1.004653
H1    H     H_    0.566493 0.894734 0.790262 0.146147
H2    H     H_    0.935468 0.028156 0.678381 0.173502
H3    H     H_    0.475905 0.804502 0.817717 0.136209
H4    H     H_    0.209188 0.852165 0.828889 0.155958
H5    H     H_    0.153950 0.386038 0.817262 0.142373
H6    H     H_    0.325978 0.379578 0.823421 0.144228
H7    H     H_    0.337880 0.377757 0.695366 0.179861
H8    H     H_    0.164924 0.385699 0.690018 0.143536
H9    H     H_    0.512052 0.846535 0.317840 0.122212
H10   H     H_    0.527832 0.884164 0.191526 0.127109
H11   H     H_    0.927699 0.431558 0.173587 0.157768
H12   H     H_    0.802963 0.422974 0.703008 0.147457
H13   H     H_    0.851167 0.315290 0.157272 0.142034
H14   H     H_    0.848270 0.287605 0.282978 0.152157
H15   H     H_    0.466061 0.735686 0.705963 0.182273
H16   H     H_    0.908500 0.416337 0.297706 0.189413
H17   H     H_    0.857673 0.065131 0.327123 0.109471
H18   H     H_    0.881588 0.029974 0.199224 0.142682
H19   H     H_    0.418669 0.122969 0.178298 0.150888
H20   H     H_    0.316154 0.318696 0.172102 0.141924
H21   H     H_    0.298519 0.330356 0.299049 0.194984
H22   H     H_    0.409477 0.135530 0.304699 0.133185
H23   H     H_    0.921386 0.576451 0.783379 0.147300
H24   H     H_    0.042259 0.549636 0.203212 0.140236
H25   H     H_    0.105302 0.953874 0.185029 0.152408
H26   H     H_    0.514732 0.865697 0.676196 0.159882
H27   H     H_    0.296954 0.870473 0.181390 0.143385
H28   H     H_    0.294793 0.886707 0.308812 0.155120
H29   H     H_    0.105528 0.950779 0.309990 0.125308
H30   H     H_    0.833912 0.765731 0.782692 0.124031
H31   H     H_    0.778169 0.770276 0.663979 0.116457
H32   H     H_    0.797564 0.442981 0.822511 0.135977
H33   H     H_    0.611024 0.536460 0.824662 0.119434
H34   H     H_    0.894967 0.583745 0.662994 0.128767
H35   H     H_    0.618495 0.484472 0.706318 0.129392
H36   H     H_    0.840720 0.656270 0.354975 0.163645
H37   H     H_    0.926106 0.752230 0.378793 0.098373
H38   H     H_    0.025084 0.611578 0.485877 0.145173
H39   H     H_    0.841576 0.672190 0.483532 0.114485
H40   H     H_    0.964340 0.491831 0.460631 0.190815
H41   H     H_    0.493947 0.129077 0.683679 0.146572
H42   H     H_    0.493501 0.126668 0.809175 0.147394
H43   H     H_    0.959305 0.009566 0.805603 0.176669
H44   H     H_    0.957801 0.181833 0.809981 0.141612
H45   H     H_    0.940470 0.197337 0.682075 0.168928
I1    I     I_    0.218096 0.955600 0.684584 -0.530473
O1    O     O_R   0.507380 0.255700 0.581440 -0.531592
O2    O     O_R   0.837170 0.593410 0.915250 -0.529563
O3    O     O_R   0.065200 0.635530 0.931570 -0.498490
O4    O     O_R   0.280320 0.527350 0.578930 -0.519115
O5    O     O_R   0.068260 0.828890 0.091840 -0.528799
O6    O     O_R   0.798870 0.057410 0.079340 -0.518089
O7    O     O_R   0.584930 0.080350 0.076780 -0.522726
O8    O     O_R   0.626960 0.809650 0.067060 -0.506462
O9    O     O_R   0.816040 0.596610 0.076510 -0.528006
O10   O     O_R   0.045610 0.638500 0.081060 -0.513271
O11   O     O_3   0.833640 0.833710 0.001100 -0.252433
O12   O     O_R   0.524480 0.695810 0.424040 -0.510247
O13   O     O_R   0.260510 0.739590 0.584590 -0.477562
O14   O     O_R   0.532300 0.695080 0.573820 -0.487837
O15   O     O_R   0.744840 0.503500 0.576370 -0.532872
O16   O     O_R   0.699120 0.276560 0.571960 -0.497072
O17   O     O_R   0.498940 0.256500 0.419860 -0.516386
O18   O     O_R   0.272500 0.528080 0.429150 -0.477355
O19   O     O_R   0.252060 0.740380 0.423010 -0.533053
O20   O     O_3   0.052200 0.539577 0.342205 -0.580890
O21   O     O_R   0.736390 0.504290 0.414790 -0.534386
O22   O     O_R   0.691300 0.277290 0.422170 -0.514190
O23   O     O_3   0.499990 0.499990 0.499980 -0.273850
O24   O     O_R   0.089400 0.825690 0.930570 -0.530927
O25   O     O_R   0.818460 0.054440 0.929850 -0.501570
O26   O     O_R   0.606060 0.077150 0.915510 -0.534879
O27   O     O_R   0.646550 0.806680 0.917570 -0.509842

loop_
_geom_bond_atom_site_label_1
_geom_bond_atom_site_label_2
_ccdc_geom_bond_type
C15   H7    S    
C21   C26   A    
Cr5   O8    S    
C2    H41   S    
C34   C56   S    
C8    C13   A    
C31   H17   S    
C27   C29   A    
C28   C46   S    
C51   O9    A    
C41   C42   A    
C2    C7    A    
C24   H13   S    
Cr6   O10   S    
Cr3   O16   S    
C6    H45   S    
C58   O20   S    
C12   C23   S    
C45   C57   S    
C29   C30   A    
C30   C35   S    
C50   O6    A    
C14   H6    S    
C33   H20   S    
C10   C15   S    
Cr5   O11   S    
C38   C39   A    
C20   C25   S    
C3    H42   S    
C29   C33   S    
C23   C57   S    
C18   C19   A    
C37   C42   A    
C11   I1    S    
C33   C35   S    
C47   C60   S    
Cr2   O19   S    
C49   O3    A    
C54   H3    S    
C19   C20   A    
C8    C9    A    
Cr2   O14   S    
C47   O26   A    
C25   H16   S    
C43   H27   S    
C41   C46   A    
Cr1   O17   S    
C16   O16   A    
C9    C10   A    
C31   C36   A    
C36   C52   S    
C27   C50   S    
C48   O2    A    
Cr1   O1    S    
C3    C60   A    
C21   H9    S    
C15   H8    S    
C40   O12   A    
C34   C55   S    
Cr4   O6    S    
C21   C22   A    
Cr1   O23   S    
C50   O7    A    
Cr3   O23   S    
C55   H26   S    
Cr5   O7    S    
Cr6   O9    S    
C41   O20   S    
C18   C51   S    
Cr2   O23   S    
C40   O21   A    
C4    C34   S    
C59   H38   S    
C4    O14   A    
C28   O19   A    
C14   H5    S    
C24   C25   S    
C22   H10   S    
C45   H31   S    
Cr1   O4    S    
C5    H43   S    
C58   C59   S    
C59   H39   S    
C60   C61   A    
C28   O18   A    
C43   C44   S    
C7    C62   A    
C37   C38   A    
C44   H28   S    
Cr6   O3    S    
C44   H29   S    
C24   H11   S    
C31   C32   A    
Cr4   O24   S    
Cr2   O13   S    
C32   H18   S    
C9    C14   S    
C5    C61   S    
C34   C45   S    
C12   C56   S    
Cr1   O18   S    
Cr5   O26   S    
Cr3   O21   S    
Cr6   O2    S    
C39   C46   A    
C35   H21   S    
C7    C16   S    
C5    H44   S    
Cr2   O12   S    
Cr4   O5    S    
C25   H14   S    
C52   O22   A    
C58   H36   S    
C55   H15   S    
Cr5   O27   S    
C16   O1    A    
C23   C54   S    
C6    H2    S    
C54   C55   S    
C11   C17   A    
C23   C48   S    
C57   H23   S    
C27   C32   A    
C18   C22   A    
C52   O17   A    
C1    O13   A    
C56   H35   S    
C53   O10   A    
Cr3   O15   S    
C53   O5    A    
C39   C44   S    
C13   H4    S    
C1    C17   S    
C59   H40   S    
C56   H12   S    
Cr4   O11   S    
C30   C36   A    
C4    O15   A    
C58   H37   S    
C6    C62   S    
C2    C3    A    
C33   H19   S    
C37   C53   S    
C12   H33   S    
C11   C13   A    
C26   C40   S    
C5    C6    S    
C54   H1    S    
C20   C26   A    
C57   H30   S    
Cr6   O11   S    
C43   H25   S    
C48   O27   A    
C19   C24   S    
C42   H24   S    
C1    O4    A    
C61   C62   A    
Cr4   O25   S    
C12   H32   S    
Cr3   O22   S    
C45   H34   S    
C35   H22   S    
C38   C43   S    
C47   O25   A    
C51   O8    A    
C14   C15   S    
C10   C17   A    
C49   O24   A    
C8    C49   S    
