data_mof_unit_48086.cif
_audit_creation_date              2012-12-11T14:08:37-0500
_audit_creation_method            fapswitch 2.2
_symmetry_space_group_name_H-M    P1
_symmetry_Int_Tables_number       1
_space_group_crystal_system       monoclinic
_cell_length_a                    28.188181
_cell_length_b                    7.184765
_cell_length_c                    17.263606
_cell_angle_alpha                 90.0
_cell_angle_beta                  101.65949
_cell_angle_gamma                 90.0
_cell_volume                      3424.17642277

loop_
_atom_site_label
_atom_site_type_symbol
_atom_type_description
_atom_site_fract_x
_atom_site_fract_y
_atom_site_fract_z
_atom_type_partial_charge
O1    O     O_R   0.000700 0.436510 0.857920 -0.513643
O2    O     O_R   0.999300 0.563490 0.142080 -0.526196
O3    O     O_R   0.999300 0.936510 0.642080 -0.513644
O4    O     O_R   0.000700 0.063490 0.357920 -0.526196
O5    O     O_R   0.930080 0.766380 0.721890 -0.505114
O6    O     O_R   0.069920 0.233620 0.278110 -0.498787
O7    O     O_R   0.069920 0.266380 0.778110 -0.505115
O8    O     O_R   0.930080 0.733620 0.221890 -0.498787
C1    C     C_R   0.910456 0.597960 0.709120 0.725994
C2    C     C_R   0.089572 0.402079 0.290573 0.717104
C3    C     C_R   0.089544 0.097960 0.790880 0.725994
C4    C     C_R   0.910428 0.902079 0.209427 0.717103
O9    O     O_R   0.996180 0.766230 0.862310 -0.550025
O10   O     O_R   0.003820 0.233770 0.137690 -0.551471
O11   O     O_R   0.003820 0.266230 0.637690 -0.550026
O12   O     O_R   0.996180 0.733770 0.362310 -0.551471
O13   O     O_R   0.065870 0.936460 0.783500 -0.549004
O14   O     O_R   0.934130 0.063540 0.216500 -0.551997
O15   O     O_R   0.934130 0.436460 0.716500 -0.549004
O16   O     O_R   0.065870 0.563540 0.283500 -0.551997
C5    C     C_R   0.997638 0.595940 0.894203 0.693115
C6    C     C_R   0.001941 0.404060 0.105770 0.699852
C7    C     C_R   0.002362 0.095940 0.605797 0.693115
C8    C     C_R   0.998058 0.904060 0.394230 0.699852
O17   O     O_3   0.022790 0.603020 0.723980 -0.373170
O18   O     O_3   0.977210 0.396980 0.276020 -0.380191
O19   O     O_3   0.977210 0.103020 0.776020 -0.373170
O20   O     O_3   0.022790 0.896980 0.223980 -0.380191
V1    V     V_3+5 0.995770 0.877900 0.754830 1.496347
V2    V     V_3+5 0.004230 0.122100 0.245170 1.455203
V3    V     V_3+5 0.004230 0.377900 0.745170 1.496346
V4    V     V_3+5 0.995770 0.622100 0.254830 1.455202
C9    C     C_2   0.008070 0.077769 0.521984 0.150111
C10   C     C_2   0.992044 0.922488 0.477702 0.187717
C11   C     C_2   0.991929 0.577769 0.978016 0.150111
C12   C     C_2   0.007956 0.422488 0.022298 0.187716
C13   C     C_R   0.683963 0.996882 0.030565 0.634532
C14   C     C_R   0.315881 0.004455 0.971090 0.629283
C15   C     C_R   0.316037 0.496881 0.469435 0.634533
C16   C     C_R   0.684119 0.504456 0.528910 0.629282
O21   O     O_2   0.714225 0.031433 0.980869 -0.514518
O22   O     O_2   0.285593 0.969426 0.020697 -0.520100
O23   O     O_2   0.285774 0.531431 0.519131 -0.514519
O24   O     O_2   0.714407 0.469428 0.479303 -0.520100
N1    N     N_R   0.702493 0.950339 0.107745 -0.547202
N2    N     N_R   0.297380 0.051281 0.893939 -0.547273
N3    N     N_R   0.297507 0.450339 0.392255 -0.547202
N4    N     N_R   0.702620 0.551281 0.606061 -0.547274
C17   C     C_R   0.672280 0.907069 0.158182 0.626611
C18   C     C_R   0.327602 0.094984 0.843578 0.630705
C19   C     C_R   0.327721 0.407070 0.341818 0.626611
C20   C     C_R   0.672398 0.594984 0.656422 0.630705
C21   C     C_R   0.776129 0.766529 0.158678 -0.167343
C22   C     C_R   0.223643 0.234788 0.843374 -0.165705
C23   C     C_R   0.223871 0.266529 0.341322 -0.167343
C24   C     C_R   0.776357 0.734788 0.656625 -0.165705
C25   C     C_R   0.826634 0.751749 0.185423 0.431872
C26   C     C_R   0.173240 0.248974 0.816673 0.414774
C27   C     C_R   0.173366 0.251749 0.314577 0.431872
C28   C     C_R   0.826759 0.748974 0.683327 0.414774
C29   C     C_R   0.833876 0.082912 0.160967 -0.272139
C30   C     C_R   0.166119 0.917207 0.839494 -0.276013
C31   C     C_R   0.166124 0.582912 0.339033 -0.272139
C32   C     C_R   0.833881 0.417207 0.660506 -0.276014
C33   C     C_R   0.783570 0.096304 0.136852 -0.089557
C34   C     C_R   0.216421 0.904388 0.864091 -0.083776
C35   C     C_R   0.216430 0.596304 0.363148 -0.089557
C36   C     C_R   0.783578 0.404388 0.635909 -0.083777
C37   C     C_R   0.754355 0.938131 0.135098 0.303754
C38   C     C_R   0.245527 0.063134 0.866521 0.303093
C39   C     C_R   0.245645 0.438131 0.364902 0.303754
C40   C     C_R   0.754473 0.563134 0.633479 0.303093
C41   C     C_R   0.601894 0.969886 0.054036 -0.063927
C42   C     C_R   0.397964 0.031942 0.947734 -0.063999
C43   C     C_R   0.398105 0.469885 0.445964 -0.063927
C44   C     C_R   0.602036 0.531942 0.552266 -0.064000
C45   C     C_R   0.633479 0.005961 0.002299 -0.103284
C46   C     C_R   0.366361 0.995529 0.999407 -0.100377
C47   C     C_R   0.366521 0.505960 0.497701 -0.103284
C48   C     C_R   0.633638 0.495530 0.500593 -0.100377
C49   C     C_R   0.614066 0.037255 0.922377 -0.220093
C50   C     C_R   0.385748 0.963974 0.079313 -0.222402
C51   C     C_R   0.385934 0.537254 0.577623 -0.220093
C52   C     C_R   0.614251 0.463976 0.420687 -0.222402
C53   C     C_R   0.621595 0.913630 0.131942 -0.117304
C54   C     C_R   0.378282 0.088461 0.869854 -0.118832
C55   C     C_R   0.378405 0.413631 0.368058 -0.117305
C56   C     C_R   0.621718 0.588460 0.630146 -0.118833
C57   C     C_R   0.856395 0.911248 0.184979 -0.148605
C58   C     C_R   0.143523 0.088950 0.815870 -0.159331
C59   C     C_R   0.143604 0.411248 0.315020 -0.148605
C60   C     C_R   0.856477 0.588950 0.684130 -0.159331
H1    H     H_    0.855197 0.207833 0.159996 0.200322
H2    H     H_    0.144873 0.791858 0.839775 0.195492
H3    H     H_    0.144803 0.707832 0.340004 0.200322
H4    H     H_    0.855126 0.291858 0.660225 0.195491
H5    H     H_    0.767293 0.230043 0.118815 0.148893
H6    H     H_    0.232783 0.770617 0.881810 0.148473
H7    H     H_    0.232707 0.730042 0.381186 0.148893
H8    H     H_    0.767217 0.270617 0.618189 0.148473
H9    H     H_    0.637495 0.048555 0.879969 0.201838
H10   H     H_    0.362299 0.952378 0.121678 0.200996
H11   H     H_    0.362505 0.548552 0.620031 0.201838
H12   H     H_    0.637701 0.452381 0.378322 0.200996
C61   C     C_R   0.480516 0.062113 0.922156 -0.051640
C62   C     C_R   0.519344 0.939800 0.079670 -0.051316
C63   C     C_R   0.519484 0.562112 0.577844 -0.051640
C64   C     C_R   0.480656 0.439801 0.420330 -0.051315
C65   C     C_R   0.468349 0.967244 0.054534 -0.038351
C66   C     C_R   0.531497 0.034473 0.947263 -0.039038
C67   C     C_R   0.531651 0.467245 0.445466 -0.038351
C68   C     C_R   0.468503 0.534472 0.552737 -0.039038
C69   C     C_R   0.449154 0.017596 0.974585 -0.071238
C70   C     C_R   0.550701 0.984248 0.027218 -0.071080
C71   C     C_R   0.550846 0.517596 0.525415 -0.071238
C72   C     C_R   0.449299 0.484247 0.472782 -0.071080
C73   C     C_R   0.459469 0.145434 0.848519 0.744131
C74   C     C_R   0.540418 0.856698 0.153341 0.745490
C75   C     C_R   0.540531 0.645433 0.651481 0.744131
C76   C     C_R   0.459582 0.356700 0.346658 0.745489
C77   C     C_R   0.409459 0.148754 0.821615 -0.176059
C78   C     C_R   0.590430 0.853536 0.180237 -0.176248
C79   C     C_R   0.590540 0.648753 0.678385 -0.176058
C80   C     C_R   0.409569 0.353537 0.319762 -0.176247
O25   O     O_2   0.308755 0.144119 0.768193 -0.516592
O26   O     O_2   0.691139 0.858293 0.233607 -0.519538
O27   O     O_2   0.691245 0.644118 0.731807 -0.516592
O28   O     O_2   0.308860 0.358294 0.266393 -0.519538
C81   C     C_R   0.564169 0.041705 0.894434 0.711930
C82   C     C_R   0.435641 0.959648 0.107307 0.711699
C83   C     C_R   0.435831 0.541704 0.605566 0.711931
C84   C     C_R   0.564359 0.459649 0.392692 0.711699
H13   H     H_    0.245864 0.358661 0.846538 0.138208
H14   H     H_    0.753674 0.643328 0.155293 0.134699
H15   H     H_    0.754136 0.858661 0.653461 0.138208
H16   H     H_    0.246326 0.143328 0.344707 0.134699
H17   H     H_    0.395195 0.208886 0.764049 0.208267
H18   H     H_    0.604710 0.793567 0.237831 0.207552
H19   H     H_    0.604805 0.708884 0.735951 0.208266
H20   H     H_    0.395290 0.293568 0.262168 0.207552
O29   O     O_3   0.038559 0.201559 0.494121 -0.576456
C85   C     C_3   0.016280 0.377171 0.479881 -0.103214
H21   H     H_    0.024149 0.464231 0.533991 0.168130
H22   H     H_    0.976494 0.368749 0.456016 0.113846
H23   H     H_    0.032826 0.448471 0.435051 0.164585
O30   O     O_3   0.968535 0.780469 0.509286 -0.563667
C86   C     C_3   0.918402 0.793604 0.478198 -0.274980
H24   H     H_    0.910017 0.767190 0.413393 0.124578
H25   H     H_    0.903834 0.931370 0.491617 0.128917
H26   H     H_    0.899562 0.685462 0.506588 0.167835
O31   O     O_3   0.961441 0.701559 0.005879 -0.576456
C87   C     C_3   0.983720 0.877171 0.020119 -0.103214
H27   H     H_    0.975851 0.964231 0.966009 0.168130
H28   H     H_    0.023506 0.868749 0.043984 0.113846
H29   H     H_    0.967174 0.948471 0.064949 0.164585
O32   O     O_3   0.031465 0.280468 0.990714 -0.563667
C88   C     C_3   0.081598 0.293605 0.021801 -0.274979
H30   H     H_    0.089983 0.267193 0.086606 0.124578
H31   H     H_    0.096166 0.431371 0.008382 0.128917
H32   H     H_    0.100438 0.185463 0.993411 0.167835
O33   O     O_3   0.153147 0.422145 0.796484 -0.559927
C89   C     C_3   0.159519 0.467256 0.719747 -0.194442
H33   H     H_    0.143137 0.359857 0.675859 0.139043
H34   H     H_    0.198484 0.487100 0.718387 0.156162
H35   H     H_    0.140718 0.600762 0.701752 0.158714
O34   O     O_3   0.847192 0.579287 0.206437 -0.550735
C90   C     C_3   0.833171 0.516399 0.275944 -0.225050
H36   H     H_    0.795225 0.464896 0.262862 0.156333
H37   H     H_    0.837780 0.625882 0.322575 0.124748
H38   H     H_    0.856742 0.397675 0.300102 0.156571
O35   O     O_3   0.846853 0.922145 0.703516 -0.559927
C91   C     C_3   0.840480 0.967257 0.780252 -0.194444
H39   H     H_    0.856862 0.859859 0.824141 0.139044
H40   H     H_    0.801515 0.987104 0.781611 0.156162
H41   H     H_    0.859281 0.100763 0.798248 0.158714
O36   O     O_3   0.152807 0.079287 0.293563 -0.550735
C92   C     C_3   0.166829 0.016399 0.224056 -0.225048
H42   H     H_    0.204775 0.964896 0.237138 0.156333
H43   H     H_    0.162220 0.125882 0.177425 0.124747
H44   H     H_    0.143258 0.897675 0.199898 0.156570
F1    F     F_    0.485901 0.246081 0.806029 -0.567974
F2    F     F_    0.514022 0.756019 0.195869 -0.568342
F3    F     F_    0.514099 0.746079 0.693972 -0.567975
F4    F     F_    0.485978 0.256022 0.304130 -0.568342
F5    F     F_    0.548996 0.029159 0.814949 -0.579645
F6    F     F_    0.450752 0.971865 0.186804 -0.580601
F7    F     F_    0.451004 0.529157 0.685051 -0.579645
F8    F     F_    0.549248 0.471867 0.313196 -0.580601

loop_
_geom_bond_atom_site_label_1
_geom_bond_atom_site_label_2
_ccdc_geom_bond_type
O17   V3    S    
C61   C66   A    
O1    C5    A    
C88   H30   S    
C23   C27   A    
O19   V1    S    
O13   V1    S    
C63   C68   A    
C64   C76   A    
O3    C7    A    
C86   H24   S    
O35   C91   S    
C21   C37   A    
C84   F8    S    
O33   C89   S    
C90   H37   S    
C49   H9    S    
O7    C3    A    
C17   O26   S    
C51   H11   S    
C62   C70   A    
C19   O28   S    
C32   C36   A    
O9    V1    S    
O32   C88   S    
C86   H25   S    
O10   V2    S    
C14   O22   S    
N4    C20   A    
C81   F5    S    
O16   V4    S    
C55   C80   A    
O4    C8    A    
C29   H1    S    
C23   H16   S    
C79   H19   S    
O1    V3    S    
C44   C71   A    
C66   C81   A    
O2    V4    S    
C31   C59   A    
C74   C78   A    
C77   H17   S    
O3    V1    S    
C73   C77   A    
C1    O15   A    
C11   C12   D    
C2    O16   A    
C24   C40   A    
O2    C6    A    
O31   C87   S    
C16   C48   A    
O14   V2    S    
N1    C17   A    
C50   C82   A    
C44   C56   A    
O5    V1    S    
C91   H41   S    
C65   C69   A    
O11   C7    A    
O15   V3    S    
O12   C8    A    
C62   C74   A    
C85   H23   S    
C61   C73   A    
C11   O31   S    
N4    C40   S    
C56   C79   A    
C1    C60   S    
C63   C75   A    
C20   O27   S    
C29   C57   A    
C90   H38   S    
C89   H34   S    
C28   C60   A    
C31   C35   A    
O7    V3    S    
C30   C34   A    
N1    C37   S    
C48   C52   A    
O8    V4    S    
C17   C53   A    
C4    C57   S    
C20   C56   A    
C86   H26   S    
C78   H18   S    
C27   O36   S    
C19   C55   A    
C90   H36   S    
C21   C25   A    
O18   V4    S    
C15   O23   S    
C25   O34   S    
C14   C46   A    
C7    C9    S    
C42   C69   A    
C13   C45   A    
C52   C84   A    
C8    C10   S    
C41   C70   A    
C24   C28   A    
C36   C40   A    
C15   C47   A    
C36   H8    S    
O5    C1    A    
C89   H35   S    
C26   C58   A    
C46   C50   A    
C49   C81   A    
C22   C38   A    
C87   H29   S    
C45   C49   A    
O8    C4    A    
C92   H44   S    
N3    C39   S    
C54   C77   A    
C9    C10   D    
C50   H10   S    
C73   F1    S    
O9    C5    A    
C53   C78   A    
C18   O25   S    
C75   F3    S    
C42   C54   A    
C76   F4    S    
C41   C53   A    
O30   C86   S    
C25   C57   A    
C34   H6    S    
C31   H3    S    
C43   C55   A    
O36   C92   S    
O6    V2    S    
C87   H28   S    
C2    C59   S    
C88   H32   S    
C75   C79   A    
C30   H2    S    
O34   C90   S    
C52   H12   S    
C85   H22   S    
C27   C59   A    
C32   C60   A    
C13   N1    A    
C68   C72   A    
C24   H15   S    
C91   H39   S    
C12   O32   S    
C15   N3    A    
C89   H33   S    
C22   C26   A    
C74   F2    S    
C61   C69   A    
C16   N4    A    
C66   C70   A    
C3    O13   A    
N2    C38   S    
C28   O35   S    
C80   H20   S    
C21   H14   S    
C44   C48   A    
O6    C2    A    
N3    C19   A    
C82   F6    S    
O11   V3    S    
C5    C11   S    
C35   H7    S    
O12   V4    S    
C6    C12   S    
N2    C18   A    
C64   C67   A    
C10   O30   S    
C9    O29   S    
C64   C72   A    
O20   V2    S    
C51   C83   A    
C33   H5    S    
O29   C85   S    
C47   C51   A    
C22   H13   S    
C3    C58   S    
O10   C6    A    
C34   C38   A    
C33   C37   A    
C30   C58   A    
C91   H40   S    
C92   H43   S    
C63   C71   A    
C32   H4    S    
C35   C39   A    
C68   C83   A    
C13   O21   S    
O4    V2    S    
C14   N2    A    
C18   C54   A    
C29   C33   A    
C67   C84   A    
C16   O24   S    
C87   H27   S    
C88   H31   S    
C92   H42   S    
C42   C46   A    
C4    O14   A    
C65   C82   A    
C41   C45   A    
C85   H21   S    
C67   C71   A    
C43   C72   A    
C26   O33   S    
C43   C47   A    
C23   C39   A    
C76   C80   A    
C62   C65   A    
C83   F7    S    
