data_mof_unit_18913.cif
_audit_creation_date              2013-03-05T15:41:38-0500
_audit_creation_method            fapswitch 2.2
_symmetry_space_group_name_H-M    P1
_symmetry_Int_Tables_number       1
_space_group_crystal_system       triclinic
_cell_length_a                    7.764084
_cell_length_b                    8.586262
_cell_length_c                    15.73999
_cell_angle_alpha                 90.488624
_cell_angle_beta                  85.967257
_cell_angle_gamma                 93.687659
_cell_volume                      1044.52423703

loop_
_atom_site_label
_atom_site_type_symbol
_atom_site_description
_atom_site_fract_x
_atom_site_fract_y
_atom_site_fract_z
_atom_type_partial_charge
O1    O     O_R   0.389240 0.738570 0.505550 -0.613617
O2    O     O_R   0.678400 0.711630 0.491050 -0.629232
C1    C     C_R   0.545859 0.794779 0.497821 0.963793
O3    O     O_R   0.355360 0.513470 0.630110 -0.606361
O4    O     O_R   0.644510 0.486530 0.615610 -0.607988
C2    C     C_R   0.502045 0.498484 0.661484 0.896826
Zn1   Zn    Zn3+2 0.306930 0.517990 0.509680 0.984549
Zn2   Zn    Zn3+2 0.693070 0.482010 0.490320 0.986946
O5    O     O_R   0.321600 0.288370 0.508950 -0.628454
O6    O     O_R   0.610760 0.261430 0.494450 -0.612583
O7    O     O_R   0.355490 0.513470 0.384390 -0.618738
O8    O     O_R   0.644640 0.486530 0.369890 -0.605135
C3    C     C_R   0.454145 0.205224 0.502247 0.968664
C4    C     C_R   0.498004 0.501279 0.338497 0.905011
C5    C     C_3   0.369513 0.593337 0.951714 -0.442377
C6    C     C_3   0.696458 0.552265 0.946756 -0.116121
C7    C     C_3   0.677762 0.565730 0.046560 -0.415610
H1    H     H_    0.395909 0.715121 0.929109 0.257262
H2    H     H_    0.695230 0.688791 0.068149 0.248808
H3    H     H_    0.781948 0.508861 0.077096 0.233704
C8    C     C_1   0.493784 0.502520 0.249972 -0.088890
C9    C     C_3   0.513770 0.486699 0.916523 0.023017
C10   C     C_3   0.350224 0.586961 0.049869 0.173136
C11   C     C_3   0.498715 0.494917 0.082983 0.017841
C12   C     C_3   0.481209 0.321468 0.051818 -0.292051
C13   C     C_3   0.462321 0.318125 0.953336 -0.297127
C14   C     C_1   0.494138 0.501105 0.174754 0.002577
C15   C     C_1   0.510555 0.487235 0.824861 0.080994
C16   C     C_1   0.506666 0.492043 0.749869 -0.036500
H4    H     H_    0.323590 0.292152 0.942008 0.166762
H5    H     H_    0.243152 0.553861 0.926652 0.194863
H6    H     H_    0.225222 0.521340 0.068398 0.171650
H7    H     H_    0.603659 0.269572 0.066044 0.237529
C17   C     C_2   0.569949 0.958284 0.496648 -0.347251
H8    H     H_    0.702019 0.009475 0.490114 0.183759
C18   C     C_2   0.430060 0.041723 0.503532 -0.347497
H9    H     H_    0.297991 0.990533 0.510078 0.183029
N1    N     N_2   0.950340 0.457950 0.477370 -0.165433
H10   H     H_    0.013624 0.382466 0.436779 0.199728
N2    N     N_2   0.049660 0.542050 0.522630 -0.162530
H11   H     H_    0.986374 0.617511 0.563235 0.204189
N3    N     N_R   0.341542 0.744022 0.087023 0.226920
O9    O     O_R   0.208131 0.776466 0.137205 -0.369201
O10   O     O_R   0.458199 0.854968 0.065649 -0.344166
C19   C     C_2   0.837465 0.443737 0.916117 0.873528
O11   O     O_2   0.877705 0.432488 0.839791 -0.621763
O12   O     O_R   0.920919 0.356116 0.973440 -0.763974
H12   H     H_    0.007501 0.286802 0.943753 0.370644
C20   C     C_2   0.758855 0.713607 0.911624 0.968970
O13   O     O_2   0.681253 0.778317 0.858433 -0.634837
O14   O     O_R   0.911537 0.786189 0.939534 -0.767049
H13   H     H_    0.942211 0.891576 0.911982 0.376730
C21   C     C_2   0.553427 0.185913 0.907531 0.989970
O15   O     O_2   0.649633 0.106115 0.944330 -0.548905
O16   O     O_R   0.521083 0.151716 0.822883 -0.803058
H14   H     H_    0.588184 0.062074 0.798709 0.373832
C22   C     C_2   0.337771 0.223700 0.100915 0.978020
O17   O     O_2   0.186219 0.233099 0.086275 -0.600189
O18   O     O_R   0.380530 0.126304 0.165886 -0.734324
H15   H     H_    0.274886 0.071842 0.196854 0.377711

loop_
_geom_bond_atom_site_label_1
_geom_bond_atom_site_label_2
_geom_bond_distance
_ccdc_geom_bond_type
C6    C19   1.532573 S    
O4    Zn2   1.982090 S    
N1    N2    1.272964 D    
C10   C11   1.560185 S    
C5    H5    1.114616 S    
C5    H1    1.109298 S    
C18   H9    1.087741 S    
O12   H12   1.013406 S    
C11   C14   1.443009 S    
Zn2   O8    1.959452 S    
C10   H6    1.112246 S    
C7    H3    1.110517 S    
O16   H14   1.013573 S    
C5    C10   1.542782 S    
O2    C1    1.287562 A    
C8    C14   1.183698 T    
O18   H15   1.013582 S    
C9    C15   1.444769 S    
C21   O15   1.223241 D    
C6    C20   1.532542 S    
Zn1   O7    1.982090 S    
C22   O17   1.222627 D    
O4    C2    1.287007 A    
C10   N3    1.468973 S    
N3    O10   1.301012 A    
Zn2   N1    2.017224 S    
O3    Zn1   1.959453 S    
C4    C8    1.396221 S    
Zn2   O6    1.959659 S    
C15   C16   1.184033 T    
C7    H2    1.110075 S    
O8    C4    1.286514 A    
C13   H4    1.112266 S    
C17   C18   1.336742 D    
C21   O16   1.398353 S    
N1    H10   1.029283 S    
O7    C4    1.287734 A    
C22   O18   1.397643 S    
C7    C11   1.554339 S    
N3    O9    1.301024 A    
O14   H13   1.013931 S    
C12   C22   1.520490 S    
C13   C21   1.525271 S    
Zn1   O5    1.982054 S    
C2    C16   1.395818 S    
C11   C12   1.564588 S    
C3    C18   1.404412 S    
O3    C2    1.287043 A    
C17   H8    1.087744 S    
C9    C13   1.580413 S    
C19   O12   1.398721 S    
C20   O13   1.222541 D    
O5    C3    1.287552 A    
N2    H11   1.029291 S    
C6    C9    1.594653 S    
C1    C17   1.404432 S    
O1    Zn1   1.959659 S    
C12   C13   1.567116 S    
C19   O11   1.224486 D    
Zn1   N2    2.017224 S    
C5    C9    1.560658 S    
O2    Zn2   1.982055 S    
C20   O14   1.400063 S    
C12   H7    1.112962 S    
C6    C7    1.571368 S    
O1    C1    1.277139 A    
O6    C3    1.277138 A    
