data_mof_unit_7907.cif
_audit_creation_date              2012-12-10T17:10:17-0500
_audit_creation_method            fapswitch 2.2
_symmetry_space_group_name_H-M    P1
_symmetry_Int_Tables_number       1
_space_group_crystal_system       triclinic
_cell_length_a                    15.713373
_cell_length_b                    10.800266
_cell_length_c                    10.06655
_cell_angle_alpha                 90.182507
_cell_angle_beta                  90.25092
_cell_angle_gamma                 90.936766
_cell_volume                      1708.12641749

loop_
_atom_site_label
_atom_site_type_symbol
_atom_type_description
_atom_site_fract_x
_atom_site_fract_y
_atom_site_fract_z
_atom_type_partial_charge
C1    C     C_R   0.498430 0.262566 0.499069 0.937759
C2    C     C_3   0.082876 0.495014 0.500840 -0.009587
C3    C     C_3   0.975287 0.612287 0.544923 -0.307486
C4    C     C_3   0.916978 0.502587 0.502140 -0.029970
C5    C     C_3   0.029510 0.586360 0.421010 0.399050
C6    C     C_3   0.971350 0.478421 0.378156 0.294546
C7    C     C_1   0.173773 0.494370 0.499709 0.077244
C8    C     C_1   0.826132 0.504151 0.501270 0.076436
C9    C     C_2   0.489383 0.930733 0.389987 -0.277730
C10   C     C_2   0.509012 0.868449 0.499790 -0.384250
C11   C     C_2   0.500841 0.064415 0.383715 0.511013
C12   C     C_R   0.338053 0.498899 0.499706 0.879143
C13   C     C_2   0.490484 0.130430 0.496138 -0.423539
C14   C     C_2   0.562674 0.542520 0.925712 -0.096173
C15   C     C_2   0.554196 0.563115 0.073251 0.266396
C16   C     C_R   0.501199 0.737088 0.500186 0.977206
C17   C     C_R   0.661925 0.500889 0.500267 0.900449
C18   C     C_3   0.969453 0.410348 0.584262 0.094309
C19   C     C_3   0.023616 0.387130 0.459500 0.342009
C20   C     C_1   0.249098 0.496074 0.499264 -0.168461
C21   C     C_1   0.750834 0.503120 0.500781 -0.139116
C22   C     C_3   0.029536 0.519516 0.626056 -0.245831
H1    H     H_    0.473673 0.087361 0.589831 0.129832
H2    H     H_    0.621725 0.570485 0.878260 0.167571
H3    H     H_    0.441864 0.495613 0.895383 0.203463
H4    H     H_    0.953091 0.704070 0.578998 0.171209
H5    H     H_    0.056645 0.536074 0.726626 0.175189
H6    H     H_    0.466477 0.883221 0.301120 0.191775
H7    H     H_    0.534727 0.912514 0.588603 0.154858
N1    N     N_2   0.500900 0.501330 0.852150 -0.186597
N2    N     N_2   0.500930 0.501360 0.147810 0.037143
O1    O     O_R   0.499990 0.319060 0.613040 -0.614250
O2    O     O_R   0.500010 0.319100 0.386900 -0.549948
O3    O     O_R   0.376760 0.499970 0.613050 -0.617559
O4    O     O_R   0.376790 0.500010 0.386910 -0.659065
O5    O     O_R   0.499990 0.680900 0.613100 -0.621181
O6    O     O_R   0.500010 0.680940 0.386960 -0.605683
O7    O     O_R   0.623210 0.499990 0.613090 -0.616584
O8    O     O_R   0.623240 0.500030 0.386950 -0.583126
Zn1   Zn    Zn3+2 0.499980 0.499970 0.650990 0.958810
Zn2   Zn    Zn3+2 0.500020 0.500030 0.349010 1.007462
O9    O     O_3   0.056564 0.274130 0.413749 -0.606225
C23   C     C_3   0.989367 0.188868 0.388808 0.122815
H8    H     H_    0.932357 0.232409 0.343671 0.168757
H9    H     H_    0.970465 0.142491 0.482514 0.187407
C24   C     C_3   0.019745 0.090113 0.293537 -0.850560
H10   H     H_    0.070694 0.035487 0.341221 0.270015
H11   H     H_    0.965321 0.028069 0.266961 0.210987
H12   H     H_    0.045042 0.132692 0.201334 0.257540
I1    I     I_    0.636242 0.701284 0.154179 -0.421804
O10   O     O_3   0.474466 0.392888 0.093122 -0.551065
C25   C     C_3   0.388693 0.372448 0.127805 0.252738
H13   H     H_    0.351417 0.459370 0.123766 0.112639
H14   H     H_    0.384238 0.330790 0.227724 0.207169
C26   C     C_3   0.348516 0.279863 0.030961 -0.898707
H15   H     H_    0.383624 0.191451 0.033689 0.280602
H16   H     H_    0.281240 0.261274 0.058997 0.220309
H17   H     H_    0.350022 0.317105 0.928339 0.251022
I2    I     I_    0.915813 0.278822 0.720212 -0.451771
O11   O     O_3   0.932881 0.460931 0.252472 -0.617122
C27   C     C_3   0.995497 0.439898 0.155325 0.104913
H18   H     H_    0.012050 0.340587 0.154075 0.176230
H19   H     H_    0.054870 0.495714 0.171052 0.171379
C28   C     C_3   0.959593 0.473428 0.020110 -0.773679
H20   H     H_    0.943675 0.573174 0.017565 0.251227
H21   H     H_    0.007481 0.454487 0.942309 0.216732
H22   H     H_    0.901019 0.417600 0.999609 0.289451
O12   O     O_3   0.068870 0.673754 0.336607 -0.611729
C29   C     C_3   0.006882 0.749710 0.278642 0.102998
H23   H     H_    0.990676 0.824743 0.349308 0.150079
H24   H     H_    0.947251 0.698468 0.251280 0.184014
C30   C     C_3   0.043099 0.805586 0.151891 -0.827763
H25   H     H_    0.060986 0.730787 0.081941 0.253966
H26   H     H_    0.994781 0.864196 0.103152 0.219343
H27   H     H_    0.100585 0.862919 0.175057 0.267523
O13   O     O_3   0.512621 0.122805 0.261725 -0.579408
C31   C     C_3   0.577778 0.065968 0.188235 0.092017
H28   H     H_    0.553032 0.979991 0.139762 0.159323
H29   H     H_    0.633749 0.043949 0.252011 0.150537
C32   C     C_3   0.607843 0.154059 0.079894 -0.701517
H30   H     H_    0.631895 0.242032 0.124845 0.273978
H31   H     H_    0.659916 0.111139 0.022495 0.199956
H32   H     H_    0.554446 0.174395 0.011123 0.268943

loop_
_geom_bond_atom_site_label_1
_geom_bond_atom_site_label_2
_ccdc_geom_bond_type
C26   H15   S    
C29   C30   S    
C2    C7    S    
C4    C8    S    
C1    O2    A    
O8    Zn2   S    
C31   H28   S    
C6    C19   S    
C24   H12   S    
O3    Zn1   S    
C11   O13   S    
C5    O12   S    
C5    C6    S    
C13   H1    S    
C27   H19   S    
C18   C19   S    
C17   O8    A    
C15   I1    S    
C14   H2    S    
C29   H24   S    
O12   C29   S    
C2    C22   S    
C9    C10   D    
C25   C26   S    
C16   O6    A    
C4    C18   S    
C29   H23   S    
C14   N1    D    
C30   H27   S    
C25   H14   S    
C31   H29   S    
C24   H11   S    
O10   C25   S    
C28   H22   S    
C6    O11   S    
O5    Zn1   S    
O13   C31   S    
C30   H26   S    
C30   H25   S    
C1    O1    A    
C17   C21   S    
O11   C27   S    
C28   H21   S    
C27   C28   S    
C23   H8    S    
C23   H9    S    
C12   C20   S    
C8    C21   T    
N1    Zn1   S    
C12   O4    A    
C9    C11   S    
C32   H31   S    
C22   H5    S    
C26   H16   S    
C4    C6    S    
C1    C13   S    
O9    C23   S    
C12   O3    A    
C3    C4    S    
C25   H13   S    
C32   H32   S    
C31   C32   S    
H3    N1    S    
C24   H10   S    
N2    Zn2   S    
C2    C19   S    
C18   C22   S    
C3    H4    S    
N2    O10   S    
C32   H30   S    
C3    C5    S    
C19   O9    S    
C15   N2    D    
O2    Zn2   S    
C28   H20   S    
C10   C16   S    
C16   O5    A    
O7    Zn1   S    
C11   C13   D    
C10   H7    S    
C17   O7    A    
O1    Zn1   S    
O6    Zn2   S    
C27   H18   S    
O4    Zn2   S    
C23   C24   S    
C2    C5    S    
C18   I2    S    
C7    C20   T    
C26   H17   S    
C14   C15   S    
C3    C22   S    
C9    H6    S    
