data_mof_unit_12020.cif
_audit_creation_date              2013-03-05T15:49:01-0500
_audit_creation_method            fapswitch 2.2
_symmetry_space_group_name_H-M    P1
_symmetry_Int_Tables_number       1
_space_group_crystal_system       triclinic
_cell_length_a                    17.680883
_cell_length_b                    18.087994
_cell_length_c                    12.151197
_cell_angle_alpha                 89.99941
_cell_angle_beta                  84.352009
_cell_angle_gamma                 89.999677
_cell_volume                      3867.22927169

loop_
_atom_site_label
_atom_site_type_symbol
_atom_site_description
_atom_site_fract_x
_atom_site_fract_y
_atom_site_fract_z
_atom_type_partial_charge
O1    O     O_R   0.418020 0.076820 0.422210 -0.602391
O2    O     O_R   0.581980 0.923180 0.577790 -0.602411
O3    O     O_R   0.581980 0.076820 0.577790 -0.589188
O4    O     O_R   0.418020 0.923180 0.422210 -0.589185
O5    O     O_R   0.918020 0.576820 0.422210 -0.589197
O6    O     O_R   0.081980 0.423180 0.577790 -0.589190
O7    O     O_R   0.081980 0.576820 0.577790 -0.602404
O8    O     O_R   0.918020 0.423180 0.422210 -0.602379
O9    O     O_R   0.430370 0.076830 0.608590 -0.626312
O10   O     O_R   0.569630 0.923170 0.391410 -0.626310
O11   O     O_R   0.569630 0.076830 0.391410 -0.622682
O12   O     O_R   0.430370 0.923170 0.608590 -0.622663
O13   O     O_R   0.930370 0.576830 0.608590 -0.622663
O14   O     O_R   0.069630 0.423170 0.391410 -0.622676
O15   O     O_R   0.069630 0.576830 0.391410 -0.626313
O16   O     O_R   0.930370 0.423170 0.608590 -0.626317
C1    C     C_R   0.402341 0.104277 0.521967 0.859807
C2    C     C_R   0.597660 0.895723 0.478033 0.859800
C3    C     C_R   0.587953 0.109529 0.480878 0.900620
C4    C     C_R   0.412049 0.890469 0.519118 0.900635
C5    C     C_R   0.912051 0.609531 0.519117 0.900635
C6    C     C_R   0.087952 0.390470 0.480880 0.900627
C7    C     C_R   0.097660 0.604276 0.478033 0.859804
C8    C     C_R   0.902340 0.395724 0.521968 0.859810
C9    C     C_R   0.587668 0.020499 0.826172 0.213274
C10   C     C_R   0.412332 0.979502 0.173828 0.213292
C11   C     C_R   0.087667 0.479499 0.826172 0.213269
C12   C     C_R   0.912332 0.520500 0.173827 0.213287
Zn1   Zn    Zn3+2 0.491750 1.000000 0.375560 0.930060
Zn2   Zn    Zn3+2 0.508250 1.000000 0.624440 0.930066
Zn3   Zn    Zn3+2 0.991750 0.500000 0.375560 0.930062
Zn4   Zn    Zn3+2 0.008250 0.500000 0.624440 0.930065
C13   C     C_R   0.592873 0.036269 0.938842 0.379129
C14   C     C_R   0.407128 0.963730 0.061158 0.379114
C15   C     C_R   0.092871 0.463728 0.938843 0.379118
C16   C     C_R   0.907128 0.536271 0.061157 0.379116
C17   C     C_R   0.457286 0.987719 0.865646 0.227947
C18   C     C_R   0.542714 0.012280 0.134354 0.227932
C19   C     C_R   0.957286 0.512282 0.865646 0.227949
C20   C     C_R   0.042714 0.487719 0.134354 0.227937
C21   C     C_R   0.620261 0.184790 0.472833 -0.258057
C22   C     C_R   0.379744 0.815206 0.527145 -0.258073
C23   C     C_R   0.343977 0.162312 0.538605 -0.252836
C24   C     C_R   0.656027 0.837692 0.461396 -0.252850
C25   C     C_R   0.156026 0.662309 0.461395 -0.252849
C26   C     C_R   0.843978 0.337689 0.538606 -0.252826
C27   C     C_R   0.879747 0.684795 0.527141 -0.258079
C28   C     C_R   0.120258 0.315209 0.472840 -0.258066
C29   C     C_R   0.304632 0.724995 0.636084 0.224993
C30   C     C_R   0.695418 0.274956 0.363866 0.224664
C31   C     C_R   0.761836 0.787763 0.340331 0.192563
C32   C     C_R   0.238151 0.212222 0.659653 0.192561
C33   C     C_R   0.738147 0.287780 0.659647 0.192559
C34   C     C_R   0.261839 0.712234 0.340335 0.192569
C35   C     C_R   0.195401 0.225028 0.363883 0.224776
C36   C     C_R   0.804642 0.775014 0.636075 0.225027
C37   C     C_R   0.364432 0.776760 0.628169 0.109818
C38   C     C_R   0.635600 0.223210 0.371791 0.109947
C39   C     C_R   0.687787 0.817262 0.354277 0.114930
C40   C     C_R   0.312203 0.182729 0.645721 0.114925
C41   C     C_R   0.812199 0.317274 0.645720 0.114920
C42   C     C_R   0.187790 0.682735 0.354277 0.114920
C43   C     C_R   0.135590 0.276781 0.371803 0.109907
C44   C     C_R   0.864438 0.723243 0.628163 0.109807
C45   C     C_R   0.360823 0.780636 0.429584 0.368715
C46   C     C_R   0.639170 0.219374 0.570387 0.368715
C47   C     C_R   0.689172 0.812508 0.554745 0.369303
C48   C     C_R   0.310849 0.187510 0.445252 0.369323
C49   C     C_R   0.810855 0.312487 0.445250 0.369334
C50   C     C_R   0.189167 0.687494 0.554746 0.369315
C51   C     C_R   0.139170 0.280627 0.570396 0.368716
C52   C     C_R   0.860825 0.719365 0.429580 0.368721
C53   C     C_R   0.297017 0.733989 0.435813 -0.054691
C54   C     C_R   0.702982 0.266015 0.564161 -0.054644
C55   C     C_R   0.763250 0.785277 0.542869 -0.059286
C56   C     C_R   0.236770 0.214740 0.457110 -0.059348
C57   C     C_R   0.736777 0.285253 0.457101 -0.059373
C58   C     C_R   0.263244 0.714727 0.542874 -0.059288
C59   C     C_R   0.202981 0.233984 0.564170 -0.054658
C60   C     C_R   0.797019 0.766012 0.435808 -0.054690
N1    N     N_R   0.480750 1.000000 0.209750 -0.125313
N2    N     N_R   0.519250 0.000000 0.790250 -0.125306
N3    N     N_R   0.980750 0.500000 0.209750 -0.125310
N4    N     N_R   0.019250 0.500000 0.790250 -0.125306
C61   C     C_R   0.465667 0.987330 0.981478 -0.115103
C62   C     C_R   0.534334 0.012668 0.018522 -0.115089
C63   C     C_R   0.965667 0.512670 0.981478 -0.115099
C64   C     C_R   0.034333 0.487330 0.018522 -0.115093
C65   C     C_3   0.339950 0.975229 0.250642 -0.783799
H1    H     H_    0.291636 0.996937 0.208320 0.203951
H2    H     H_    0.327100 0.917172 0.275038 0.255678
H3    H     H_    0.340680 0.009545 0.324458 0.283139
C66   C     C_3   0.660047 0.024778 0.749353 -0.783823
H4    H     H_    0.708365 0.003072 0.791668 0.203959
H5    H     H_    0.659315 0.990465 0.675536 0.283160
H6    H     H_    0.672890 0.082836 0.724962 0.255656
C67   C     C_3   0.839952 0.524776 0.250643 -0.783807
H7    H     H_    0.791637 0.503067 0.208325 0.203948
H8    H     H_    0.840684 0.490464 0.324462 0.283149
H9    H     H_    0.827104 0.582833 0.275032 0.255671
C68   C     C_3   0.160046 0.475218 0.749356 -0.783801
H10   H     H_    0.208364 0.496922 0.791673 0.203966
H11   H     H_    0.172889 0.417161 0.724965 0.255659
H12   H     H_    0.159316 0.509533 0.675539 0.283156
C69   C     C_3   0.620795 0.018799 0.173616 -0.686517
H13   H     H_    0.624223 0.996213 0.255839 0.260027
H14   H     H_    0.662519 0.985748 0.119920 0.222260
H15   H     H_    0.639105 0.077164 0.174404 0.259699
C70   C     C_3   0.379205 0.981199 0.826386 -0.686500
H16   H     H_    0.375777 0.003787 0.744163 0.260024
H17   H     H_    0.360896 0.922834 0.825596 0.259683
H18   H     H_    0.337481 0.014247 0.880084 0.222253
C71   C     C_3   0.120795 0.481200 0.173614 -0.686519
H19   H     H_    0.124222 0.503789 0.255835 0.260025
H20   H     H_    0.139105 0.422835 0.174407 0.259697
H21   H     H_    0.162518 0.514248 0.119914 0.222259
C72   C     C_3   0.879205 0.518801 0.826385 -0.686500
H22   H     H_    0.875778 0.496212 0.744164 0.260023
H23   H     H_    0.837481 0.485755 0.880085 0.222251
H24   H     H_    0.860896 0.577167 0.825591 0.259685
O17   O     O_3   0.599506 0.203321 0.670863 -0.779778
H25   H     H_    0.545911 0.194310 0.657871 0.337584
O18   O     O_3   0.400470 0.796706 0.329103 -0.779782
H26   H     H_    0.454070 0.805709 0.342079 0.337596
O19   O     O_3   0.352665 0.192965 0.343237 -0.754584
H27   H     H_    0.406516 0.201866 0.355447 0.336242
O20   O     O_3   0.647371 0.807053 0.656769 -0.754514
H28   H     H_    0.593519 0.798145 0.644576 0.336237
O21   O     O_3   0.147363 0.692947 0.656768 -0.754519
H29   H     H_    0.093512 0.701857 0.644570 0.336234
O22   O     O_3   0.852677 0.307036 0.343240 -0.754608
H30   H     H_    0.906526 0.298130 0.355457 0.336236
O23   O     O_3   0.900475 0.703299 0.329099 -0.779784
H31   H     H_    0.954074 0.694292 0.342077 0.337598
O24   O     O_3   0.099508 0.296681 0.670873 -0.779782
H32   H     H_    0.045911 0.305692 0.657883 0.337587
C73   C     C_3   0.585438 0.216234 0.277963 -0.844841
H33   H     H_    0.558759 0.270456 0.263829 0.227003
H34   H     H_    0.619715 0.199395 0.200789 0.252566
H35   H     H_    0.536915 0.178267 0.294819 0.260861
C74   C     C_3   0.414593 0.783745 0.721994 -0.844678
H36   H     H_    0.441239 0.729516 0.736192 0.227060
H37   H     H_    0.463133 0.821688 0.705097 0.260790
H38   H     H_    0.380323 0.800630 0.799149 0.252530
C75   C     C_3   0.360175 0.183526 0.742471 -0.825851
H39   H     H_    0.347423 0.233257 0.794636 0.233954
H40   H     H_    0.349375 0.133416 0.793775 0.239585
H41   H     H_    0.421335 0.188313 0.714654 0.241153
C76   C     C_3   0.639802 0.816460 0.257541 -0.825842
H42   H     H_    0.652546 0.766725 0.205382 0.233960
H43   H     H_    0.578646 0.811673 0.285376 0.241127
H44   H     H_    0.650594 0.866566 0.206228 0.239599
C77   C     C_3   0.139809 0.683536 0.257537 -0.825831
H45   H     H_    0.152558 0.733267 0.205369 0.233959
H46   H     H_    0.150602 0.633426 0.206232 0.239595
H47   H     H_    0.078652 0.688327 0.285367 0.241128
C78   C     C_3   0.860167 0.316478 0.742474 -0.825867
H48   H     H_    0.847413 0.266747 0.794641 0.233952
H49   H     H_    0.921328 0.311690 0.714662 0.241155
H50   H     H_    0.849366 0.366588 0.793775 0.239584
C79   C     C_3   0.914597 0.716255 0.721991 -0.844676
H51   H     H_    0.941244 0.770483 0.736190 0.227066
H52   H     H_    0.880325 0.699371 0.799144 0.252526
H53   H     H_    0.963135 0.678310 0.705096 0.260793
C80   C     C_3   0.085431 0.283762 0.277973 -0.844801
H54   H     H_    0.058760 0.229539 0.263821 0.227019
H55   H     H_    0.036905 0.321725 0.294836 0.260849
H56   H     H_    0.119708 0.300612 0.200805 0.252553
C81   C     C_3   0.697469 0.282259 0.775563 -0.756268
H57   H     H_    0.725227 0.314715 0.837651 0.212062
H58   H     H_    0.639657 0.306430 0.777191 0.262277
H59   H     H_    0.694766 0.223797 0.803247 0.253638
C82   C     C_3   0.302503 0.717766 0.224413 -0.756262
H60   H     H_    0.274741 0.685311 0.162327 0.212071
H61   H     H_    0.305197 0.776229 0.196738 0.253628
H62   H     H_    0.360319 0.693601 0.222766 0.262275
C83   C     C_3   0.212197 0.179451 0.259181 -0.763629
H63   H     H_    0.159438 0.154738 0.233123 0.206271
H64   H     H_    0.239011 0.214824 0.191524 0.253811
H65   H     H_    0.249204 0.131269 0.271344 0.260721
C84   C     C_3   0.787944 0.820674 0.740709 -0.764107
H66   H     H_    0.840709 0.845549 0.766393 0.206268
H67   H     H_    0.750775 0.868734 0.728678 0.260901
H68   H     H_    0.761400 0.785331 0.808552 0.253679
C85   C     C_3   0.287918 0.679349 0.740730 -0.764097
H69   H     H_    0.340677 0.654507 0.766482 0.206279
H70   H     H_    0.261325 0.714690 0.808534 0.253715
H71   H     H_    0.250783 0.631266 0.728680 0.260871
C86   C     C_3   0.712257 0.320494 0.259132 -0.763452
H72   H     H_    0.659505 0.345126 0.232898 0.206281
H73   H     H_    0.749182 0.368734 0.271352 0.260640
H74   H     H_    0.739199 0.285112 0.191568 0.253880
C87   C     C_3   0.802494 0.782222 0.224407 -0.756269
H75   H     H_    0.774726 0.814667 0.162317 0.212074
H76   H     H_    0.860308 0.806391 0.222747 0.262281
H77   H     H_    0.805191 0.723756 0.196747 0.253624
C88   C     C_3   0.197477 0.217746 0.775571 -0.756277
H78   H     H_    0.225238 0.185292 0.837660 0.212066
H79   H     H_    0.194774 0.276208 0.803249 0.253632
H80   H     H_    0.139665 0.193575 0.777206 0.262277
O25   O     O_3   0.654055 0.075324 0.971751 -0.793837
H81   H     H_    0.675903 0.107328 0.910708 0.341478
O26   O     O_3   0.345947 0.924674 0.028251 -0.793819
H82   H     H_    0.324107 0.892663 0.089293 0.341482
O27   O     O_3   0.154051 0.424668 0.971752 -0.793823
H83   H     H_    0.175888 0.392655 0.910711 0.341473
O28   O     O_3   0.845948 0.575329 0.028248 -0.793816
H84   H     H_    0.824107 0.607339 0.089290 0.341479

loop_
_geom_bond_atom_site_label_1
_geom_bond_atom_site_label_2
_geom_bond_distance
_ccdc_geom_bond_type
C12   C67   1.509919 S    
C6    C28   1.475822 S    
O26   H82   0.989017 S    
C9    C66   1.509921 S    
C68   H10   1.111227 S    
C7    C25   1.471936 S    
O23   H31   0.989400 S    
O3    Zn2   1.950908 S    
C29   C85   1.520504 S    
C81   H58   1.110125 S    
C81   H57   1.107970 S    
O13   Zn4   1.979046 S    
C49   C57   1.393473 A    
C33   C54   1.424708 A    
C56   C59   1.420384 A    
C19   C63   1.429719 A    
O14   Zn3   1.979047 S    
C63   C64   1.412189 A    
C67   H9    1.108589 S    
C74   H37   1.102296 S    
C51   C59   1.404849 A    
C67   H7    1.111224 S    
C85   H69   1.107890 S    
C29   C37   1.408503 A    
O18   H26   0.989399 S    
C61   C62   1.412193 A    
C10   C65   1.509931 S    
C69   H14   1.110210 S    
O11   C3    1.306142 A    
C80   H54   1.108997 S    
C18   C62   1.429722 A    
C34   C82   1.520444 S    
C17   C61   1.429720 A    
C50   C58   1.393443 A    
C19   N4    1.375283 A    
C71   H19   1.086606 S    
C47   O20   1.382944 S    
C72   H23   1.110211 S    
C51   O24   1.377750 S    
O7    C7    1.314040 A    
C85   H70   1.110083 S    
O2    C2    1.314042 A    
C36   C84   1.520503 S    
C24   C39   1.415003 A    
C46   C54   1.404848 A    
C84   H66   1.107937 S    
C25   C42   1.414998 A    
Zn3   N3    2.043120 S    
C29   C58   1.419841 A    
C88   H79   1.109269 S    
O25   H81   0.988998 S    
C68   H11   1.108591 S    
C86   H73   1.108480 S    
C30   C86   1.520564 S    
C31   C60   1.424689 A    
C26   C49   1.402984 A    
C32   C40   1.408505 A    
C68   H12   1.091891 S    
C79   H52   1.107934 S    
C33   C41   1.408505 A    
C15   O27   1.383574 S    
C78   H48   1.110714 S    
C86   H74   1.110648 S    
C23   C48   1.402987 A    
C83   H64   1.110533 S    
C54   C57   1.420389 A    
C35   C43   1.408503 A    
C22   C45   1.409386 A    
C53   C58   1.420369 A    
C36   C44   1.408501 A    
O3    C3    1.312795 A    
C65   H2    1.108599 S    
C32   C59   1.424698 A    
C55   C60   1.420368 A    
C17   C70   1.508982 S    
O4    Zn1   1.950910 S    
C33   C81   1.520448 S    
C71   H21   1.110214 S    
C87   H77   1.109255 S    
O15   C7    1.304866 A    
C78   H49   1.104150 S    
C36   C55   1.419833 A    
C12   N3    1.376693 A    
C35   C83   1.520551 S    
C20   N3    1.375282 A    
C80   H55   1.102283 S    
C72   H22   1.086605 S    
C22   C37   1.413637 A    
C75   H40   1.105976 S    
C10   C14   1.410321 A    
C79   H51   1.108987 S    
C39   C76   1.515923 S    
C16   C63   1.411967 A    
Zn4   N4    2.043120 S    
C73   H35   1.102278 S    
C26   C41   1.414985 A    
O28   H84   0.989021 S    
C30   C38   1.408502 A    
O24   H32   0.989404 S    
C31   C87   1.520438 S    
C45   C53   1.404842 A    
C27   C44   1.413640 A    
C85   H71   1.108092 S    
C34   C42   1.408500 A    
C11   C15   1.410324 A    
C82   H60   1.107970 S    
C11   C68   1.509916 S    
C50   O21   1.382942 S    
C70   H18   1.110213 S    
C77   H47   1.104140 S    
C14   C61   1.411971 A    
C87   H76   1.110119 S    
C76   H44   1.105971 S    
Zn2   N2    2.043120 S    
C88   H80   1.110124 S    
C13   C62   1.411971 A    
C1    C23   1.471931 S    
Zn1   N1    2.043120 S    
C41   C78   1.515924 S    
C34   C53   1.424692 A    
C73   H34   1.107954 S    
C15   C64   1.411969 A    
C20   C71   1.508981 S    
C43   C80   1.517048 S    
C14   O26   1.383574 S    
C49   O22   1.382949 S    
C83   H65   1.108398 S    
O12   C4    1.306181 A    
O1    Zn1   1.950906 S    
C9    N2    1.376699 A    
O17   H25   0.989403 S    
C46   O17   1.377748 S    
O13   C5    1.306179 A    
C66   H4    1.111221 S    
C48   C56   1.393462 A    
C65   H3    1.091904 S    
C12   C16   1.410324 A    
C77   H46   1.105977 S    
C82   H61   1.109267 S    
O9    Zn2   1.979046 S    
C35   C56   1.419850 A    
C23   C40   1.414994 A    
C38   C73   1.517053 S    
O9    C1    1.304855 A    
C80   H56   1.107953 S    
C87   H75   1.107954 S    
C66   H6    1.108592 S    
C18   N1    1.375285 A    
O19   H27   0.991109 S    
C81   H59   1.109276 S    
C76   H43   1.104129 S    
C17   N2    1.375282 A    
C72   H24   1.104551 S    
C47   C55   1.393436 A    
C40   C75   1.515923 S    
C28   C51   1.409367 A    
O20   H28   0.991102 S    
C30   C57   1.419866 A    
C2    C24   1.471935 S    
C79   H53   1.102290 S    
C75   H41   1.104146 S    
O21   H29   0.991100 S    
C73   H33   1.108997 S    
C82   H62   1.110124 S    
C86   H72   1.108413 S    
O27   H83   0.989021 S    
C11   N4    1.376693 A    
O6    Zn4   1.950907 S    
C67   H8    1.091891 S    
O7    Zn4   1.950908 S    
C84   H68   1.110124 S    
O12   Zn2   1.979061 S    
C25   C50   1.403006 A    
O8    Zn3   1.950910 S    
C75   H39   1.110714 S    
C44   C79   1.517040 S    
C28   C43   1.413652 A    
C21   C38   1.413646 A    
C4    C22   1.475835 S    
O15   Zn3   1.979060 S    
C21   C46   1.409363 A    
C74   H38   1.107940 S    
C78   H50   1.105974 S    
C10   N1    1.376699 A    
C69   H13   1.086601 S    
O1    C1    1.314048 A    
C42   C77   1.515922 S    
C37   C74   1.517037 S    
O2    Zn2   1.950907 S    
C8    C26   1.471929 S    
C20   C64   1.429720 A    
C18   C69   1.508984 S    
C70   H17   1.104553 S    
C77   H45   1.110714 S    
C52   C60   1.404842 A    
C19   C72   1.508980 S    
C76   H42   1.110700 S    
O10   Zn1   1.979047 S    
O14   C6    1.306147 A    
C52   O23   1.377741 S    
C66   H5    1.091886 S    
O10   C2    1.304864 A    
O16   Zn4   1.979061 S    
C13   O25   1.383579 S    
O8    C8    1.314046 A    
C45   O18   1.377744 S    
C88   H78   1.107968 S    
C5    C27   1.475834 S    
C27   C52   1.409385 A    
O4    C4    1.312765 A    
C3    C21   1.475822 S    
C84   H67   1.108110 S    
C31   C39   1.408503 A    
O11   Zn1   1.979060 S    
O16   C8    1.304857 A    
C83   H63   1.108319 S    
O5    C5    1.312766 A    
C70   H16   1.086605 S    
C69   H15   1.104554 S    
C24   C47   1.403004 A    
C32   C88   1.520445 S    
O5    Zn3   1.950906 S    
C65   H1    1.111223 S    
C74   H36   1.108993 S    
C48   O19   1.382952 S    
C16   O28   1.383572 S    
O22   H30   0.991107 S    
C9    C13   1.410326 A    
C71   H20   1.104555 S    
O6    C6    1.312792 A    
