data_mof_unit_53504.cif
_audit_creation_date              2012-12-10T16:49:26-0500
_audit_creation_method            fapswitch 2.2
_symmetry_space_group_name_H-M    P1
_symmetry_Int_Tables_number       1
_space_group_crystal_system       triclinic
_cell_length_a                    7.824255
_cell_length_b                    8.552528
_cell_length_c                    12.79859
_cell_angle_alpha                 89.506756
_cell_angle_beta                  87.451622
_cell_angle_gamma                 93.19663
_cell_volume                      854.214245118

loop_
_atom_site_label
_atom_site_type_symbol
_atom_type_description
_atom_site_fract_x
_atom_site_fract_y
_atom_site_fract_z
_atom_type_partial_charge
C1    C     C_R   0.455229 0.205674 0.497404 0.968454
C2    C     C_R   0.619769 0.346934 0.146834 -0.039314
C3    C     C_R   0.509633 0.400493 0.872078 -0.072979
C4    C     C_R   0.490367 0.599507 0.127922 -0.072979
C5    C     C_R   0.528588 0.429240 0.978209 0.101958
C6    C     C_R   0.471411 0.570759 0.021790 0.101958
C7    C     C_2   0.431624 0.042246 0.495787 -0.333004
C8    C     C_2   0.568376 0.957754 0.504213 -0.333005
C9    C     C_1   0.440694 0.746063 0.174488 0.169061
C10   C     C_1   0.559304 0.253935 0.825512 0.169061
C11   C     C_1   0.688934 0.226801 0.210338 0.201740
C12   C     C_R   0.544771 0.794326 0.502596 0.968454
C13   C     C_1   0.311065 0.773199 0.789661 0.201740
C14   C     C_1   0.990460 0.642958 0.400086 0.416800
C15   C     C_1   0.009540 0.357042 0.599913 0.416800
C16   C     C_R   0.465306 0.504311 0.699017 0.888683
C17   C     C_R   0.534694 0.495689 0.300983 0.888683
C18   C     C_R   0.556978 0.483950 0.190011 -0.123864
C19   C     C_R   0.443022 0.516050 0.809989 -0.123863
C20   C     C_R   0.393802 0.679131 0.958838 -0.225138
C21   C     C_R   0.606198 0.320869 0.041162 -0.225138
C22   C     C_R   0.380231 0.653066 0.853166 -0.039314
H1    H     H_    0.346836 0.786458 0.990724 0.160681
H2    H     H_    0.653164 0.213542 0.009275 0.160681
H3    H     H_    0.302119 0.991993 0.487675 0.185271
H4    H     H_    0.697881 0.008007 0.512325 0.185271
N1    N     N_2   0.054030 0.541640 0.471970 -0.160303
N2    N     N_2   0.945970 0.458360 0.528030 -0.160303
N3    N     N_1   0.401353 0.862366 0.211674 -0.194419
N4    N     N_1   0.598644 0.137632 0.788325 -0.194420
N5    N     N_1   0.744238 0.130716 0.261072 -0.184820
N6    N     N_1   0.255761 0.869284 0.738928 -0.184819
N7    N     N_1   0.939648 0.728345 0.339615 -0.226584
N8    N     N_1   0.060352 0.271655 0.660385 -0.226584
O1    O     O_R   0.609680 0.261530 0.506880 -0.618748
O2    O     O_R   0.390320 0.738470 0.493120 -0.618748
O3    O     O_R   0.323330 0.288220 0.488910 -0.634558
O4    O     O_R   0.676670 0.711780 0.511090 -0.634558
O5    O     O_R   0.619510 0.488830 0.661140 -0.618820
O6    O     O_R   0.380490 0.511170 0.338860 -0.618820
O7    O     O_R   0.333160 0.515520 0.643180 -0.628110
O8    O     O_R   0.666840 0.484480 0.356820 -0.628110
Zn1   Zn    Zn3+2 0.691200 0.482180 0.511990 0.968012
Zn2   Zn    Zn3+2 0.308800 0.517820 0.488010 0.968013

loop_
_geom_bond_atom_site_label_1
_geom_bond_atom_site_label_2
_ccdc_geom_bond_type
C3    C19   A    
C9    N3    T    
C14   N1    S    
C2    C18   A    
N2    Zn1   S    
C8    H4    S    
C10   N4    T    
C13   N6    T    
C7    H3    S    
C20   H1    S    
C1    O3    A    
C8    C12   S    
C4    C18   A    
O1    Zn1   S    
C14   N7    T    
C17   C18   S    
C11   N5    T    
C7    C8    D    
C3    C10   S    
C15   N2    S    
C2    C21   A    
C16   C19   S    
C2    C11   S    
N1    Zn2   S    
C20   C22   A    
C13   C22   S    
O6    Zn2   S    
C12   O4    A    
C5    C6    A    
O7    Zn2   S    
O2    Zn2   S    
C12   O2    A    
O8    Zn1   S    
C16   O5    A    
O3    Zn2   S    
O4    Zn1   S    
C19   C22   A    
C6    C20   A    
C1    O1    A    
C4    C6    A    
C21   H2    S    
N1    N2    D    
C17   O8    A    
O5    Zn1   S    
C15   N8    T    
C4    C9    S    
C1    C7    S    
C16   O7    A    
C17   O6    A    
C3    C5    A    
C5    C21   A    
