data_mof_unit_63399.cif
_audit_creation_date              2012-10-26T20:34:43-0400
_audit_creation_method            fapswitch 2.2
_symmetry_space_group_name_H-M    P1
_symmetry_Int_Tables_number       1
_space_group_crystal_system       triclinic
_cell_length_a                    14.774293
_cell_length_b                    15.99495
_cell_length_c                    17.407871
_cell_angle_alpha                 90.007154
_cell_angle_beta                  86.062479
_cell_angle_gamma                 89.994839
_cell_volume                      4104.01458136

loop_
_atom_site_label
_atom_site_type_symbol
_atom_type_description
_atom_site_fract_x
_atom_site_fract_y
_atom_site_fract_z
_atom_type_partial_charge
C1    C     C_R   0.500022 0.659142 0.499948 0.545176
C2    C     C_1   0.500018 0.823322 0.499896 -0.049120
C3    C     C_1   0.500022 0.748268 0.499903 -0.016495
C4    C     C_1   0.499978 0.251732 0.500097 -0.016476
C5    C     C_R   0.053796 0.453407 0.446717 -0.075547
C6    C     C_R   0.946204 0.546593 0.553283 -0.075548
C7    C     C_R   0.097102 0.501139 0.501359 -0.052813
C8    C     C_R   0.902898 0.498861 0.498641 -0.052812
C9    C     C_R   0.041669 0.548515 0.555544 0.253594
C10   C     C_R   0.958331 0.451485 0.444456 0.253598
C11   C     C_1   0.197353 0.500383 0.500497 0.125379
C12   C     C_R   0.499978 0.340858 0.500053 0.545189
C13   C     C_1   0.802647 0.499617 0.499503 0.125394
C14   C     C_R   0.488392 0.496678 0.649936 0.530063
C15   C     C_R   0.511610 0.503329 0.350064 0.530099
C16   C     C_R   0.483330 0.489690 0.733701 0.010892
C17   C     C_R   0.516680 0.510332 0.266297 0.010867
C18   C     C_R   0.551961 0.528125 0.772753 -0.155293
C19   C     C_R   0.448002 0.471987 0.227234 -0.155318
C20   C     C_R   0.552343 0.522282 0.852041 -0.117861
C21   C     C_R   0.447650 0.477831 0.147944 -0.117887
C22   C     C_R   0.482710 0.479254 0.894075 -0.007276
C23   C     C_R   0.418560 0.043621 0.515129 -0.099970
C24   C     C_R   0.517359 0.520771 0.105920 -0.007289
C25   C     C_R   0.414234 0.440174 0.855570 -0.040175
C26   C     C_R   0.585883 0.559762 0.144433 -0.040188
C27   C     C_R   0.414464 0.443310 0.775540 0.242392
C28   C     C_R   0.585625 0.556625 0.224465 0.242375
C29   C     C_2   0.481668 0.471104 0.977975 -0.122126
C30   C     C_2   0.518422 0.528923 0.022021 -0.122134
C31   C     C_R   0.581439 0.956379 0.484873 -0.099976
C32   C     C_R   0.499995 0.087219 0.500073 0.037785
C33   C     C_R   0.500005 0.912781 0.499928 0.037782
C34   C     C_R   0.581435 0.043631 0.484945 -0.099528
C35   C     C_R   0.418565 0.956369 0.515057 -0.099527
C36   C     C_1   0.499982 0.176678 0.500104 -0.049106
Cu1   Cu    Cu3+1 0.410780 0.500000 0.499980 1.008870
Cu2   Cu    Cu3+1 0.589220 0.500000 0.500020 1.008895
H1    H     H_    0.606033 0.562583 0.741716 0.140329
H2    H     H_    0.638788 0.594608 0.112262 0.140312
H3    H     H_    0.391673 0.449970 0.120256 0.123798
H4    H     H_    0.608292 0.550212 0.879715 0.123771
H5    H     H_    0.355307 0.077017 0.526872 0.122567
H6    H     H_    0.644693 0.922983 0.473129 0.122559
H7    H     H_    0.856204 0.405981 0.392195 0.340283
H8    H     H_    0.143796 0.594019 0.607805 0.340270
H9    H     H_    0.094688 0.416869 0.404929 0.150561
H10   H     H_    0.905312 0.583131 0.595070 0.150561
H11   H     H_    0.393872 0.437597 0.258261 0.140366
H12   H     H_    0.355316 0.922967 0.526756 0.123495
H13   H     H_    0.644684 0.077033 0.473246 0.123495
H14   H     H_    0.627265 0.619629 0.310541 0.338811
H15   H     H_    0.372855 0.380320 0.689438 0.338832
H16   H     H_    0.551424 0.583746 0.996284 0.121793
H17   H     H_    0.448672 0.416282 0.003722 0.121804
H18   H     H_    0.361390 0.405259 0.887747 0.140303
N1    N     N_1   0.723290 0.500020 0.499980 -0.187351
N2    N     N_1   0.276710 0.499980 0.500020 -0.187360
O1    O     O_R   0.424680 0.619690 0.499960 -0.487097
O2    O     O_3   0.348631 0.398168 0.741234 -0.680989
O3    O     O_3   0.923191 0.402439 0.388299 -0.679746
O4    O     O_3   0.076809 0.597561 0.611701 -0.679760
O5    O     O_R   0.575320 0.380310 0.500040 -0.487092
O6    O     O_R   0.575360 0.619690 0.500000 -0.496107
O7    O     O_R   0.424640 0.380310 0.500000 -0.496093
O8    O     O_R   0.415920 0.500010 0.613580 -0.484353
O9    O     O_R   0.584080 0.499990 0.386420 -0.484300
O10   O     O_R   0.566610 0.500010 0.613610 -0.504294
O11   O     O_R   0.433390 0.499990 0.386390 -0.504312
O12   O     O_3   0.651516 0.601682 0.258781 -0.680938

loop_
_geom_bond_atom_site_label_1
_geom_bond_atom_site_label_2
_ccdc_geom_bond_type
C20   H4    S    
C18   H1    S    
C31   C33   A    
H14   O12   S    
C15   C17   S    
Cu1   Cu2   S    
C22   C29   S    
Cu1   O11   S    
C25   C27   A    
Cu2   N1    S    
C5    H9    S    
C12   O7    A    
C19   H11   S    
C23   C35   A    
Cu1   N2    S    
C25   H18   S    
C15   O9    A    
C23   C32   A    
C35   H12   S    
C4    C36   T    
C2    C3    T    
C14   O8    A    
C31   C34   A    
C23   H5    S    
C5    C10   A    
Cu1   O1    S    
Cu1   O8    S    
C7    C11   S    
C30   H16   S    
C26   H2    S    
C34   H13   S    
C29   C30   D    
C6    H10   S    
H8    O4    S    
C21   H3    S    
C32   C36   S    
C2    C33   S    
C16   C27   A    
C33   C35   A    
H15   O2    S    
Cu2   O10   S    
Cu2   O6    S    
C27   O2    S    
C1    O1    A    
C15   O11   A    
C24   C30   S    
C10   O3    S    
C4    C12   S    
C31   H6    S    
C9    O4    S    
C11   N2    T    
C8    C13   S    
C6    C9    A    
C13   N1    T    
Cu2   O9    S    
C18   C20   A    
C16   C18   A    
Cu2   O5    S    
C21   C24   A    
H7    O3    S    
C7    C9    A    
C12   O5    A    
C14   O10   A    
C5    C7    A    
C17   C19   A    
C6    C8    A    
C29   H17   S    
C19   C21   A    
C14   C16   S    
C17   C28   A    
C26   C28   A    
C1    O6    A    
C8    C10   A    
C28   O12   S    
C24   C26   A    
Cu1   O7    S    
C20   C22   A    
C1    C3    S    
C22   C25   A    
C32   C34   A    
