data_mof_unit_45785.cif
_audit_creation_date              2012-12-11T14:56:22-0500
_audit_creation_method            fapswitch 2.2
_symmetry_space_group_name_H-M    P1
_symmetry_Int_Tables_number       1
_space_group_crystal_system       triclinic
_cell_length_a                    10.524223
_cell_length_b                    10.630326
_cell_length_c                    17.059649
_cell_angle_alpha                 80.203053
_cell_angle_beta                  89.645058
_cell_angle_gamma                 118.785539
_cell_volume                      1639.72138927

loop_
_atom_site_label
_atom_site_type_symbol
_atom_type_description
_atom_site_fract_x
_atom_site_fract_y
_atom_site_fract_z
_atom_type_partial_charge
Br1   Br    Br    0.973878 0.522451 0.097380 -0.332097
Br2   Br    Br    0.041967 0.029451 0.826591 -0.412113
C1    C     C_R   0.279900 0.889288 0.132715 0.526631
C2    C     C_1   0.684252 0.401956 0.709863 -0.012266
C3    C     C_R   0.629660 0.719440 0.802866 -0.160575
C4    C     C_R   0.637842 0.283296 0.084966 0.542050
C5    C     C_R   0.617231 0.701494 0.725172 -0.139510
C6    C     C_R   0.664486 0.823735 0.663105 -0.029429
C7    C     C_R   0.726571 0.964726 0.678409 -0.093859
C8    C     C_R   0.732838 0.982857 0.756794 0.398682
C9    C     C_R   0.681999 0.859044 0.819290 0.061982
C10   C     C_R   0.088008 0.894481 0.787718 0.083646
C11   C     C_R   0.073975 0.889220 0.708390 -0.123380
C12   C     C_R   0.821674 0.473603 0.248067 0.321919
C13   C     C_R   0.112211 0.801207 0.672568 -0.068220
C14   C     C_R   0.148662 0.704372 0.718834 -0.100969
C15   C     C_R   0.163548 0.708179 0.799149 0.353208
C16   C     C_R   0.601431 0.881552 0.130982 0.515312
C17   C     C_R   0.143797 0.811393 0.832546 0.029391
C18   C     C_R   0.683556 0.813184 0.358550 0.541844
C19   C     C_R   0.724887 0.456275 0.382919 0.611183
C20   C     C_R   0.109542 0.812979 0.360215 0.577011
C21   C     C_R   0.676187 0.801176 0.584186 0.531355
C22   C     C_R   0.717066 0.446372 0.625916 0.547784
C23   C     C_R   0.802899 0.445168 0.171333 0.179761
C24   C     C_R   0.089520 0.798166 0.589676 0.547998
C25   C     C_R   0.214431 0.857599 0.903002 0.611350
C26   C     C_R   0.640134 0.290847 0.861939 0.568162
C27   C     C_R   0.645260 0.868529 0.898209 0.582295
C28   C     C_R   0.540011 0.323070 0.203150 -0.145735
C29   C     C_R   0.558937 0.356637 0.278550 0.321810
C30   C     C_R   0.700404 0.426422 0.302665 -0.003491
C31   C     C_R   0.661058 0.359920 0.150854 -0.085966
C32   C     C_1   0.635069 0.871041 0.211201 -0.018909
C33   C     C_1   0.662035 0.855645 0.278891 -0.011213
C34   C     C_1   0.230128 0.855519 0.215740 0.026696
C35   C     C_1   0.181604 0.836046 0.283484 0.055063
C36   C     C_1   0.661539 0.357981 0.780472 0.009684
Cr1   Cr    Cr6+3 0.402240 0.783890 0.019450 1.142886
Cr2   Cr    Cr6+3 0.382360 0.097900 0.991800 1.084563
Cr3   Cr    Cr6+3 0.715380 0.118170 0.988700 1.154064
Cr4   Cr    Cr6+3 0.936650 0.882420 0.465510 1.076780
Cr5   Cr    Cr6+3 0.605770 0.565620 0.493360 1.095415
Cr6   Cr    Cr6+3 0.921340 0.550490 0.496380 1.086590
F1    F     F_    0.207914 0.618985 0.841938 -0.583944
F2    F     F_    0.438220 0.311042 0.329124 -0.584861
F3    F     F_    0.958386 0.543674 0.270107 -0.605266
F4    F     F_    0.782586 0.119779 0.771140 -0.585253
H1    H     H_    0.429996 0.258628 0.188178 0.182165
H2    H     H_    0.033652 0.956218 0.674548 0.188588
H3    H     H_    0.169230 0.629231 0.692505 0.176489
H4    H     H_    0.589563 0.623432 0.850372 0.155463
H5    H     H_    0.573487 0.591952 0.713525 0.152144
H6    H     H_    0.768111 0.059360 0.629989 0.160315
O1    O     O_R   0.521780 0.757110 0.108900 -0.489577
O2    O     O_R   0.805020 0.410040 0.421340 -0.462324
O3    O     O_R   0.049240 0.685450 0.403290 -0.464458
O4    O     O_R   0.275160 0.783810 0.101120 -0.441755
O5    O     O_R   0.077520 0.903010 0.551800 -0.498654
O6    O     O_R   0.802980 0.872780 0.546830 -0.508714
O7    O     O_R   0.578090 0.681300 0.569920 -0.514777
O8    O     O_R   0.608530 0.436370 0.586530 -0.485687
O9    O     O_R   0.798770 0.401880 0.597100 -0.473687
O10   O     O_R   0.043450 0.677890 0.566230 -0.522294
O11   O     O_3   0.821250 0.666180 0.485090 -0.332818
O12   O     O_R   0.513330 0.228330 0.898660 -0.499043
O13   O     O_R   0.237900 0.972600 0.090980 -0.484311
O14   O     O_R   0.511190 0.220540 0.061620 -0.535628
O15   O     O_R   0.736920 0.257720 0.063840 -0.470281
O16   O     O_R   0.710450 0.984050 0.081720 -0.480076
O17   O     O_R   0.524090 0.765520 0.933110 -0.495409
O18   O     O_R   0.277300 0.791600 0.938160 -0.419697
O19   O     O_R   0.240210 0.981010 0.915190 -0.463137
O20   O     O_R   0.739230 0.266130 0.888050 -0.422660
O21   O     O_R   0.712580 0.991850 0.918770 -0.414565
O22   O     O_3   0.499990 0.999980 0.999980 -0.343660
O23   O     O_R   0.083770 0.911170 0.376030 -0.478621
O24   O     O_R   0.808770 0.880340 0.383890 -0.485439
O25   O     O_R   0.584340 0.689460 0.394160 -0.493047
O26   O     O_R   0.614320 0.443940 0.423590 -0.422905

loop_
_geom_bond_atom_site_label_1
_geom_bond_atom_site_label_2
_ccdc_geom_bond_type
C16   O16   A    
C4    O15   A    
C14   H3    S    
Br2   C10   S    
C20   O3    A    
C5    C6    A    
Cr6   O10   S    
C34   C35   T    
C15   F1    S    
C3    C9    A    
C28   C29   A    
C2    C22   S    
Cr5   O25   S    
C13   C14   A    
C6    C21   S    
Cr2   O19   S    
C10   C17   A    
C32   C33   T    
C24   O10   A    
Cr3   O20   S    
C18   C33   S    
Cr1   O1    S    
C14   C15   A    
Cr2   O13   S    
Cr4   O11   S    
Cr1   O18   S    
C3    H4    S    
C17   C25   S    
C7    C8    A    
C18   O25   A    
C4    O14   A    
C26   O20   A    
Cr2   O12   S    
Br1   C23   S    
Cr6   O11   S    
Cr6   O9    S    
C21   O6    A    
C19   C30   S    
Cr4   O6    S    
C3    C5    A    
C6    C7    A    
C13   C24   S    
Cr5   O26   S    
C20   C35   S    
C29   F2    S    
Cr2   O22   S    
C26   O12   A    
Cr3   O21   S    
Cr6   O2    S    
C29   C30   A    
C26   C36   S    
Cr6   O3    S    
Cr5   O11   S    
Cr1   O22   S    
C16   C32   S    
C16   O1    A    
C28   H1    S    
C2    C36   T    
Cr4   O24   S    
C22   O9    A    
C11   C13   A    
C8    F4    S    
C5    H5    S    
Cr5   O7    S    
Cr3   O15   S    
C24   O5    A    
C22   O8    A    
C28   C31   A    
C1    O13   A    
C20   O23   A    
C12   C30   A    
Cr4   O5    S    
C19   O2    A    
C12   F3    S    
C27   O21   A    
C4    C31   S    
C18   O24   A    
Cr3   O22   S    
Cr1   O4    S    
C1    C34   S    
C19   O26   A    
C15   C17   A    
C12   C23   A    
C8    C9    A    
C11   H2    S    
C1    O4    A    
C21   O7    A    
C10   C11   A    
C9    C27   S    
Cr4   O23   S    
Cr2   O14   S    
Cr1   O17   S    
C7    H6    S    
C25   O19   A    
C25   O18   A    
Cr5   O8    S    
C23   C31   A    
Cr3   O16   S    
C27   O17   A    
