data_mof_unit_67254.cif
_audit_creation_date              2012-12-11T18:15:45-0500
_audit_creation_method            fapswitch 2.2
_symmetry_space_group_name_H-M    P1
_symmetry_Int_Tables_number       1
_space_group_crystal_system       triclinic
_cell_length_a                    20.481935
_cell_length_b                    20.553807
_cell_length_c                    8.579763
_cell_angle_alpha                 89.999955
_cell_angle_beta                  91.575826
_cell_angle_gamma                 90.285265
_cell_volume                      3610.51275859

loop_
_atom_site_label
_atom_site_type_symbol
_atom_type_description
_atom_site_fract_x
_atom_site_fract_y
_atom_site_fract_z
_atom_type_partial_charge
Ba1   Ba    Ba6+2 0.999980 0.452130 0.155200 1.727522
Ba2   Ba    Ba6+2 0.999980 0.547870 0.655200 1.730075
Ba3   Ba    Ba6+2 0.499980 0.952130 0.155200 1.727595
Ba4   Ba    Ba6+2 0.499980 0.047870 0.655200 1.730014
C1    C     C_3   0.004563 0.129671 0.203837 -0.169075
C2    C     C_R   0.113900 0.657651 0.178547 -0.300862
C3    C     C_3   0.427857 0.440783 0.167473 0.191684
C4    C     C_2   0.056294 0.381740 0.645907 0.557481
C5    C     C_2   0.066461 0.608482 0.125217 0.539066
C6    C     C_2   0.556348 0.881780 0.645820 0.556968
C7    C     C_2   0.566440 0.108477 0.125262 0.539237
C8    C     C_2   0.802578 0.808284 0.305554 0.580144
C9    C     C_2   0.801113 0.192774 0.806445 0.555949
C10   C     C_2   0.302273 0.308104 0.305945 0.581843
C11   C     C_2   0.301139 0.692744 0.806418 0.555724
C12   C     C_2   0.737068 0.629517 0.727903 0.519390
C13   C     C_R   0.612085 0.840100 0.683156 -0.322087
C14   C     C_2   0.735140 0.372242 0.229614 0.514651
C15   C     C_2   0.236957 0.129441 0.728155 0.519745
C16   C     C_2   0.235116 0.872249 0.229752 0.514188
C17   C     C_2   0.000201 0.076659 0.323592 0.582458
C18   C     C_2   0.014072 0.921335 0.807376 0.517986
C19   C     C_2   0.500649 0.576321 0.321669 0.581275
C20   C     C_2   0.514839 0.421279 0.807923 0.516280
C21   C     C_R   0.613868 0.157651 0.178630 -0.300889
C22   C     C_R   0.126204 0.290901 0.579318 0.027269
C23   C     C_R   0.123766 0.710473 0.081742 0.016602
C24   C     C_R   0.626287 0.790959 0.579141 0.027365
C25   C     C_R   0.623730 0.210470 0.081850 0.017517
C26   C     C_R   0.171195 0.243462 0.620028 -0.017910
C27   C     C_R   0.165038 0.760611 0.128178 -0.090511
C28   C     C_R   0.671332 0.743563 0.619809 -0.017727
C29   C     C_3   0.007272 0.866751 0.691566 -0.165408
C30   C     C_R   0.664972 0.260627 0.128285 -0.089519
C31   C     C_R   0.205239 0.244377 0.765208 -0.002619
C32   C     C_R   0.200993 0.758408 0.271031 0.001304
C33   C     C_R   0.705348 0.744453 0.765046 -0.002688
C34   C     C_R   0.700936 0.258433 0.271114 0.001359
C35   C     C_R   0.196622 0.298632 0.865007 -0.024420
C36   C     C_R   0.194337 0.702746 0.367392 -0.021742
C37   C     C_R   0.696687 0.798675 0.864918 -0.024348
C38   C     C_R   0.694290 0.202770 0.367476 -0.021870
C39   C     C_R   0.787201 0.695076 0.949452 -0.076152
C40   C     C_3   0.504708 0.629674 0.202792 -0.168633
C41   C     C_R   0.785430 0.306623 0.452333 -0.069834
C42   C     C_R   0.287156 0.195052 0.949498 -0.076475
C43   C     C_R   0.285484 0.806587 0.452284 -0.069424
C44   C     C_R   0.777310 0.749330 0.051548 -0.060984
C45   C     C_R   0.775870 0.251943 0.553239 -0.048572
C46   C     C_R   0.277249 0.249302 0.051608 -0.060875
C47   C     C_R   0.275936 0.751897 0.553162 -0.048754
C48   C     C_R   0.838131 0.648420 0.991757 -0.001805
C49   C     C_R   0.838285 0.352018 0.492035 0.017920
C50   C     C_R   0.338111 0.148416 0.991751 -0.002455
C51   C     C_3   0.507597 0.366860 0.691808 -0.162471
C52   C     C_R   0.338337 0.851980 0.491988 0.018576
C53   C     C_R   0.870413 0.654715 0.135607 -0.292859
C54   C     C_R   0.873046 0.344430 0.632528 -0.293865
C55   C     C_R   0.370445 0.154753 0.135506 -0.292933
C56   C     C_R   0.373075 0.844407 0.632530 -0.293944
C57   C     C_3   0.977919 0.204807 0.785141 0.298048
C58   C     C_3   0.995907 0.789159 0.315983 0.362370
C59   C     C_3   0.477917 0.704928 0.784907 0.298390
C60   C     C_3   0.495151 0.290348 0.317599 0.360853
C61   C     C_R   0.857953 0.703878 0.240260 0.018654
C62   C     C_R   0.148858 0.347881 0.822708 -0.001956
C63   C     C_R   0.858969 0.296019 0.738722 -0.009583
C64   C     C_R   0.357982 0.203914 0.240144 0.018916
C65   C     C_R   0.358973 0.796013 0.738770 -0.009731
C66   C     C_R   0.811906 0.752488 0.198853 -0.075403
C67   C     C_R   0.811393 0.248205 0.698928 -0.090677
C68   C     C_R   0.311842 0.252461 0.198901 -0.074370
C69   C     C_R   0.311432 0.748173 0.698899 -0.090802
C70   C     C_R   0.747109 0.691816 0.810171 -0.023260
C71   C     C_R   0.743584 0.310802 0.315772 -0.035875
C72   C     C_R   0.247018 0.191755 0.810312 -0.023047
C73   C     C_R   0.148709 0.651706 0.321523 -0.003498
C74   C     C_R   0.243624 0.810781 0.315747 -0.035694
C75   C     C_3   0.025380 0.148718 0.800164 0.286774
C76   C     C_3   0.999910 0.858520 0.254298 0.340234
C77   C     C_3   0.525641 0.649073 0.799949 0.285510
C78   C     C_3   0.497626 0.359800 0.255958 0.336749
C79   C     C_3   0.812091 0.462361 0.798287 0.399821
C80   C     C_3   0.808902 0.535083 0.290556 0.403516
C81   C     C_3   0.312095 0.962352 0.798326 0.399650
C82   C     C_3   0.308927 0.035099 0.290670 0.403453
C83   C     C_3   0.746982 0.430954 0.750360 0.281665
C84   C     C_R   0.648896 0.847903 0.822640 -0.001975
C85   C     C_3   0.742337 0.560666 0.236084 0.289411
C86   C     C_3   0.246986 0.930871 0.750671 0.281509
C87   C     C_3   0.242372 0.060763 0.236416 0.289608
C88   C     C_3   0.201020 0.529578 0.029641 0.291831
C89   C     C_3   0.198855 0.470011 0.529057 0.279297
C90   C     C_3   0.700979 0.029603 0.029599 0.292053
C91   C     C_3   0.698910 0.970045 0.529110 0.279126
C92   C     C_3   0.268202 0.550543 0.091512 -0.322384
C93   C     C_3   0.265832 0.446485 0.584783 -0.343925
C94   C     C_3   0.768144 0.050612 0.091469 -0.322289
C95   C     C_R   0.648678 0.151715 0.321592 -0.003543
C96   C     C_3   0.765907 0.946589 0.584873 -0.343302
C97   C     C_3   0.009566 0.198623 0.276311 0.750398
C98   C     C_3   0.012265 0.799698 0.771057 0.667090
C99   C     C_3   0.509392 0.698401 0.276509 0.749187
C100  C     C_3   0.512561 0.299704 0.770745 0.667117
C101  C     C_R   0.233953 0.300350 0.004796 -0.057474
C102  C     C_R   0.232377 0.700729 0.506181 -0.059591
C103  C     C_R   0.734006 0.800379 0.004750 -0.057347
C104  C     C_R   0.732329 0.200762 0.506259 -0.059221
C105  C     C_3   0.660240 0.436907 0.575937 0.169131
C106  C     C_R   0.112035 0.340070 0.683263 -0.322063
C107  C     C_3   0.652977 0.536212 0.077993 0.181359
C108  C     C_3   0.160169 0.936584 0.576449 0.169190
C109  C     C_3   0.152857 0.036436 0.078733 0.180292
C110  C     C_3   0.904242 0.209329 0.361670 0.150986
C111  C     C_3   0.910343 0.790883 0.875705 0.143947
C112  C     C_3   0.403983 0.708295 0.362078 0.150143
C113  C     C_3   0.410599 0.289948 0.874352 0.143479
C114  C     C_3   0.082194 0.076518 0.651039 0.214649
C115  C     C_3   0.931016 0.941505 0.173236 0.195052
C116  C     C_3   0.582361 0.576864 0.650693 0.213484
H1    H     H_    0.995854 0.235462 0.186389 0.020990
H2    H     H_    0.709461 0.561312 0.337501 0.086396
H3    H     H_    0.383697 0.302603 0.978561 0.109458
H4    H     H_    0.043868 0.039240 0.627552 0.098105
H5    H     H_    0.108794 0.064159 0.761020 -0.037427
H6    H     H_    0.117482 0.075192 0.555426 0.076559
H7    H     H_    0.975074 0.967150 0.130750 0.034613
H8    H     H_    0.917764 0.959531 0.290237 0.080807
H9    H     H_    0.889757 0.952418 0.090829 0.087570
H10   H     H_    0.544045 0.539614 0.626793 0.098958
H11   H     H_    0.608828 0.564408 0.760807 -0.036767
H12   H     H_    0.617791 0.575626 0.555387 0.076892
H13   H     H_    0.213101 0.934500 0.849436 0.104373
H14   H     H_    0.472172 0.467017 0.128299 0.038950
H15   H     H_    0.412053 0.459495 0.281780 0.081904
H16   H     H_    0.387966 0.450211 0.080342 0.089363
H17   H     H_    0.010203 0.370528 0.694246 -0.043471
H18   H     H_    0.077912 0.573003 0.037582 -0.000603
H19   H     H_    0.510278 0.870648 0.694366 -0.043089
H20   H     H_    0.577888 0.073022 0.037574 -0.000735
H21   H     H_    0.805933 0.857732 0.262373 -0.033799
H22   H     H_    0.806030 0.143196 0.765224 -0.050728
H23   H     H_    0.305324 0.357609 0.263064 -0.033806
H24   H     H_    0.209578 0.061469 0.337977 0.086853
H25   H     H_    0.306024 0.643164 0.765186 -0.051221
H26   H     H_    0.714231 0.589924 0.788392 0.029095
H27   H     H_    0.708586 0.411517 0.281517 0.028037
H28   H     H_    0.214132 0.089869 0.788719 0.029087
H29   H     H_    0.208539 0.911480 0.281781 0.028223
H30   H     H_    0.039983 0.042885 0.341073 -0.098924
H31   H     H_    0.056050 0.923410 0.887104 -0.016214
H32   H     H_    0.541499 0.544089 0.342491 -0.094439
H33   H     H_    0.556733 0.422859 0.887935 -0.015163
H34   H     H_    0.170375 0.519822 0.131455 0.009396
H35   H     H_    0.170321 0.480649 0.633689 0.076781
H36   H     H_    0.670334 0.019848 0.131412 0.009216
H37   H     H_    0.670363 0.980682 0.633723 0.076719
H38   H     H_    0.180651 0.569720 0.957210 0.018848
H39   H     H_    0.175123 0.430976 0.457965 0.073580
H40   H     H_    0.680597 0.069720 0.957116 0.018887
H41   H     H_    0.994429 0.761591 0.687765 0.041816
H42   H     H_    0.675214 0.930972 0.458073 0.073497
H43   H     H_    0.289028 0.512204 0.169045 0.109678
H44   H     H_    0.289714 0.483905 0.660725 0.141614
H45   H     H_    0.788958 0.012321 0.169127 0.110313
H46   H     H_    0.789764 0.984056 0.660726 0.142038
H47   H     H_    0.264237 0.596310 0.159273 0.096423
H48   H     H_    0.260858 0.400763 0.652345 0.099422
H49   H     H_    0.764158 0.096406 0.159088 0.096040
H50   H     H_    0.760970 0.900890 0.652540 0.099587
H51   H     H_    0.301503 0.558848 0.993409 0.127599
H52   H     H_    0.495503 0.735464 0.187259 0.021152
H53   H     H_    0.297138 0.437377 0.483566 0.138152
H54   H     H_    0.801463 0.058877 0.993393 0.128216
H55   H     H_    0.797215 0.937466 0.483664 0.138174
H56   H     H_    0.961451 0.125306 0.123562 0.047293
H57   H     H_    0.960088 0.871852 0.626285 0.106347
H58   H     H_    0.461607 0.625335 0.122512 0.049340
H59   H     H_    0.460248 0.372195 0.627395 0.105937
H60   H     H_    0.047886 0.120950 0.133028 -0.038415
H61   H     H_    0.045973 0.870688 0.604906 -0.025307
H62   H     H_    0.548069 0.621365 0.131846 -0.038816
H63   H     H_    0.494935 0.261688 0.686992 0.041487
H64   H     H_    0.546054 0.370797 0.604508 -0.028064
H65   H     H_    0.178929 0.206173 0.534362 0.135735
H66   H     H_    0.169715 0.800189 0.046744 0.120433
H67   H     H_    0.679090 0.706296 0.534103 0.135662
H68   H     H_    0.669638 0.300203 0.046842 0.120469
H69   H     H_    0.902955 0.617136 0.172831 0.107226
H70   H     H_    0.908965 0.380404 0.665537 0.025764
H71   H     H_    0.402974 0.117170 0.172740 0.107358
H72   H     H_    0.408996 0.880381 0.665543 0.025614
H73   H     H_    0.229485 0.342454 0.077583 0.101425
H74   H     H_    0.753857 0.378652 0.725516 -0.028455
H75   H     H_    0.229311 0.657790 0.576817 0.102549
H76   H     H_    0.729505 0.842454 0.077638 0.101592
H77   H     H_    0.729285 0.157816 0.576875 0.102540
H78   H     H_    0.005941 0.248321 0.747344 -0.029949
H79   H     H_    0.043186 0.776246 0.374537 -0.088304
H80   H     H_    0.505703 0.748530 0.746699 -0.030239
H81   H     H_    0.542685 0.278468 0.376160 -0.089616
H82   H     H_    0.940456 0.191786 0.694749 0.055659
H83   H     H_    0.987785 0.756299 0.213773 0.006718
H84   H     H_    0.440411 0.691667 0.694833 0.054929
H85   H     H_    0.746929 0.611178 0.192717 -0.047052
H86   H     H_    0.487799 0.257299 0.215490 0.008114
H87   H     H_    0.064213 0.161904 0.887751 -0.006999
H88   H     H_    0.039885 0.861612 0.169290 -0.015000
H89   H     H_    0.564516 0.662513 0.887190 -0.006036
H90   H     H_    0.538239 0.364129 0.173064 -0.017583
H91   H     H_    0.997886 0.104977 0.839814 0.059469
H92   H     H_    0.011901 0.891916 0.353452 -0.035305
H93   H     H_    0.498378 0.605266 0.840048 0.059405
H94   H     H_    0.507532 0.393518 0.355464 -0.026474
H95   H     H_    0.841080 0.471363 0.693212 0.002097
H96   H     H_    0.253884 0.878548 0.726112 -0.028349
H97   H     H_    0.838646 0.524909 0.187503 0.001723
H98   H     H_    0.341015 0.971359 0.693142 0.002231
H99   H     H_    0.338614 0.024930 0.187520 0.001671
H100  H     H_    0.839237 0.430083 0.880843 -0.004087
H101  H     H_    0.833674 0.571327 0.367971 -0.019518
H102  H     H_    0.339319 0.930113 0.880835 -0.004361
H103  H     H_    0.333767 0.071297 0.368089 -0.019472
H104  H     H_    0.641404 0.461390 0.468806 0.036959
H105  H     H_    0.625256 0.446197 0.668817 -0.006842
H106  H     H_    0.663668 0.383911 0.551057 0.025434
H107  H     H_    0.246994 0.111257 0.192970 -0.047178
H108  H     H_    0.635584 0.504691 0.980803 0.053540
H109  H     H_    0.649582 0.587718 0.039022 0.019304
H110  H     H_    0.620948 0.526419 0.177051 0.001214
H111  H     H_    0.141218 0.961027 0.469362 0.037311
H112  H     H_    0.125234 0.945831 0.669527 -0.007250
H113  H     H_    0.163654 0.883584 0.551586 0.025593
H114  H     H_    0.135223 0.004714 0.982174 0.053305
H115  H     H_    0.149589 0.087853 0.038988 0.019681
H116  H     H_    0.120927 0.027054 0.178221 0.002443
H117  H     H_    0.889219 0.181172 0.256077 0.073242
H118  H     H_    0.713070 0.434485 0.849094 0.103873
H119  H     H_    0.894259 0.261146 0.340914 0.072542
H120  H     H_    0.874507 0.189996 0.456366 0.069216
H121  H     H_    0.901294 0.739475 0.844554 0.073144
H122  H     H_    0.890772 0.823242 0.782171 0.058838
H123  H     H_    0.883804 0.803578 0.980539 0.108979
H124  H     H_    0.389035 0.680137 0.256433 0.073839
H125  H     H_    0.393792 0.760093 0.341442 0.071973
H126  H     H_    0.374323 0.688864 0.456803 0.068935
H127  H     H_    0.402154 0.238394 0.843933 0.073714
H128  H     H_    0.390946 0.321847 0.780084 0.058605
O1    O     O_2   0.130070 0.404060 0.104920 -0.460167
O2    O     O_3   0.945773 0.785784 0.425254 -0.628564
O3    O     O_3   0.447324 0.714898 0.927609 -0.666605
O4    O     O_3   0.445166 0.285939 0.427009 -0.629289
O5    O     O_3   0.924190 0.533610 0.949240 -0.482243
O6    O     O_3   0.924190 0.466390 0.449240 -0.466842
O7    O     O_3   0.424190 0.033610 0.949240 -0.482264
O8    O     O_3   0.424190 0.966390 0.449240 -0.466926
O9    O     O_3   0.075780 0.466370 0.861070 -0.493026
O10   O     O_3   0.075780 0.533630 0.361070 -0.426163
O11   O     O_3   0.575780 0.966370 0.861070 -0.493163
O12   O     O_2   0.130070 0.595940 0.604920 -0.458832
O13   O     O_3   0.575780 0.033630 0.361070 -0.426028
O14   O     O_3   0.022320 0.344950 0.359800 -0.471367
O15   O     O_3   0.022320 0.655050 0.859800 -0.491577
O16   O     O_3   0.522320 0.844950 0.359800 -0.471622
O17   O     O_3   0.522320 0.155050 0.859800 -0.491856
O18   O     O_2   0.143215 0.312149 0.276296 -0.485859
O19   O     O_2   0.145409 0.683222 0.786306 -0.477954
O20   O     O_2   0.643030 0.811892 0.275820 -0.485512
O21   O     O_2   0.645519 0.183088 0.786611 -0.478232
O22   O     O_3   0.207711 0.474655 0.935271 -0.649282
O23   O     O_2   0.630070 0.904060 0.104920 -0.460100
O24   O     O_3   0.206950 0.525090 0.435663 -0.657211
O25   O     O_3   0.707702 0.974668 0.935300 -0.648918
O26   O     O_3   0.706960 0.025105 0.435626 -0.657265
O27   O     O_3   0.074817 0.209144 0.322059 -0.625302
O28   O     O_3   0.078362 0.788076 0.805947 -0.638743
O29   O     O_3   0.574613 0.708992 0.322550 -0.624873
O30   O     O_3   0.578595 0.288060 0.806087 -0.638879
O31   O     O_2   0.869860 0.403670 0.205810 -0.439881
O32   O     O_2   0.869860 0.596330 0.705810 -0.439198
O33   O     O_2   0.369860 0.903670 0.205810 -0.439782
O34   O     O_2   0.630070 0.095940 0.604920 -0.458894
O35   O     O_2   0.369860 0.096330 0.705810 -0.438954
O36   O     O_3   0.977590 0.344880 0.951200 -0.502069
O37   O     O_3   0.977590 0.655120 0.451200 -0.451786
O38   O     O_3   0.477590 0.844880 0.951200 -0.501915
O39   O     O_3   0.477590 0.155120 0.451200 -0.451882
O40   O     O_2   0.870260 0.292706 0.068754 -0.420848
O41   O     O_2   0.870718 0.707303 0.570284 -0.433901
O42   O     O_2   0.370355 0.792609 0.069060 -0.420763
O43   O     O_2   0.370323 0.206676 0.569764 -0.432921
O44   O     O_3   0.721279 0.463806 0.618396 -0.630361
O45   O     O_3   0.797361 0.479221 0.376388 -0.614296
O46   O     O_3   0.717662 0.519364 0.117044 -0.627273
O47   O     O_3   0.221217 0.963568 0.618561 -0.630545
O48   O     O_3   0.217550 0.019467 0.117539 -0.627212
O49   O     O_3   0.970214 0.202933 0.408098 -0.657955
O50   O     O_3   0.977137 0.799973 0.910165 -0.677001
O51   O     O_3   0.470004 0.702064 0.408362 -0.658149
O52   O     O_3   0.477199 0.299798 0.909479 -0.676914
O53   O     O_3   0.054115 0.138762 0.654749 -0.635996
O54   O     O_3   0.939774 0.873741 0.178741 -0.642333
O55   O     O_3   0.554272 0.639092 0.654442 -0.636484
O56   O     O_3   0.797515 0.520076 0.873309 -0.623447
O57   O     O_3   0.437758 0.373229 0.177525 -0.644774
O58   O     O_2   0.061800 0.428674 0.560743 -0.549443
O59   O     O_2   0.011659 0.609551 0.174167 -0.587550
O60   O     O_2   0.561848 0.928684 0.560564 -0.549310
O61   O     O_2   0.511643 0.109520 0.174240 -0.587379
O62   O     O_2   0.789835 0.799477 0.441934 -0.589407
O63   O     O_2   0.785782 0.202076 0.940958 -0.571900
O64   O     O_2   0.289649 0.299104 0.442316 -0.589407
O65   O     O_2   0.285835 0.702050 0.940948 -0.571934
O66   O     O_2   0.752429 0.622529 0.592545 -0.585563
O67   O     O_3   0.297358 0.979217 0.376405 -0.614299
O68   O     O_2   0.753694 0.377616 0.096380 -0.573437
O69   O     O_2   0.252292 0.122419 0.592807 -0.585341
O70   O     O_2   0.253659 0.877698 0.096531 -0.573643
O71   O     O_2   0.951512 0.070482 0.401244 -0.583669
O72   O     O_2   0.972172 0.963217 0.813445 -0.613339
O73   O     O_2   0.451237 0.568554 0.395816 -0.586319
O74   O     O_2   0.473419 0.463633 0.813792 -0.615507
O75   O     O_3   0.297514 0.020073 0.873332 -0.623555
O76   O     O_3   0.947225 0.214821 0.927707 -0.666682
P1    P     P_3+3 0.136530 0.426510 0.931350 0.954670
P2    P     P_3+3 0.911089 0.708075 0.420733 1.024485
P3    P     P_3+3 0.411189 0.791516 0.920388 0.970716
P4    P     P_3+3 0.410999 0.208023 0.420767 1.024116
P5    P     P_3+3 0.089246 0.709658 0.882563 0.980553
P6    P     P_3+3 0.088418 0.289787 0.383142 1.008464
P7    P     P_3+3 0.589310 0.209603 0.882623 0.980731
P8    P     P_3+3 0.588323 0.789693 0.383109 1.008059
P9    P     P_3+3 0.136530 0.573490 0.431350 1.004471
P10   P     P_3+3 0.636530 0.926510 0.931350 0.954876
P11   P     P_3+3 0.636530 0.073490 0.431350 1.004507
P12   P     P_3+3 0.863410 0.426100 0.379280 1.023718
P13   P     P_3+3 0.863410 0.573900 0.879280 1.012149
P14   P     P_3+3 0.363410 0.926100 0.379280 1.023934
P15   P     P_3+3 0.363410 0.073900 0.879280 1.011990
P16   P     P_3+3 0.911195 0.291500 0.920274 0.970238

loop_
_geom_bond_atom_site_label_1
_geom_bond_atom_site_label_2
_ccdc_geom_bond_type
C77   H89   S    
O36   P16   S    
C55   H71   S    
C60   H81   S    
C86   H96   S    
C80   H101  S    
C27   C32   A    
C108  H113  S    
C24   P8    S    
Ba4   O35   S    
C16   H29   S    
C19   H32   S    
C88   H38   S    
O24   P9    S    
C89   H39   S    
C46   C68   A    
C111  H121  S    
C94   H49   S    
C85   H85   S    
O26   P11   S    
Ba3   O13   S    
C52   P14   S    
C81   H102  S    
C115  H8    S    
C19   O73   D    
C109  O48   S    
C83   H118  S    
O30   P7    S    
Ba2   O6    S    
C21   C25   A    
C109  H114  S    
C81   C86   S    
C1    C97   S    
C93   H53   S    
C96   H50   S    
C29   C98   S    
O76   P16   S    
C24   C28   A    
O19   P5    D    
Ba1   P12   S    
C80   O45   S    
Ba4   O17   S    
Ba3   P10   S    
C29   H57   S    
O9    P1    S    
C99   O51   S    
C7    H20   S    
C97   O49   S    
C5    H18   S    
C64   C68   A    
C93   H44   S    
C96   H55   S    
C83   O44   S    
C114  H4    S    
C9    H22   S    
C62   C106  A    
O41   P2    D    
C78   O57   S    
O3    P3    S    
O39   P4    S    
C11   C69   S    
O43   P4    D    
O33   P14   D    
C1    H56   S    
Ba1   O6    S    
C110  H120  S    
Ba1   O10   S    
C65   P3    S    
C37   C103  A    
O8    P14   S    
C108  O47   S    
O27   P6    S    
O34   P11   D    
C44   C66   A    
C49   C54   A    
C15   H28   S    
C7    O61   D    
O35   P15   D    
C63   P16   S    
O10   P9    S    
C98   H41   S    
C75   H87   S    
C54   C63   A    
C58   O2    S    
C100  H63   S    
C1    C17   S    
C45   C67   A    
C36   C73   A    
O11   P10   S    
C105  O44   S    
C107  O46   S    
Ba3   O38   S    
C112  H124  S    
C14   C71   S    
C2    C5    S    
O38   P3    S    
C82   O67   S    
O15   P5    S    
O56   P13   S    
O29   P8    S    
C91   O26   S    
C12   C70   S    
C14   O68   D    
C58   H79   S    
Ba1   O31   S    
Ba2   O32   S    
Ba1   O1    S    
C85   O46   S    
O23   P10   D    
C85   H2    S    
C7    C21   S    
C61   C66   A    
C87   O48   S    
C88   C92   S    
Ba3   O23   S    
C8    H21   S    
C104  H77   S    
C81   O75   S    
C60   O4    S    
C77   H93   S    
C54   H70   S    
C46   C101  A    
Ba4   O34   S    
C51   H64   S    
C73   P9    S    
C116  O55   S    
C56   H72   S    
C76   H92   S    
C41   C49   A    
C59   O3    S    
C57   O76   S    
Ba4   P15   S    
C77   O55   S    
C103  H76   S    
C22   P6    S    
C40   C99   S    
C45   C104  A    
C50   C55   A    
C16   O70   D    
C31   C72   A    
C17   O71   D    
Ba4   O39   S    
C18   O72   D    
C26   H65   S    
C89   H35   S    
C14   H27   S    
C80   H97   S    
C40   H58   S    
C51   C100  S    
C8    O62   D    
C9    O63   D    
C10   O64   D    
C81   H98   S    
C53   H69   S    
C4    C106  S    
C57   H82   S    
C88   O22   S    
C100  O52   S    
O1    P1    D    
C28   C33   A    
O2    P2    S    
Ba2   O37   S    
C76   H88   S    
C112  H126  S    
C22   C26   A    
C107  H109  S    
O22   P1    S    
C62   P1    S    
C82   H103  S    
Ba4   O8    S    
Ba3   Ba4   S    
C89   C93   S    
C36   C102  A    
C113  H128  S    
C8    C66   S    
C18   H31   S    
C90   H40   S    
C28   H67   S    
C91   H37   S    
C51   H59   S    
C98   O50   S    
C105  H106  S    
C86   O47   S    
C93   H48   S    
C3    H16   S    
O18   P6    D    
C56   C65   A    
C57   C75   S    
C115  H9    S    
O28   P5    S    
C115  O54   S    
C33   C37   A    
Ba1   O14   S    
Ba2   O9    S    
C3    O57   S    
Ba4   P11   S    
Ba3   O16   S    
Ba2   P9    S    
O17   P7    S    
C43   C74   A    
O42   P3    D    
C43   C52   A    
C78   H90   S    
C115  H7    S    
C79   C83   S    
C33   C70   A    
C109  H116  S    
C116  H11   S    
C64   P4    S    
C76   O54   S    
C12   O66   D    
C75   H91   S    
C107  H108  S    
O7    P15   S    
C15   C72   S    
C15   O69   D    
C87   H24   S    
C82   C87   S    
C90   C94   S    
C4    O58   D    
C59   H80   S    
Ba3   O8    S    
C21   C95   A    
O21   P7    D    
C112  O51   S    
C95   P11   S    
C92   H51   S    
C65   C69   A    
C25   P7    S    
C114  H5    S    
O13   P11   S    
O4    P4    S    
C30   C34   A    
C10   C68   S    
Ba3   P14   S    
Ba1   O5    S    
O45   P12   S    
C3    H14   S    
C86   H13   S    
O5    P13   S    
C91   C96   S    
Ba2   P13   S    
C43   C47   A    
C9    C67   S    
C23   P5    S    
C23   C27   A    
C25   C30   A    
C97   H1    S    
C19   C40   S    
C52   C56   A    
C114  O53   S    
C4    H17   S    
C31   C35   A    
C1    H60   S    
C111  H122  S    
Ba2   O15   S    
C41   C45   A    
C90   O25   S    
C42   C50   A    
C92   H47   S    
C108  H111  S    
Ba4   O11   S    
C29   H61   S    
C35   C62   A    
C6    H19   S    
Ba2   O5    S    
C40   H62   S    
C20   H33   S    
C58   C76   S    
C109  H115  S    
C37   C84   A    
C10   H23   S    
C87   H107  S    
C53   C61   A    
C57   H78   S    
C79   H95   S    
C102  H75   S    
C16   C74   S    
C108  H112  S    
C60   H86   S    
O25   P10   S    
C63   C67   A    
C82   H99   S    
C39   C48   A    
C48   C53   A    
C44   C103  A    
C49   P12   S    
C90   H36   S    
C88   H34   S    
C84   P10   S    
C110  H119  S    
Ba2   O12   S    
O75   P15   S    
C13   C84   A    
C11   O65   D    
O67   P14   S    
C42   C72   A    
C79   O56   S    
C20   C51   S    
C101  H73   S    
C113  O52   S    
C26   C31   A    
C59   C77   S    
C111  O50   S    
C116  H10   S    
C12   H26   S    
C34   C38   A    
C94   H54   S    
C6    C13   S    
O16   P8    S    
C96   H46   S    
Ba1   Ba2   S    
C78   H94   S    
O6    P12   S    
O31   P12   D    
C39   C44   A    
C75   O53   S    
C39   C70   A    
O14   P6    S    
C34   C71   A    
C113  H127  S    
C48   P13   S    
O40   P16   D    
C59   H84   S    
C32   C36   A    
C91   H42   S    
C100  O30   S    
C11   H25   S    
C105  H105  S    
C2    C73   A    
O32   P13   D    
C3    H15   S    
C55   C64   A    
C110  O49   S    
C2    C23   A    
C5    O59   D    
C6    O60   D    
C17   H30   S    
C30   H68   S    
C60   C78   S    
C105  H104  S    
C110  H117  S    
C111  H123  S    
C50   P15   S    
O20   P8    D    
C99   H52   S    
C80   C85   S    
C99   O29   S    
C61   P2    S    
O37   P2    S    
C35   C101  A    
C18   C29   S    
C22   C106  A    
C116  H12   S    
C13   C24   A    
C47   C69   A    
C83   H74   S    
Ba1   O36   S    
C42   C46   A    
C92   H43   S    
C20   O74   D    
C41   C71   A    
C113  H3    S    
O12   P9    D    
C32   C74   A    
C38   C95   A    
C79   H100  S    
C89   O24   S    
C47   C102  A    
C27   H66   S    
Ba3   O7    S    
C58   H83   S    
C94   H45   S    
Ba3   O33   S    
C112  H125  S    
C107  H110  S    
C97   O27   S    
C114  H6    S    
Ba4   O7    S    
C98   O28   S    
C38   C104  A    
Ba1   P1    S    
