data_mof_unit_39857.cif
_audit_creation_date              2012-12-11T17:41:44-0500
_audit_creation_method            fapswitch 2.2
_symmetry_space_group_name_H-M    P1
_symmetry_Int_Tables_number       1
_space_group_crystal_system       triclinic
_cell_length_a                    15.598994
_cell_length_b                    14.773265
_cell_length_c                    15.174035
_cell_angle_alpha                 109.852219
_cell_angle_beta                  121.849048
_cell_angle_gamma                 58.83777
_cell_volume                      2531.07235388

loop_
_atom_site_label
_atom_site_type_symbol
_atom_type_description
_atom_site_fract_x
_atom_site_fract_y
_atom_site_fract_z
_atom_type_partial_charge
C1    C     C_R   0.761306 0.989199 0.790558 -0.078635
C2    C     C_R   0.294142 0.320020 0.158503 -0.261636
C3    C     C_R   0.566663 0.718132 0.798311 -0.194928
C4    C     C_R   0.373224 0.222958 0.137830 -0.199151
C5    C     C_R   0.620256 0.761366 0.898752 0.123357
C6    C     C_R   0.339402 0.152604 0.052921 0.172853
C7    C     C_R   0.736825 0.712585 0.952695 -0.183668
C8    C     C_R   0.225096 0.179821 0.989800 -0.258922
C9    C     C_R   0.798951 0.622244 0.906802 -0.176558
C10   C     C_R   0.145998 0.275741 0.012492 -0.186692
C11   C     C_R   0.745509 0.580542 0.806305 0.519324
C12   C     C_R   0.196951 0.062793 0.226780 -0.127798
C13   C     C_R   0.180584 0.346004 0.096900 0.547138
C14   C     C_R   0.548356 0.861760 0.033473 0.242237
C15   C     C_R   0.440076 0.055580 0.944505 0.238070
C16   C     C_R   0.234898 0.291643 0.482182 -0.065707
C17   C     C_R   0.797122 0.720185 0.553038 -0.106160
C18   C     C_R   0.484509 0.958638 0.073472 -0.007432
C19   C     C_R   0.501237 0.958753 0.902895 -0.023353
C20   C     C_R   0.422751 0.053685 0.024052 -0.045666
C21   C     C_R   0.555258 0.861647 0.945377 -0.026857
C22   C     C_2   0.123259 0.404765 0.584527 -0.396224
C23   C     C_R   0.196857 0.303002 0.551336 0.224564
C24   C     C_2   0.963465 0.630841 0.515437 -0.376263
C25   C     C_2   0.140516 0.492799 0.611564 0.445667
C26   C     C_2   0.047576 0.597003 0.608385 0.448100
C27   C     C_2   0.856021 0.113211 0.897860 -0.197115
C28   C     C_2   0.016390 0.047051 0.154656 -0.179094
C29   C     C_R   0.095328 0.715532 0.158298 0.504730
C30   C     C_R   0.770519 0.118873 0.329408 0.473599
C31   C     C_R   0.188304 0.684067 0.253593 -0.283426
C32   C     C_R   0.679827 0.215890 0.328410 -0.331279
C33   C     C_R   0.292647 0.609634 0.257180 0.066818
C34   C     C_R   0.854604 0.715541 0.505847 0.218301
C35   C     C_R   0.687499 0.287740 0.417007 0.050425
C36   C     C_R   0.302760 0.565040 0.163871 -0.245082
C37   C     C_R   0.789978 0.265868 0.505418 -0.257774
C38   C     C_R   0.210451 0.593442 0.067233 0.242543
C39   C     C_R   0.883045 0.169583 0.508661 0.259502
C40   C     C_R   0.592994 0.224332 0.502355 -0.113259
C41   C     C_R   0.405990 0.770307 0.437729 -0.132376
C42   C     C_R   0.105105 0.671444 0.063563 0.201267
C43   C     C_R   0.873383 0.093463 0.420315 0.166296
C44   C     C_R   0.401320 0.497538 0.402706 0.175423
C45   C     C_R   0.501529 0.313360 0.454191 0.114462
C46   C     C_R   0.585923 0.480629 0.396298 0.223860
C47   C     C_R   0.499965 0.401255 0.426474 -0.057276
C48   C     C_R   0.489220 0.575431 0.382414 -0.030468
C49   C     C_R   0.590119 0.390234 0.413907 0.016899
C50   C     C_R   0.391463 0.570924 0.356612 -0.014132
C51   C     C_2   0.865424 0.104914 0.987961 -0.080634
C52   C     C_2   0.957941 0.116942 0.084160 -0.112716
C53   C     C_R   0.408053 0.000294 0.721291 -0.152022
C54   C     C_R   0.589986 0.954212 0.267029 -0.104025
C55   C     C_R   0.409061 0.295559 0.420944 -0.121361
C56   C     C_R   0.496687 0.675707 0.438998 0.095981
C57   C     C_R   0.590771 0.693314 0.513289 -0.132831
C58   C     C_R   0.594181 0.928400 0.797934 -0.110454
C59   C     C_R   0.404270 0.019745 0.195748 -0.128053
C60   C     C_R   0.231899 0.201535 0.572850 -0.133957
C61   C     C_R   0.796676 0.809613 0.460110 -0.122878
C62   C     C_R   0.761981 0.081614 0.700576 -0.103197
C63   C     C_R   0.195368 0.971643 0.315607 -0.146151
C64   C     C_R   0.794386 0.064299 0.800148 0.137656
C65   C     C_R   0.132792 0.025050 0.227417 0.141077
C66   C     C_3   0.604400 0.758505 0.080818 -0.928114
C67   C     C_R   0.501842 0.960542 0.810578 0.094038
C68   C     C_3   0.396035 0.162107 0.907596 -0.900046
C69   C     C_3   0.005958 0.707686 0.960344 -0.889319
C70   C     C_3   0.971443 0.987683 0.423687 -0.893165
C71   C     C_3   0.229297 0.536552 0.971314 -0.814770
C72   C     C_3   0.989596 0.152649 0.608060 -0.946548
C73   C     C_3   0.311967 0.531609 0.435738 -0.883231
C74   C     C_3   0.679765 0.474943 0.385635 -0.963916
C75   C     C_R   0.493854 0.965547 0.174113 0.083978
C76   C     C_R   0.629266 0.628207 0.752117 -0.189796
Cl1   Cl    Cl    0.824891 0.469486 0.748309 -0.746478
Cl2   Cl    Cl    0.082094 0.466088 0.126345 -0.713691
Cl3   Cl    Cl    0.050394 0.674435 0.726649 -0.673538
Cl4   Cl    Cl    0.269908 0.488256 0.646576 -0.637902
Cl5   Cl    Cl    0.967797 0.808835 0.162296 -0.687191
Cl6   Cl    Cl    0.750237 0.033607 0.213322 -0.659523
H1    H     H_    0.778314 0.953287 0.852310 0.098524
H2    H     H_    0.197571 0.126795 0.923107 0.148508
H3    H     H_    0.888696 0.585429 0.948917 0.217123
H4    H     H_    0.058110 0.295690 0.964038 0.178474
H5    H     H_    0.970090 0.586431 0.443991 0.143509
H6    H     H_    0.046132 0.410589 0.574162 0.140038
H7    H     H_    0.217984 0.353860 0.445387 0.130102
H8    H     H_    0.827291 0.666545 0.607073 0.141188
H9    H     H_    0.178860 0.718705 0.324975 0.168747
H10   H     H_    0.603739 0.236899 0.257405 0.167159
H11   H     H_    0.382941 0.505099 0.166321 0.152763
H12   H     H_    0.169422 0.120339 0.178138 0.095810
H13   H     H_    0.796584 0.323489 0.572721 0.223964
H14   H     H_    0.679204 0.202814 0.528758 0.111661
H15   H     H_    0.319593 0.785957 0.391121 0.112058
H16   H     H_    0.322773 0.022221 0.702247 0.108554
H17   H     H_    0.674585 0.919537 0.277199 0.157683
H18   H     H_    0.324814 0.338225 0.366049 0.126441
H19   H     H_    0.676137 0.635472 0.538862 0.139230
H20   H     H_    0.679918 0.883023 0.848666 0.118923
H21   H     H_    0.317571 0.044266 0.141139 0.116961
H22   H     H_    0.212790 0.181648 0.620726 0.109232
H23   H     H_    0.983223 0.995902 0.150481 0.202947
H24   H     H_    0.826523 0.837771 0.429350 0.124953
H25   H     H_    0.778231 0.133158 0.681106 0.105869
H26   H     H_    0.163910 0.946208 0.347063 0.113144
H27   H     H_    0.990031 0.168234 0.086870 0.137590
H28   H     H_    0.819311 0.070725 0.989767 0.158135
H29   H     H_    0.584859 0.695840 0.018800 0.259505
H30   H     H_    0.695947 0.732448 0.122133 0.260582
H31   H     H_    0.575734 0.765226 0.136803 0.242992
H32   H     H_    0.411569 0.221747 0.975218 0.250333
H33   H     H_    0.438509 0.158437 0.865749 0.256176
H34   H     H_    0.903053 0.147023 0.896934 0.142726
H35   H     H_    0.305133 0.191361 0.856308 0.239840
H36   H     H_    0.928985 0.769504 0.967633 0.266714
H37   H     H_    0.024792 0.741920 0.921429 0.283938
H38   H     H_    0.987411 0.639483 0.909705 0.263243
H39   H     H_    0.952091 0.934101 0.351824 0.322520
H40   H     H_    0.041020 0.000368 0.435175 0.232563
H41   H     H_    0.998999 0.945776 0.488694 0.241474
H42   H     H_    0.152169 0.556353 0.897747 0.287821
H43   H     H_    0.287559 0.556523 0.968986 0.258785
H44   H     H_    0.266802 0.449377 0.974292 0.231314
H45   H     H_    0.587526 0.596252 0.674110 0.161825
H46   H     H_    0.060575 0.076261 0.605337 0.244958
H47   H     H_    0.014144 0.217271 0.624750 0.256749
H48   H     H_    0.975754 0.155036 0.673654 0.255019
H49   H     H_    0.287006 0.616346 0.467305 0.244431
H50   H     H_    0.237423 0.522348 0.368292 0.270637
H51   H     H_    0.342561 0.488008 0.500518 0.284265
H52   H     H_    0.697224 0.411430 0.324220 0.262067
H53   H     H_    0.657929 0.550317 0.362054 0.245546
H54   H     H_    0.756269 0.457525 0.460554 0.258345
H55   H     H_    0.321104 0.374968 0.222301 0.160775
H56   H     H_    0.476821 0.755234 0.755318 0.146818
H57   H     H_    0.460498 0.202146 0.187293 0.151014
H58   H     H_    0.779511 0.745691 0.029456 0.219969
N1    N     N_R   0.705410 0.966550 0.689210 -0.043582
N2    N     N_R   0.556610 0.796750 0.548620 -0.044964
N3    N     N_R   0.556610 0.951620 0.703500 -0.046775
N4    N     N_R   0.443390 0.048380 0.296500 -0.045544
N5    N     N_R   0.294590 0.131500 0.522480 -0.049740
N6    N     N_R   0.705410 0.868500 0.477520 -0.054295
N7    N     N_R   0.705410 0.023370 0.632390 -0.045284
N8    N     N_R   0.294590 0.976630 0.367610 -0.045082
N9    N     N_R   0.294590 0.033450 0.310790 -0.045338
N10   N     N_R   0.294590 0.188320 0.465660 -0.056205
N11   N     N_R   0.705410 0.811680 0.534340 -0.053163
N12   N     N_R   0.556610 0.157790 0.497330 -0.045696
N13   N     N_R   0.443390 0.842210 0.502670 -0.045560
N14   N     N_R   0.443390 0.997080 0.657540 -0.038951
N15   N     N_R   0.556610 0.002920 0.342460 -0.053012
N16   N     N_R   0.443390 0.203250 0.451380 -0.039724
Ni1   Ni    Ni4+2 0.629830 0.882720 0.617850 0.239461
Ni2   Ni    Ni4+2 0.370170 0.117280 0.382150 0.225055
Ni3   Ni    Ni4+2 0.629830 0.013030 0.487540 0.228960
Ni4   Ni    Ni4+2 0.370170 0.986970 0.512460 0.211481

loop_
_geom_bond_atom_site_label_1
_geom_bond_atom_site_label_2
_ccdc_geom_bond_type
C63   C65   A    
C18   C75   S    
C66   H31   S    
C29   C42   A    
C25   Cl4   S    
C14   C18   A    
N7    Ni3   S    
C73   H49   S    
C54   H17   S    
C72   H47   S    
C47   C49   A    
C15   C19   A    
C46   C49   A    
C37   H13   S    
C57   N2    A    
C72   H46   S    
N11   Ni1   S    
C14   C21   A    
C19   C21   A    
C24   C26   D    
C38   C42   A    
C11   C76   A    
C7    H58   S    
C69   H36   S    
C33   C36   A    
C56   C57   A    
C40   N12   A    
C48   C56   S    
N8    Ni4   S    
C2    C13   A    
C62   C64   A    
C11   Cl1   S    
C9    H3    S    
C38   C71   S    
C58   N3    A    
N12   N16   A    
C43   C70   S    
C22   C25   D    
C74   H54   S    
C55   H18   S    
C35   C49   S    
C39   C72   S    
C31   C33   A    
C71   H44   S    
C19   C67   S    
C58   H20   S    
C22   H6    S    
C66   H29   S    
N9    Ni2   S    
N5    N10   A    
C44   C47   A    
C27   H34   S    
C48   C50   A    
C73   H50   S    
C53   N14   A    
C8    H2    S    
C23   C60   A    
C12   H12   S    
C17   N11   A    
C40   H14   S    
C70   H41   S    
C27   C51   D    
N3    Ni1   S    
C41   N13   A    
C45   C47   S    
C15   C20   A    
C46   C48   A    
N15   Ni3   S    
C51   C52   S    
C32   C35   A    
C71   H42   S    
N8    N9    A    
C4    C6    A    
C54   N15   A    
C5    C7    A    
N5    Ni4   S    
N3    N14   A    
C39   C43   A    
N6    Ni3   S    
C25   C26   S    
C69   H37   S    
C42   C69   S    
C24   C34   S    
N6    N11   A    
C30   Cl6   S    
C2    C4    A    
C61   N6    A    
C41   C56   A    
N14   Ni4   S    
C3    C76   A    
C68   H35   S    
C70   H40   S    
C28   H23   S    
C74   H53   S    
C14   C66   S    
C3    H56   S    
C61   H24   S    
C9    C11   A    
N1    Ni1   S    
C73   H51   S    
C29   Cl5   S    
C16   C23   A    
C31   H9    S    
C62   N7    A    
C41   H15   S    
C30   C43   A    
C1    H1    S    
C17   C34   A    
N2    Ni1   S    
N4    Ni2   S    
C1    C64   A    
C59   C75   A    
C63   N8    A    
C46   C74   S    
C57   H19   S    
C44   C50   A    
C7    C9    A    
C13   Cl2   S    
C10   H4    S    
C55   N16   A    
N10   Ni2   S    
C35   C37   A    
C36   H11   S    
C2    H55   S    
C12   N9    A    
C8    C10   A    
C17   H8    S    
C3    C5    A    
C10   C13   A    
C59   N4    A    
C6    C8    A    
C72   H48   S    
C62   H25   S    
C53   H16   S    
C51   H28   S    
C6    C20   S    
C12   C65   A    
C69   H38   S    
C26   Cl3   S    
C59   H21   S    
N4    N15   A    
N16   Ni2   S    
C28   C65   S    
C33   C50   S    
C29   C31   A    
C4    H57   S    
C30   C32   A    
C28   C52   D    
C70   H39   S    
C32   H10   S    
C52   H27   S    
N13   Ni4   S    
C15   C68   S    
C74   H52   S    
C36   C38   A    
C18   C20   A    
C34   C61   A    
N2    N13   A    
C44   C73   S    
C53   C67   A    
C24   H5    S    
N12   Ni3   S    
C1    N1    A    
C27   C64   S    
N1    N7    A    
C68   H33   S    
C54   C75   A    
C58   C67   A    
C16   H7    S    
C5    C21   S    
C40   C45   A    
C45   C55   A    
C37   C39   A    
C60   N5    A    
C76   H45   S    
C22   C23   S    
C71   H43   S    
C16   N10   A    
C66   H30   S    
C63   H26   S    
C60   H22   S    
C68   H32   S    
