data_mof_unit_10460.cif
_audit_creation_date              2012-10-26T18:30:20-0400
_audit_creation_method            fapswitch 2.2
_symmetry_space_group_name_H-M    P1
_symmetry_Int_Tables_number       1
_space_group_crystal_system       triclinic
_cell_length_a                    10.649151
_cell_length_b                    13.01419
_cell_length_c                    11.712081
_cell_angle_alpha                 99.903895
_cell_angle_beta                  93.815858
_cell_angle_gamma                 90.875428
_cell_volume                      1594.85432987

loop_
_atom_site_label
_atom_site_type_symbol
_atom_type_description
_atom_site_fract_x
_atom_site_fract_y
_atom_site_fract_z
_atom_type_partial_charge
C1    C     C_R   0.498233 0.299156 0.478617 0.556045
C2    C     C_R   0.608073 0.589398 0.857540 0.408870
C3    C     C_R   0.551816 0.541693 0.157431 0.036499
C4    C     C_R   0.448184 0.458307 0.842570 0.036506
C5    C     C_R   0.542931 0.535816 0.034749 -0.069086
C6    C     C_R   0.457068 0.464186 0.965251 -0.069083
C7    C     C_R   0.259530 0.500007 0.500538 0.595738
C8    C     C_R   0.740470 0.499994 0.499462 0.595744
C9    C     C_3   0.046894 0.508858 0.610494 0.223206
C10   C     C_3   0.953106 0.491142 0.389506 0.223210
C11   C     C_3   0.959854 0.420053 0.545002 0.245526
C12   C     C_R   0.501767 0.700844 0.521383 0.556049
C13   C     C_3   0.040146 0.579947 0.454998 0.245525
C14   C     C_3   0.876742 0.500398 0.498057 -0.021614
C15   C     C_3   0.123258 0.499602 0.501943 -0.021615
C16   C     C_3   0.963404 0.590808 0.563853 -0.165516
C17   C     C_3   0.036596 0.409192 0.436147 -0.165514
C18   C     C_R   0.502537 0.814281 0.533808 -0.048370
C19   C     C_R   0.497464 0.185719 0.466195 -0.048413
C20   C     C_R   0.498119 0.014751 0.343499 0.271042
C21   C     C_R   0.501885 0.985253 0.656517 0.271117
C22   C     C_R   0.499446 0.123819 0.356115 -0.098732
C23   C     C_R   0.496550 0.139394 0.565224 -0.123899
C24   C     C_R   0.500552 0.876178 0.643890 -0.098847
C25   C     C_3   0.999186 0.263652 0.605493 -0.070654
C26   C     C_3   0.000817 0.736350 0.394510 -0.070677
C27   C     C_3   0.411936 0.977153 0.154094 -0.128521
C28   C     C_3   0.587672 0.022605 0.846115 -0.128516
C29   C     C_3   0.353953 0.233912 0.922523 -0.080561
C30   C     C_3   0.646038 0.766091 0.077476 -0.080547
C31   C     C_R   0.503454 0.860608 0.434782 -0.123944
C32   C     C_R   0.499189 0.031320 0.555858 0.016193
C33   C     C_R   0.500816 0.968681 0.444154 0.016116
C34   C     C_R   0.382622 0.399663 0.019981 0.283536
C35   C     C_R   0.617376 0.600340 0.980019 0.283533
C36   C     C_R   0.391925 0.410603 0.142459 0.408874
Cl1   Cl    Cl    0.106698 0.520415 0.758181 -0.487393
Cl2   Cl    Cl    0.893302 0.479586 0.241819 -0.487372
Cl3   Cl    Cl    0.708738 0.669150 0.794749 -0.542921
Cl4   Cl    Cl    0.291260 0.330852 0.205251 -0.542917
Cu1   Cu    Cu3+1 0.509400 0.507730 0.615930 1.065735
Cu2   Cu    Cu3+1 0.490600 0.492270 0.384070 1.065733
H1    H     H_    0.931024 0.663999 0.615531 0.170280
H2    H     H_    0.017875 0.218986 0.518841 0.101386
H3    H     H_    0.962057 0.207516 0.657103 0.158272
H4    H     H_    0.982130 0.781015 0.481162 0.101401
H5    H     H_    0.911665 0.701217 0.348075 0.161812
H6    H     H_    0.037946 0.792486 0.342900 0.158224
H7    H     H_    0.443781 0.044287 0.115291 0.122803
H8    H     H_    0.319556 0.992753 0.192288 0.145864
H9    H     H_    0.397181 0.909486 0.082305 0.141453
H10   H     H_    0.680071 0.006564 0.808105 0.145942
H11   H     H_    0.555254 0.955671 0.884957 0.122677
H12   H     H_    0.068976 0.336001 0.384469 0.170281
H13   H     H_    0.602656 0.090301 0.917843 0.141564
H14   H     H_    0.385015 0.199204 0.999797 0.138091
H15   H     H_    0.435297 0.242559 0.869711 0.123588
H16   H     H_    0.284862 0.178494 0.868161 0.175886
H17   H     H_    0.564734 0.757448 0.130336 0.123537
H18   H     H_    0.614916 0.800777 0.000202 0.138041
H19   H     H_    0.715144 0.821527 0.131791 0.175916
H20   H     H_    0.504843 0.811993 0.349945 0.179065
H21   H     H_    0.495162 0.188013 0.650059 0.179111
H22   H     H_    0.495840 0.839598 0.719809 0.157017
H23   H     H_    0.504153 0.160384 0.280184 0.157092
H24   H     H_    0.381526 0.404430 0.788331 0.183485
H25   H     H_    0.618475 0.595569 0.211669 0.183485
H26   H     H_    0.088336 0.298788 0.651929 0.161803
N1    N     N_R   0.523540 0.519360 0.790140 -0.266341
N2    N     N_R   0.476460 0.480640 0.209860 -0.266341
O1    O     O_R   0.506670 0.354460 0.582000 -0.525701
O2    O     O_3   0.092243 0.660895 0.405327 -0.516221
O3    O     O_3   0.505376 0.952070 0.235439 -0.610297
O4    O     O_3   0.494634 0.047963 0.764570 -0.610281
O5    O     O_3   0.295100 0.329862 0.955038 -0.517815
O6    O     O_3   0.704896 0.670144 0.044960 -0.517813
O7    O     O_R   0.493330 0.645540 0.418000 -0.525710
O8    O     O_R   0.490800 0.341410 0.386200 -0.472347
O9    O     O_R   0.509200 0.658590 0.613800 -0.472354
O10   O     O_R   0.324790 0.506500 0.597880 -0.493100
O11   O     O_R   0.675210 0.493500 0.402120 -0.493095
O12   O     O_R   0.308910 0.493440 0.402080 -0.422276
O13   O     O_R   0.691090 0.506560 0.597920 -0.422270
O14   O     O_3   0.907758 0.339105 0.594673 -0.516202

loop_
_geom_bond_atom_site_label_1
_geom_bond_atom_site_label_2
_ccdc_geom_bond_type
C2    C35   A    
C8    O13   A    
C26   O2    S    
Cu1   Cu2   S    
Cu2   O12   S    
C28   O4    S    
Cu1   O10   S    
C25   H26   S    
C1    O1    A    
C18   C24   A    
C9    C16   S    
C5    C6    A    
C11   C14   S    
C10   C17   S    
Cu1   O13   S    
C12   O9    A    
Cu2   N2    S    
C2    Cl3   S    
C36   N2    A    
C30   H18   S    
C25   O14   S    
C31   C33   A    
C2    N1    A    
C27   H8    S    
C26   H6    S    
C34   O5    S    
Cu1   O1    S    
C23   H21   S    
C24   H22   S    
C30   H17   S    
C1    O8    A    
C31   H20   S    
Cu2   O11   S    
C25   H2    S    
C4    N1    A    
C28   H13   S    
C27   H9    S    
C21   C32   A    
C35   O6    S    
C1    C19   S    
C8    O11   A    
C36   Cl4   S    
C3    N2    A    
C4    C6    A    
C10   C14   S    
C21   O4    S    
C6    C34   A    
C19   C23   A    
C22   H23   S    
C30   O6    S    
C12   O7    A    
C19   C22   A    
C9    Cl1   S    
C9    C11   S    
C16   H1    S    
C26   H5    S    
C20   C33   A    
C13   O2    S    
C29   H15   S    
Cu2   O8    S    
C13   C15   S    
C14   C16   S    
C30   H19   S    
C21   C24   A    
C25   H3    S    
Cu1   N1    S    
C15   C17   S    
C11   C17   S    
C8    C14   S    
C3    H25   S    
C20   C22   A    
C3    C5    A    
C10   C13   S    
Cu1   O9    S    
C28   H11   S    
C29   O5    S    
C29   H14   S    
C11   O14   S    
C10   Cl2   S    
C32   C33   A    
C9    C15   S    
C23   C32   A    
C4    H24   S    
C28   H10   S    
C5    C35   A    
C7    C15   S    
C20   O3    S    
C34   C36   A    
C26   H4    S    
C7    O12   A    
C29   H16   S    
Cu2   O7    S    
C13   C16   S    
C12   C18   S    
C18   C31   A    
C27   O3    S    
C17   H12   S    
C27   H7    S    
C7    O10   A    
