data_mof_unit_66686.cif
_audit_creation_date              2012-12-10T17:47:38-0500
_audit_creation_method            fapswitch 2.2
_symmetry_space_group_name_H-M    P1
_symmetry_Int_Tables_number       1
_space_group_crystal_system       triclinic
_cell_length_a                    10.840461
_cell_length_b                    10.607118
_cell_length_c                    9.999362
_cell_angle_alpha                 88.031134
_cell_angle_beta                  92.596031
_cell_angle_gamma                 95.985511
_cell_volume                      1141.8370129

loop_
_atom_site_label
_atom_site_type_symbol
_atom_type_description
_atom_site_fract_x
_atom_site_fract_y
_atom_site_fract_z
_atom_type_partial_charge
C1    C     C_R   0.529067 0.267068 0.504794 0.992247
C2    C     C_3   0.880598 0.525006 0.499555 -0.031221
C3    C     C_3   0.946310 0.628882 0.597385 0.289826
C4    C     C_3   0.926515 0.551401 0.352044 0.039748
C5    C     C_R   0.679069 0.126558 0.752515 0.230559
C6    C     C_R   0.740572 0.050921 0.846930 0.124252
C7    C     C_R   0.736706 0.921192 0.831717 0.022667
C8    C     C_R   0.674077 0.866673 0.720167 -0.229676
C9    C     C_R   0.614303 0.938723 0.620549 0.023188
C10   C     C_R   0.619722 0.073163 0.632084 -0.062296
C11   C     C_R   0.581562 0.142839 0.513514 -0.243069
C12   C     C_R   0.259027 0.508565 0.497528 1.034635
C13   C     C_R   0.597181 0.087944 0.391153 0.242121
C14   C     C_R   0.576574 0.956819 0.382112 0.261559
C15   C     C_R   0.563571 0.880952 0.500435 -0.199623
C16   C     C_R   0.389568 0.282945 0.137204 0.322065
C17   C     C_R   0.388361 0.164410 0.078824 0.101568
C18   C     C_R   0.414379 0.160939 0.943841 0.008028
C19   C     C_R   0.413734 0.274965 0.868943 0.282514
C20   C     C_R   0.452336 0.391888 0.930064 0.105241
C21   C     C_R   0.446959 0.393966 0.072962 0.048987
C22   C     C_R   0.556104 0.596681 0.069990 -0.020511
C23   C     C_R   0.518041 0.742570 0.499062 0.882335
C24   C     C_R   0.548657 0.600308 0.928280 -0.021000
C25   C     C_R   0.742490 0.512647 0.500901 0.862646
C26   C     C_3   0.057991 0.395697 0.560967 -0.129390
C27   C     C_3   0.917151 0.392792 0.543573 -0.544583
C28   C     C_3   0.093428 0.638013 0.581537 0.258493
C29   C     C_3   0.065782 0.531066 0.348027 -0.147973
C30   C     C_3   0.123334 0.520474 0.495437 -0.048447
H1    H     H_    0.080720 0.397914 0.670297 0.271803
H2    H     H_    0.684314 0.768488 0.706384 0.173842
H3    H     H_    0.611050 0.670594 0.121205 0.202637
H4    H     H_    0.585020 0.684178 0.876383 0.130969
H5    H     H_    0.877713 0.322312 0.468936 0.203613
H6    H     H_    0.877848 0.358584 0.638900 0.273303
H7    H     H_    0.066408 0.436617 0.304883 0.209579
H8    H     H_    0.877102 0.478205 0.285933 0.201185
N1    N     N_R   0.498810 0.498800 0.142780 -0.094732
N2    N     N_R   0.498760 0.498720 0.857170 -0.072369
O1    O     O_R   0.500000 0.316780 0.614690 -0.576778
O2    O     O_R   0.499990 0.316750 0.385360 -0.571136
O3    O     O_R   0.314800 0.499990 0.614670 -0.550954
O4    O     O_R   0.314790 0.499970 0.385330 -0.563485
O5    O     O_R   0.500010 0.683250 0.614640 -0.626225
O6    O     O_R   0.500000 0.683220 0.385310 -0.571497
O7    O     O_R   0.685210 0.500030 0.614670 -0.574438
O8    O     O_R   0.685200 0.500010 0.385330 -0.601128
Zn1   Zn    Zn3+2 0.500010 0.500020 0.653130 1.047212
Zn2   Zn    Zn3+2 0.499990 0.499980 0.346870 1.054855
Br1   Br    Br    0.878147 0.709011 0.265661 -0.543710
N3    N     N_3   0.142578 0.757504 0.513623 -0.458655
H9    H     H_    0.154649 0.830757 0.581850 0.232459
H10   H     H_    0.080275 0.788746 0.441073 0.233376
N4    N     N_3   0.901967 0.753436 0.567152 -0.450228
H11   H     H_    0.922782 0.811998 0.648841 0.231734
H12   H     H_    0.806572 0.745428 0.546927 0.189123
Br2   Br    Br    0.673880 0.190704 0.247519 -0.502246
Br3   Br    Br    0.697883 0.298835 0.802124 -0.458201
N5    N     N_3   0.814952 0.108574 0.955584 -0.353434
H13   H     H_    0.906971 0.090000 0.946070 0.228256
H14   H     H_    0.784087 0.067079 0.045690 0.261841
N6    N     N_3   0.803915 0.846941 0.927169 -0.409602
H15   H     H_    0.765839 0.853186 0.020235 0.245472
H16   H     H_    0.788487 0.751430 0.905971 0.239126
Br4   Br    Br    0.583621 0.890221 0.208891 -0.575554
N7    N     N_3   0.098408 0.278814 0.509789 -0.384851
H17   H     H_    0.065595 0.203135 0.572882 0.239599
H18   H     H_    0.055574 0.257703 0.416550 0.232479
Br5   Br    Br    0.246455 0.290100 0.236713 -0.502514
N8    N     N_3   0.326998 0.053906 0.144435 -0.384323
H19   H     H_    0.369029 0.973897 0.122200 0.246998
H20   H     H_    0.236487 0.039873 0.102951 0.234212
N9    N     N_3   0.400861 0.040857 0.879062 -0.406927
H21   H     H_    0.475089 0.991421 0.913580 0.217457
H22   H     H_    0.410215 0.054324 0.775936 0.228971
Br6   Br    Br    0.270971 0.263073 0.753990 -0.498166
Br7   Br    Br    0.181603 0.646416 0.762036 -0.423264
Br8   Br    Br    0.899445 0.579358 0.783117 -0.458905
N10   N     N_3   0.138618 0.616950 0.255107 -0.375546
H23   H     H_    0.128918 0.712237 0.265621 0.241133
H24   H     H_    0.108020 0.595473 0.156959 0.262742

loop_
_geom_bond_atom_site_label_1
_geom_bond_atom_site_label_2
_ccdc_geom_bond_type
C8    C9    A    
N4    H11   S    
N6    H16   S    
C16   C21   A    
C23   O5    A    
C11   C13   A    
C19   C20   A    
C1    C11   S    
C3    Br8   S    
C7    C8    A    
O7    Zn1   S    
C26   C27   S    
N9    H22   S    
C26   N7    S    
C3    C28   S    
C12   O3    A    
C5    C6    A    
C20   N2    A    
N2    Zn1   S    
N5    H14   S    
C18   C19   A    
C19   Br6   S    
C3    N4    S    
C16   C17   A    
C2    C27   S    
C28   Br7   S    
C9    C10   A    
C25   O7    A    
C4    C29   S    
C15   C23   S    
C26   H1    S    
C18   N9    S    
C23   O6    A    
C13   C14   A    
O1    Zn1   S    
N3    H10   S    
N9    H21   S    
C5    Br3   S    
C4    Br1   S    
N7    H17   S    
C8    H2    S    
C6    N5    S    
C16   Br5   S    
N10   H24   S    
N8    H20   S    
O3    Zn1   S    
C13   Br2   S    
C27   H5    S    
C24   H4    S    
N5    H13   S    
N7    H18   S    
C2    C4    S    
C29   C30   S    
C21   N1    A    
O5    Zn1   S    
C17   C18   A    
C14   Br4   S    
C25   O8    A    
C7    N6    S    
O2    Zn2   S    
C1    O1    A    
C4    H8    S    
C17   N8    S    
N4    H12   S    
C22   C24   A    
N3    H9    S    
O4    Zn2   S    
C22   H3    S    
C12   C30   S    
N10   H23   S    
C26   C30   S    
C6    C7    A    
C27   H6    S    
O6    Zn2   S    
C28   C30   S    
C2    C3    S    
C9    C15   A    
N8    H19   S    
C12   O4    A    
C28   N3    S    
C29   N10   S    
C22   N1    A    
O8    Zn2   S    
C24   N2    A    
C2    C25   S    
C10   C11   A    
N6    H15   S    
C1    O2    A    
C5    C10   A    
N1    Zn2   S    
C20   C21   A    
C29   H7    S    
C14   C15   A    
