data_mof_unit_35557.cif
_audit_creation_date              2012-10-26T18:49:11-0400
_audit_creation_method            fapswitch 2.2
_symmetry_space_group_name_H-M    P1
_symmetry_Int_Tables_number       1
_space_group_crystal_system       triclinic
_cell_length_a                    10.775799
_cell_length_b                    10.864686
_cell_length_c                    9.716007
_cell_angle_alpha                 91.205543
_cell_angle_beta                  90.284411
_cell_angle_gamma                 90.844626
_cell_volume                      1137.11687672

loop_
_atom_site_label
_atom_site_type_symbol
_atom_type_description
_atom_site_fract_x
_atom_site_fract_y
_atom_site_fract_z
_atom_type_partial_charge
C1    C     C_R   0.492852 0.265317 0.498336 0.527577
C2    C     C_2   0.401358 0.480287 0.076455 0.012887
C3    C     C_R   0.260207 0.501557 0.499416 0.602779
C4    C     C_R   0.505003 0.734733 0.501815 0.557111
C5    C     C_R   0.739976 0.507726 0.499702 0.554783
C6    C     C_3   0.068286 0.389065 0.561145 -0.335684
C7    C     C_3   0.926460 0.399318 0.574370 -0.268736
C8    C     C_3   0.076339 0.618809 0.587314 0.024828
C9    C     C_3   0.072273 0.512261 0.345388 0.026758
C10   C     C_3   0.122643 0.507710 0.497179 0.058304
C11   C     C_3   0.289800 0.134118 0.621896 0.008526
C12   C     C_3   0.878457 0.513443 0.496688 0.047127
C13   C     C_3   0.330023 0.108123 0.769880 -0.266464
C14   C     C_3   0.228691 0.142119 0.872606 -0.486329
C15   C     C_3   0.808557 0.767836 0.698235 0.021565
C16   C     C_3   0.891617 0.882347 0.721539 -0.283574
C17   C     C_3   0.814359 0.998274 0.738649 -0.487080
C18   C     C_3   0.933713 0.634588 0.566361 0.158853
C19   C     C_3   0.928262 0.504224 0.343980 -0.035992
C20   C     C_2   0.553250 0.934366 0.403432 -0.133623
C21   C     C_2   0.518438 0.867046 0.510316 -0.085706
C22   C     C_2   0.561693 0.068608 0.419658 -0.122104
C23   C     C_2   0.476258 0.131805 0.491309 0.265529
C24   C     C_2   0.408087 0.460179 0.922955 0.061927
Cu1   Cu    Cu3+1 0.500030 0.500020 0.638630 0.929204
Cu2   Cu    Cu3+1 0.499970 0.499980 0.361370 0.938553
H1    H     H_    0.109004 0.373922 0.664815 0.114311
H2    H     H_    0.881680 0.313246 0.532640 0.102361
H3    H     H_    0.901724 0.407044 0.685291 0.171000
H4    H     H_    0.091956 0.593720 0.696917 0.170301
H5    H     H_    0.105710 0.428234 0.289707 0.113633
H6    H     H_    0.902126 0.410408 0.303215 0.123519
H7    H     H_    0.824196 0.662376 0.299791 0.233762
H8    H     H_    0.818087 0.550276 0.176581 0.248160
H9    H     H_    0.154576 0.782918 0.657423 0.224973
H10   H     H_    0.107034 0.789434 0.494076 0.218629
H11   H     H_    0.193927 0.097111 0.606427 0.146945
H12   H     H_    0.919602 0.710939 0.493664 0.089083
H13   H     H_    0.283471 0.234183 0.603812 0.131376
H14   H     H_    0.349941 0.008552 0.779413 0.171000
H15   H     H_    0.416114 0.161304 0.795618 0.170620
H16   H     H_    0.200012 0.238851 0.859772 0.129105
H17   H     H_    0.263919 0.131271 0.979189 0.154155
H18   H     H_    0.146292 0.080620 0.856969 0.145148
H19   H     H_    0.667054 0.567627 0.875460 0.260238
H20   H     H_    0.553359 0.672601 0.864992 0.250908
H21   H     H_    0.742614 0.762771 0.785101 0.152334
H22   H     H_    0.751462 0.776267 0.603272 0.112921
H23   H     H_    0.580332 0.891353 0.306447 0.134549
H24   H     H_    0.949456 0.870797 0.815291 0.173748
H25   H     H_    0.954011 0.894653 0.632339 0.141429
H26   H     H_    0.757260 0.012435 0.644961 0.145638
H27   H     H_    0.876923 0.079540 0.754574 0.143177
H28   H     H_    0.752401 0.990741 0.829210 0.147127
H29   H     H_    0.074025 0.698739 0.296338 0.255983
H30   H     H_    0.111710 0.602838 0.166115 0.233773
H31   H     H_    0.505189 0.910378 0.610957 0.130975
H32   H     H_    0.639181 0.115829 0.371270 0.078935
H33   H     H_    0.330060 0.413724 0.872928 0.090333
H34   H     H_    0.310930 0.474340 0.124080 0.130873
H35   H     H_    0.090801 0.307325 0.495457 0.100021
H36   H     H_    0.583436 0.480233 0.110012 0.241292
N1    N     N_2   0.498630 0.498660 0.846910 -0.165578
N2    N     N_2   0.498590 0.498630 0.153040 -0.332033
N3    N     N_3   0.876001 0.594966 0.249144 -0.655461
N4    N     N_3   0.149239 0.732336 0.564723 -0.608882
N5    N     N_3   0.576828 0.588073 0.906096 -0.555370
N6    N     N_3   0.122721 0.619091 0.272020 -0.573843
O1    O     O_R   0.500020 0.321960 0.617040 -0.520495
O2    O     O_3   0.878683 0.658398 0.696961 -0.586699
O3    O     O_R   0.499980 0.321920 0.382900 -0.511520
O4    O     O_R   0.317710 0.500000 0.617070 -0.517509
O5    O     O_R   0.317670 0.499960 0.382930 -0.474779
O6    O     O_R   0.500020 0.678080 0.617100 -0.514701
O7    O     O_R   0.499980 0.678040 0.382960 -0.468383
O8    O     O_R   0.682330 0.500040 0.617070 -0.474384
O9    O     O_R   0.682290 0.500000 0.382930 -0.528556
O10   O     O_3   0.365639 0.070877 0.526458 -0.585162

loop_
_geom_bond_atom_site_label_1
_geom_bond_atom_site_label_2
_ccdc_geom_bond_type
C18   O2    S    
C8    N4    S    
C7    H3    S    
C16   H25   S    
C15   H21   S    
C13   H15   S    
H29   N6    S    
H7    N3    S    
C1    O3    A    
C6    H35   S    
C16   H24   S    
C2    H34   S    
C15   C16   S    
Cu2   O5    S    
H8    N3    S    
Cu1   O6    S    
Cu1   N1    S    
C11   H11   S    
Cu2   N2    S    
C13   H14   S    
H36   N2    S    
C9    C19   S    
C16   C17   S    
C4    O7    A    
H19   N5    S    
C9    C10   S    
C4    O6    A    
C14   H16   S    
C13   C14   S    
Cu2   O3    S    
C15   H22   S    
C19   H6    S    
C17   H26   S    
C2    N2    D    
C7    C12   S    
N1    N5    S    
Cu2   O9    S    
C5    C12   S    
H9    N4    S    
Cu1   Cu2   S    
H30   N6    S    
C1    O1    A    
C7    H2    S    
C21   H31   S    
C20   H23   S    
C11   O10   S    
C6    H1    S    
Cu2   O7    S    
Cu1   O4    S    
C11   H13   S    
C20   C22   S    
C1    C23   S    
C24   N1    D    
C2    C24   S    
Cu1   O1    S    
C5    O9    A    
C17   H27   S    
C14   H18   S    
C15   O2    S    
C22   H32   S    
C6    C7    S    
Cu1   O8    S    
C8    H4    S    
C5    O8    A    
C3    O4    A    
C18   H12   S    
C9    N6    S    
H20   N5    S    
C3    C10   S    
C4    C21   S    
C11   C13   S    
C24   H33   S    
C12   C19   S    
C19   N3    S    
H10   N4    S    
C23   O10   S    
C3    O5    A    
C8    C18   S    
C6    C10   S    
C9    H5    S    
C20   C21   D    
C8    C10   S    
C12   C18   S    
C22   C23   D    
C17   H28   S    
C14   H17   S    
