data_mof_unit_20850.cif
_audit_creation_date              2012-12-11T15:41:24-0500
_audit_creation_method            fapswitch 2.2
_symmetry_space_group_name_H-M    P1
_symmetry_Int_Tables_number       1
_space_group_crystal_system       triclinic
_cell_length_a                    14.810176
_cell_length_b                    14.872626
_cell_length_c                    14.902889
_cell_angle_alpha                 108.930474
_cell_angle_beta                  109.646588
_cell_angle_gamma                 109.01647
_cell_volume                      2552.11534027

loop_
_atom_site_label
_atom_site_type_symbol
_atom_type_description
_atom_site_fract_x
_atom_site_fract_y
_atom_site_fract_z
_atom_type_partial_charge
C1    C     C_R   0.194223 0.994269 0.903226 -0.135458
C2    C     C_R   0.873577 0.885775 0.362260 0.665808
C3    C     C_R   0.259343 0.305199 0.861569 -0.379157
C4    C     C_R   0.767386 0.802300 0.320709 -0.370355
C5    C     C_R   0.284726 0.345947 0.970938 0.055055
C6    C     C_R   0.717559 0.707821 0.220731 0.062052
C7    C     C_R   0.201936 0.308264 0.996286 -0.161946
C8    C     C_R   0.776539 0.694608 0.165414 -0.176003
C9    C     C_R   0.094520 0.230314 0.912668 -0.250519
C10   C     C_R   0.883202 0.776049 0.208065 -0.267959
C11   C     C_R   0.069011 0.188476 0.802751 -0.039037
C12   C     C_R   0.747986 0.932872 0.025932 -0.132860
C13   C     C_R   0.932252 0.871984 0.306413 -0.042348
C14   C     C_R   0.406467 0.539292 0.081324 -0.238073
C15   C     C_R   0.592794 0.522301 0.166495 -0.244722
C16   C     C_R   0.803320 0.211063 0.301273 -0.172989
C17   C     C_R   0.254888 0.780547 0.687039 -0.159305
C18   C     C_R   0.508471 0.627117 0.120072 0.043420
C19   C     C_R   0.491489 0.426633 0.093982 0.049369
C20   C     C_R   0.604308 0.621317 0.173150 0.079899
C21   C     C_R   0.395355 0.436581 0.056523 0.076578
C22   C     C_R   0.996151 0.494887 0.392008 -0.159817
C23   C     C_R   0.865103 0.302662 0.299962 0.041081
C24   C     C_R   0.135432 0.476401 0.556951 -0.150816
C25   C     C_R   0.085242 0.586724 0.482448 -0.179652
C26   C     C_R   0.044958 0.382737 0.464433 -0.182347
C27   C     C_R   0.151096 0.578718 0.568704 0.146466
C28   C     C_R   0.972603 0.392860 0.384286 0.146915
C29   C     C_R   0.597507 0.157763 0.620429 -0.173302
C30   C     C_R   0.398283 0.055942 0.428468 -0.165776
C31   C     C_R   0.597140 0.154732 0.526519 -0.167084
C32   C     C_R   0.398561 0.059298 0.522489 -0.172829
C33   C     C_R   0.497755 0.092986 0.427499 0.144060
C34   C     C_R   0.222420 0.676703 0.673795 0.023490
C35   C     C_R   0.498381 0.100218 0.615655 0.141003
C36   C     C_R   0.964387 0.839481 0.942391 -0.172359
C37   C     C_R   0.865443 0.933274 0.837105 -0.169796
C38   C     C_R   0.872302 0.841128 0.944409 -0.172917
C39   C     C_R   0.957914 0.931957 0.835201 -0.164348
C40   C     C_R   0.407009 0.972955 0.222193 -0.125608
C41   C     C_R   0.590798 0.095814 0.790958 -0.142657
C42   C     C_R   0.831045 0.899963 0.903098 0.143604
C43   C     C_R   0.014392 0.895664 0.898020 0.138243
C44   C     C_R   0.588156 0.313583 0.063246 -0.134412
C45   C     C_R   0.498370 0.049361 0.324672 0.043071
C46   C     C_R   0.413614 0.706218 0.015078 -0.138815
C47   C     C_R   0.590995 0.064688 0.313748 -0.128572
C48   C     C_R   0.408481 0.005304 0.700519 -0.141005
C49   C     C_R   0.405170 0.219847 0.974801 -0.143614
C50   C     C_R   0.594603 0.795554 0.100386 -0.144792
C51   C     C_R   0.803278 0.297438 0.204342 0.022517
C52   C     C_R   0.246254 0.685221 0.775750 0.050798
C53   C     C_R   0.195805 0.903858 0.995711 -0.144206
C54   C     C_R   0.748158 0.024923 0.933410 -0.131495
C55   C     C_R   0.130432 0.931564 0.932326 0.054503
C56   C     C_R   0.499305 0.067330 0.698192 0.052253
C57   C     C_R   0.773176 0.946535 0.947992 0.046317
C58   C     C_3   0.178129 0.112532 0.653074 -0.160330
C59   C     C_3   0.890583 0.053184 0.431391 -0.221845
C60   C     C_R   0.493944 0.323547 0.047908 0.071524
C61   C     C_R   0.506857 0.706088 0.079855 0.076620
C62   C     C_R   0.153281 0.222559 0.777684 0.644326
H1    H     H_    0.165791 0.017480 0.842091 0.085480
H2    H     H_    0.666667 0.519028 0.206363 0.131014
H3    H     H_    0.940206 0.506236 0.334029 0.117702
H4    H     H_    0.188730 0.468885 0.621132 0.127025
H5    H     H_    0.093879 0.663682 0.488142 0.113787
H6    H     H_    0.028609 0.303915 0.458353 0.120172
H7    H     H_    0.676055 0.196007 0.692822 0.105578
H8    H     H_    0.319873 0.014353 0.354953 0.104555
H9    H     H_    0.675458 0.191152 0.530388 0.107527
H10   H     H_    0.320237 0.020131 0.517727 0.098887
H11   H     H_    0.001569 0.804112 0.985696 0.103237
H12   H     H_    0.757714 0.879512 0.058378 0.102198
H13   H     H_    0.828722 0.970648 0.796546 0.107168
H14   H     H_    0.831572 0.184366 0.358975 0.083774
H15   H     H_    0.248838 0.804847 0.625456 0.106456
H16   H     H_    0.842458 0.807009 0.989100 0.112409
H17   H     H_    0.990090 0.968736 0.793378 0.128919
H18   H     H_    0.321576 0.940641 0.200243 0.091917
H19   H     H_    0.674591 0.155936 0.823351 0.080483
H20   H     H_    0.672179 0.376859 0.115681 0.092785
H21   H     H_    0.331909 0.661119 0.000042 0.083895
H22   H     H_    0.675937 0.117022 0.376351 0.089518
H23   H     H_    0.322620 0.336556 0.841715 0.157259
H24   H     H_    0.324157 0.982411 0.650027 0.075948
H25   H     H_    0.320009 0.192870 0.949001 0.126756
H26   H     H_    0.679359 0.833122 0.159733 0.112407
H27   H     H_    0.169549 0.843041 0.019471 0.082611
H28   H     H_    0.758460 0.057069 0.880119 0.090705
H29   H     H_    0.144990 0.044364 0.669226 0.121810
H30   H     H_    0.269305 0.159686 0.703207 0.104125
H31   H     H_    0.157629 0.076388 0.566534 0.184727
H32   H     H_    0.800404 0.021705 0.395870 0.111089
H33   H     H_    0.917814 0.069761 0.374555 0.122445
H34   H     H_    0.722681 0.812784 0.364224 0.158717
H35   H     H_    0.932164 0.132116 0.506767 0.188255
H36   H     H_    0.838642 0.405844 0.149908 0.076601
H37   H     H_    0.808529 0.280513 0.065575 0.108366
H38   H     H_    0.244447 0.565380 0.811437 0.102282
H39   H     H_    0.180397 0.629453 0.858430 0.096787
H40   H     H_    0.933477 0.149811 0.672298 0.129431
H41   H     H_    0.905825 0.096129 0.748084 0.082550
H42   H     H_    0.093786 0.923717 0.360334 0.092664
H43   H     H_    0.041024 0.980141 0.290203 0.107069
H44   H     H_    0.220085 0.340999 0.080401 0.135793
H45   H     H_    0.739237 0.621545 0.088553 0.132898
H46   H     H_    0.031042 0.203595 0.933578 0.146216
H47   H     H_    0.927484 0.765120 0.164195 0.140980
H48   H     H_    0.331883 0.543923 0.050321 0.128639
N1    N     N_R   0.293810 0.002730 0.945950 -0.039113
N2    N     N_R   0.443210 0.997250 0.791090 -0.034757
N3    N     N_R   0.443180 0.152110 0.945950 -0.043279
N4    N     N_R   0.556820 0.847890 0.054050 -0.041278
N5    N     N_R   0.706170 0.208950 0.152090 -0.050329
N6    N     N_R   0.293830 0.791050 0.847910 -0.053798
N7    N     N_R   0.293800 0.945910 0.002760 -0.036774
N8    N     N_R   0.706200 0.054090 0.997240 -0.042357
N9    N     N_3   0.850548 0.339972 0.147631 -0.216655
N10   N     N_3   0.192838 0.598223 0.792673 -0.218700
N11   N     N_3   0.958279 0.111859 0.716039 -0.173424
N12   N     N_R   0.706190 0.997270 0.054050 -0.039525
N13   N     N_3   0.040826 0.956432 0.348991 -0.203640
N14   N     N_R   0.706160 0.152130 0.208910 -0.040282
N15   N     N_R   0.293840 0.847870 0.791090 -0.044485
N16   N     N_R   0.443140 0.945920 0.152090 -0.039143
N17   N     N_R   0.556860 0.054080 0.847910 -0.036757
N18   N     N_R   0.556830 0.208940 0.002760 -0.041805
N19   N     N_R   0.443170 0.791060 0.997240 -0.041484
N20   N     N_R   0.556790 0.002750 0.208910 -0.039207
Ni1   Ni    Ni4+2 0.369690 0.999990 0.869700 0.202703
Ni2   Ni    Ni4+2 0.630310 0.000010 0.130300 0.203590
Ni3   Ni    Ni4+2 0.369670 0.869670 0.000000 0.204663
Ni4   Ni    Ni4+2 0.630330 0.130330 0.000000 0.203043
O1    O     O_3   0.129879 0.179589 0.670300 -0.611577
O2    O     O_3   0.920265 0.980647 0.458119 -0.597094

loop_
_geom_bond_atom_site_label_1
_geom_bond_atom_site_label_2
_ccdc_geom_bond_type
C49   N3    A    
C12   H12   S    
C3    H23   S    
C33   C45   S    
C49   H25   S    
C2    C4    A    
C25   H5    S    
C24   C27   A    
C11   C62   A    
N7    Ni3   S    
C46   N19   A    
H36   N9    S    
C41   C56   A    
N3    N18   A    
C9    H46   S    
C15   C19   A    
N14   Ni2   S    
C49   C60   A    
C14   C21   A    
C19   C21   A    
C58   H31   S    
C24   C26   A    
C38   C42   A    
C52   N6    A    
C44   H20   S    
C13   N13   S    
C53   N7    A    
N16   N20   A    
C59   O2    S    
H43   N13   S    
C10   H47   S    
C48   C56   A    
N8    N12   A    
C37   C42   A    
C2    C13   A    
C41   N17   A    
N2    N17   A    
C34   C52   A    
C4    H34   S    
N16   Ni3   S    
H42   N13   S    
C22   C25   A    
C51   N9    S    
C15   H2    S    
C40   H18   S    
H38   N10   S    
C59   H32   S    
H40   N11   S    
C58   H29   S    
N8    Ni4   S    
C24   H4    S    
C45   C47   A    
C37   H13   S    
C40   N16   A    
C22   C28   A    
C11   N11   S    
C59   H33   S    
C1    H1    S    
C42   C57   S    
N12   Ni2   S    
C30   H8    S    
C29   H7    S    
C53   C55   A    
C27   C34   S    
C40   C45   A    
C47   N20   A    
C32   C35   A    
C4    C6    A    
C5    C7    A    
C39   C43   A    
N6    Ni3   S    
C46   C61   A    
C23   C28   S    
C2    O2    S    
C15   C20   A    
C50   N4    A    
C39   H17   S    
C62   O1    S    
N20   Ni2   S    
C22   H3    S    
N18   Ni4   S    
C17   H15   S    
N15   Ni1   S    
C23   C51   A    
C41   H19   S    
C31   C33   A    
C7    H44   S    
C12   N12   A    
C47   H22   S    
C9    C11   A    
N19   Ni3   S    
C12   C57   A    
C52   N10   S    
C43   C55   S    
C48   N2    A    
C16   C23   A    
N6    N15   A    
C54   N8    A    
C53   H27   S    
C19   C60   S    
N4    N19   A    
C48   H24   S    
C17   C34   A    
H41   N11   S    
C8    H45   S    
C3    C62   A    
N1    Ni1   S    
C14   H48   S    
C44   N18   A    
N17   Ni4   S    
N5    N14   A    
N3    Ni1   S    
C30   C33   A    
C35   C56   S    
C16   H14   S    
H39   N10   S    
N4    Ni2   S    
C14   C18   A    
C8    C10   A    
C3    C5    A    
C10   C13   A    
C6    C8    A    
C18   C61   S    
C54   H28   S    
N5    Ni4   S    
C50   H26   S    
C58   O1    S    
C25   C27   A    
C38   H16   S    
C6    C20   S    
C29   C35   A    
C26   C28   A    
N1    N7    A    
C26   H6    S    
C36   C38   A    
C16   N14   A    
C29   C31   A    
C1    N1    A    
C30   C32   A    
C17   N15   A    
C44   C60   A    
C59   H35   S    
C31   H9    S    
C18   C20   A    
N2    Ni1   S    
C1    C55   A    
C51   N5    A    
C36   H11   S    
H37   N9    S    
C46   H21   S    
C7    C9    A    
C5    C21   S    
C37   C39   A    
C50   C61   A    
C36   C43   A    
C58   H30   S    
C32   H10   S    
C54   C57   A    
