data_mof_unit_59829.cif
_audit_creation_date              2012-12-11T15:12:21-0500
_audit_creation_method            fapswitch 2.2
_symmetry_space_group_name_H-M    P1
_symmetry_Int_Tables_number       1
_space_group_crystal_system       triclinic
_cell_length_a                    31.113478
_cell_length_b                    22.53051
_cell_length_c                    18.11256
_cell_angle_alpha                 89.627037
_cell_angle_beta                  124.348139
_cell_angle_gamma                 90.336219
_cell_volume                      10482.6545914

loop_
_atom_site_label
_atom_site_type_symbol
_atom_type_description
_atom_site_fract_x
_atom_site_fract_y
_atom_site_fract_z
_atom_type_partial_charge
Br1   Br    Br    0.884029 0.403696 0.032477 -0.489463
Br2   Br    Br    0.114967 0.595944 0.966654 -0.452375
Br3   Br    Br    0.114454 0.405404 0.959048 -0.455938
Br4   Br    Br    0.817055 0.753913 0.813125 -0.540886
Br5   Br    Br    0.313647 0.729737 0.797819 -0.567013
Br6   Br    Br    0.684839 0.265524 0.198264 -0.567794
Br7   Br    Br    0.622640 0.889857 0.987730 -0.519454
Br8   Br    Br    0.317101 0.267085 0.804148 -0.567709
C1    C     C_R   0.540230 0.598607 0.727343 -0.106695
C2    C     C_R   0.289705 0.698970 0.538501 0.032056
C3    C     C_R   0.313122 0.333391 0.938850 0.055524
C4    C     C_R   0.870295 0.310231 0.131031 0.039332
C5    C     C_R   0.129071 0.689261 0.868288 0.030061
C6    C     C_R   0.129598 0.310927 0.865143 0.033671
C7    C     C_R   0.815200 0.823471 0.947691 0.050734
C8    C     C_R   0.231089 0.652046 0.931810 0.018117
C9    C     C_R   0.768118 0.346759 0.067458 0.019401
C10   C     C_R   0.711645 0.792286 0.880565 0.038333
C11   C     C_R   0.232327 0.347653 0.931046 0.018634
C12   C     C_R   0.793616 0.305109 0.138067 0.032709
C13   C     C_R   0.299518 0.294692 0.545458 0.029226
C14   C     C_R   0.205692 0.693683 0.861105 0.032599
C15   C     C_R   0.207330 0.305511 0.861504 0.032246
C16   C     C_R   0.735737 0.837942 0.944140 0.018683
C17   C     C_R   0.797497 0.376654 0.041207 -0.253161
C18   C     C_R   0.201685 0.622577 0.958327 -0.255986
C19   C     C_R   0.202378 0.377653 0.955364 -0.256281
C20   C     C_R   0.735916 0.772026 0.838936 -0.296287
C21   C     C_R   0.230997 0.712672 0.820351 -0.270534
C22   C     C_R   0.768159 0.285399 0.178258 -0.270284
C23   C     C_R   0.706461 0.867820 0.970054 -0.261439
C24   C     C_R   0.656592 0.752452 0.398821 0.037249
C25   C     C_R   0.233259 0.285825 0.822579 -0.271043
C26   C     C_R   0.848409 0.359889 0.074219 0.311803
C27   C     C_R   0.150808 0.639592 0.925197 0.319611
C28   C     C_R   0.151139 0.360916 0.920914 0.317317
C29   C     C_R   0.786753 0.788280 0.870671 0.296603
C30   C     C_R   0.282663 0.697966 0.856300 0.310803
C31   C     C_R   0.716231 0.299133 0.141522 0.309226
C32   C     C_R   0.658044 0.846580 0.946017 0.308785
C33   C     C_R   0.285140 0.300293 0.859506 0.308520
C34   C     C_R   0.573472 0.609838 0.422656 -0.187651
C35   C     C_R   0.241338 0.852698 0.462220 0.040962
C36   C     C_R   0.428623 0.388367 0.576419 -0.192991
C37   C     C_R   0.421465 0.606634 0.575566 -0.190578
C38   C     C_R   0.573157 0.389658 0.423819 -0.192074
C39   C     C_R   0.094134 0.081588 0.423630 -0.209217
C40   C     C_R   0.903781 0.918805 0.573647 -0.204151
C41   C     C_R   0.906200 0.082205 0.576221 -0.207493
C42   C     C_R   0.093531 0.918305 0.423282 -0.188586
C43   C     C_R   0.382551 0.581055 0.255467 -0.069790
C44   C     C_R   0.617282 0.418500 0.744297 -0.059602
C45   C     C_R   0.612783 0.596435 0.729738 -0.121447
C46   C     C_R   0.757326 0.145951 0.537255 0.043577
C47   C     C_R   0.382601 0.419228 0.255195 -0.064710
C48   C     C_R   0.894341 0.108778 0.293204 -0.109088
C49   C     C_R   0.105374 0.890844 0.705925 -0.102796
C50   C     C_R   0.105628 0.109098 0.705644 -0.103664
C51   C     C_R   0.883808 0.913726 0.259637 -0.091509
C52   C     C_R   0.588464 0.625362 0.764394 0.025669
C53   C     C_R   0.401953 0.403964 0.204877 0.018081
C54   C     C_R   0.401569 0.596145 0.204400 0.020829
C55   C     C_R   0.597985 0.402778 0.794776 0.017156
C56   C     C_R   0.078108 0.142568 0.730494 0.022361
C57   C     C_R   0.758743 0.860675 0.553798 0.041791
C58   C     C_R   0.903972 0.897521 0.210434 0.024533
C59   C     C_R   0.922085 0.142411 0.268333 0.024415
C60   C     C_R   0.077533 0.857132 0.730589 0.022614
C61   C     C_R   0.611638 0.642451 0.494224 -0.097436
C62   C     C_R   0.393139 0.354832 0.503724 -0.113195
C63   C     C_R   0.384428 0.638256 0.501846 -0.106712
C64   C     C_R   0.609592 0.356865 0.497005 -0.112835
C65   C     C_R   0.142863 0.094107 0.496516 -0.092693
C66   C     C_R   0.854379 0.906471 0.498643 -0.094878
C67   C     C_R   0.857762 0.095742 0.503155 -0.095634
C68   C     C_R   0.244325 0.143816 0.463851 0.041378
C69   C     C_R   0.142468 0.906705 0.496161 -0.100857
C70   C     C_R   0.647916 0.258037 0.527802 -0.220494
C71   C     C_R   0.347523 0.736700 0.470517 -0.216101
C72   C     C_R   0.355161 0.255593 0.474628 -0.219911
C73   C     C_R   0.654917 0.741086 0.552006 -0.211955
C74   C     C_R   0.184032 0.813404 0.529978 -0.176974
C75   C     C_R   0.812760 0.187464 0.466970 -0.182863
C76   C     C_R   0.774734 0.848943 0.416945 -0.213538
C77   C     C_R   0.188375 0.185515 0.532204 -0.184713
C78   C     C_R   0.640995 0.314379 0.491179 0.073331
C79   C     C_R   0.711546 0.240065 0.494192 -0.032988
C80   C     C_R   0.352486 0.680298 0.505471 0.064461
C81   C     C_R   0.362089 0.311889 0.510510 0.074763
C82   C     C_R   0.631556 0.698362 0.484212 0.080464
C83   C     C_R   0.178173 0.869869 0.494995 0.045170
C84   C     C_R   0.821004 0.131353 0.504262 0.047714
C85   C     C_R   0.809492 0.881873 0.493204 0.059256
C86   C     C_R   0.179856 0.129539 0.495258 0.045816
C87   C     C_R   0.667499 0.333791 0.454343 -0.142985
C88   C     C_R   0.324751 0.661318 0.540019 -0.143500
C89   C     C_R   0.335533 0.331135 0.546954 -0.143235
C90   C     C_R   0.283605 0.756665 0.502270 -0.032223
C91   C     C_R   0.628844 0.707185 0.405255 -0.155602
C92   C     C_R   0.205403 0.890095 0.460090 -0.158150
C93   C     C_R   0.794614 0.110149 0.540433 -0.163158
C94   C     C_R   0.801090 0.889352 0.560818 -0.135121
C95   C     C_R   0.206457 0.108208 0.459999 -0.157589
C96   C     C_R   0.291051 0.237545 0.507492 -0.032580
C97   C     C_R   0.454554 0.418008 0.256436 -0.125164
C98   C     C_R   0.687171 0.790088 0.473159 -0.040290
C99   C     C_R   0.248009 0.794945 0.498864 -0.038665
C100  C     C_R   0.748396 0.203252 0.498392 -0.039531
C101  C     C_R   0.724707 0.826319 0.476659 -0.041804
C102  C     C_R   0.253655 0.200927 0.502641 -0.040055
C103  C     C_R   0.683394 0.220147 0.529434 0.151776
C104  C     C_R   0.312852 0.775652 0.468700 0.151748
C105  C     C_R   0.319363 0.217687 0.472909 0.153387
C106  C     C_R   0.683883 0.786864 0.547590 0.152440
C107  C     C_R   0.218744 0.775398 0.531981 0.144387
C108  C     C_R   0.454116 0.581842 0.255622 -0.129579
C109  C     C_R   0.776746 0.223938 0.464067 0.145284
C110  C     C_R   0.731512 0.823426 0.406350 0.141604
C111  C     C_R   0.225068 0.221681 0.536055 0.144031
C112  C     C_R   0.731780 0.317831 0.422064 0.567358
C113  C     C_R   0.260265 0.679570 0.570921 0.569048
C114  C     C_R   0.270958 0.315175 0.578655 0.568674
C115  C     C_R   0.658845 0.756093 0.323547 0.525332
C116  C     C_R   0.270568 0.871709 0.429097 0.530774
C117  C     C_R   0.728959 0.125815 0.571562 0.525551
C118  C     C_R   0.751097 0.863015 0.623391 0.567668
C119  C     C_R   0.545529 0.417398 0.743712 -0.125639
C120  C     C_R   0.272872 0.123695 0.430302 0.529877
C121  C     C_R   0.306470 0.832543 0.432699 -0.382184
C122  C     C_R   0.691933 0.163529 0.567380 -0.378534
C123  C     C_R   0.713220 0.825891 0.619376 -0.347071
C124  C     C_R   0.310485 0.161237 0.435142 -0.382880
C125  C     C_R   0.768862 0.280536 0.426991 -0.320121
C126  C     C_R   0.224447 0.718468 0.566982 -0.323948
C127  C     C_R   0.233367 0.278044 0.573174 -0.321546
C128  C     C_R   0.697180 0.791579 0.328505 -0.352777
C129  C     C_R   0.370196 0.614713 0.109127 0.124811
C130  C     C_R   0.033321 0.110071 0.705512 -0.112026
C131  C     C_R   0.629040 0.383360 0.889563 0.125918
C132  C     C_R   0.606389 0.681417 0.815018 0.128878
C133  C     C_R   0.371101 0.385145 0.110031 0.126228
C134  C     C_R   0.907002 0.202261 0.226583 0.128541
C135  C     C_R   0.092549 0.797193 0.772299 0.126164
C136  C     C_R   0.093354 0.202442 0.771697 0.128562
C137  C     C_R   0.873737 0.877128 0.116828 0.127136
C138  C     C_R   0.365171 0.657556 0.981313 -0.119469
C139  C     C_R   0.633658 0.339056 0.016162 -0.120290
C140  C     C_R   0.594453 0.765124 0.885161 -0.127044
C141  C     C_R   0.956003 0.914166 0.259866 -0.110618
C142  C     C_R   0.367234 0.341224 0.984576 -0.120776
C143  C     C_R   0.917893 0.285911 0.153484 -0.121775
C144  C     C_R   0.081511 0.713785 0.845677 -0.117235
C145  C     C_R   0.081436 0.286842 0.841020 -0.121660
C146  C     C_R   0.869312 0.830693 0.992399 -0.113315
C147  C     C_R   0.394347 0.632953 0.066821 -0.174290
C148  C     C_R   0.604627 0.364062 0.930945 -0.175278
C149  C     C_R   0.578413 0.709758 0.843906 -0.173879
C150  C     C_R   0.395877 0.366272 0.069441 -0.176077
C151  C     C_R   0.935768 0.232213 0.200034 -0.176092
C152  C     C_R   0.966830 0.110093 0.293872 -0.114755
C153  C     C_R   0.063729 0.767423 0.798907 -0.169462
C154  C     C_R   0.063707 0.233010 0.795290 -0.174752
C155  C     C_R   0.898403 0.856255 0.076981 -0.178014
C156  C     C_R   0.315776 0.617674 0.061525 -0.217089
C157  C     C_R   0.683461 0.380870 0.937627 -0.211053
C158  C     C_R   0.649458 0.710063 0.825737 -0.218460
C159  C     C_R   0.316627 0.382500 0.061237 -0.216546
C160  C     C_R   0.862020 0.229117 0.210935 -0.215491
C161  C     C_R   0.137563 0.770159 0.788192 -0.213847
C162  C     C_R   0.139251 0.228781 0.789664 -0.216475
C163  C     C_R   0.032870 0.889642 0.705330 -0.110287
C164  C     C_R   0.819475 0.876502 0.067885 -0.208827
C165  C     C_R   0.285451 0.642807 0.975354 0.077308
C166  C     C_R   0.713663 0.355418 0.023521 0.075344
C167  C     C_R   0.665781 0.766015 0.865174 0.073755
C168  C     C_R   0.286817 0.356805 0.975680 0.077212
C169  C     C_R   0.842736 0.282572 0.163137 0.076529
C170  C     C_R   0.156710 0.716662 0.836147 0.078255
C171  C     C_R   0.158025 0.282748 0.835727 0.077871
C172  C     C_R   0.789462 0.848790 0.984421 0.073841
C173  C     C_R   0.628521 0.608367 0.570891 0.528732
C174  C     C_R   0.703325 0.297350 0.455897 0.030578
C175  C     C_R   0.376164 0.388735 0.427769 0.543539
C176  C     C_R   0.371487 0.607290 0.426399 0.542005
C177  C     C_R   0.625463 0.390001 0.572726 0.544071
C178  C     C_R   0.144533 0.080200 0.571935 0.508395
C179  C     C_R   0.854777 0.922006 0.425310 0.514076
C180  C     C_R   0.855805 0.081203 0.427839 0.508363
C181  C     C_R   0.144473 0.920404 0.571713 0.509648
C182  C     C_R   0.311147 0.665502 0.936602 0.054239
C183  C     C_R   0.687790 0.331794 0.061453 0.055109
C184  C     C_R   0.638815 0.793188 0.898233 0.042368
H1    H     H_    0.514160 0.605418 0.747675 0.093541
H2    H     H_    0.297543 0.604742 0.094795 0.121758
H3    H     H_    0.297952 0.396126 0.093242 0.121366
H4    H     H_    0.671494 0.687311 0.805847 0.135141
H5    H     H_    0.159930 0.793336 0.768919 0.118859
H6    H     H_    0.839756 0.205813 0.230247 0.119427
H7    H     H_    0.801083 0.893011 0.098895 0.121539
H8    H     H_    0.162585 0.204740 0.773743 0.120462
H9    H     H_    0.562775 0.365736 0.896366 0.127161
H10   H     H_    0.436147 0.630836 0.100903 0.128760
H11   H     H_    0.437754 0.368163 0.104452 0.126241
H12   H     H_    0.479576 0.421380 0.232899 0.097846
H13   H     H_    0.544243 0.689377 0.835041 0.127404
H14   H     H_    0.028254 0.786220 0.786285 0.128840
H15   H     H_    0.971266 0.213548 0.212577 0.124315
H16   H     H_    0.940328 0.857160 0.112292 0.125399
H17   H     H_    0.027543 0.214767 0.780991 0.124206
H18   H     H_    0.385878 0.672935 0.952915 0.181630
H19   H     H_    0.612795 0.322937 0.043906 0.181733
H20   H     H_    0.572472 0.784882 0.908234 0.181142
H21   H     H_    0.388407 0.325369 0.957594 0.181589
H22   H     H_    0.940467 0.306459 0.131730 0.180335
H23   H     H_    0.478676 0.578169 0.231255 0.099604
H24   H     H_    0.058882 0.693429 0.867458 0.181929
H25   H     H_    0.058158 0.307811 0.860580 0.179519
H26   H     H_    0.890091 0.813198 0.965586 0.181628
H27   H     H_    0.781788 0.414012 0.995778 0.174753
H28   H     H_    0.217327 0.585263 0.003875 0.172923
H29   H     H_    0.217854 0.415199 0.000053 0.172351
H30   H     H_    0.716087 0.743175 0.781497 0.165900
H31   H     H_    0.211081 0.738643 0.759497 0.160501
H32   H     H_    0.788064 0.259410 0.239087 0.160164
H33   H     H_    0.720566 0.908049 0.009049 0.177768
H34   H     H_    0.520768 0.420529 0.767743 0.099964
H35   H     H_    0.213668 0.259394 0.762468 0.160704
H36   H     H_    0.551412 0.621878 0.352919 0.133880
H37   H     H_    0.446165 0.377529 0.645964 0.146066
H38   H     H_    0.434190 0.614281 0.643666 0.138743
H39   H     H_    0.555814 0.379309 0.354302 0.144987
H40   H     H_    0.081098 0.082840 0.354233 0.137013
H41   H     H_    0.915447 0.918983 0.642316 0.134881
H42   H     H_    0.919203 0.083440 0.645581 0.138250
H43   H     H_    0.079569 0.915614 0.353524 0.136496
H44   H     H_    0.342224 0.575668 0.231174 0.160814
H45   H     H_    0.003022 0.123044 0.713893 0.101738
H46   H     H_    0.657657 0.423648 0.768713 0.162473
H47   H     H_    0.653262 0.598735 0.754554 0.180971
H48   H     H_    0.342184 0.424535 0.230330 0.158590
H49   H     H_    0.857958 0.119302 0.283738 0.160571
H50   H     H_    0.141563 0.880053 0.714701 0.156582
H51   H     H_    0.141684 0.120138 0.713816 0.156156
H52   H     H_    0.843659 0.913524 0.238020 0.160154
H53   H     H_    0.626727 0.244691 0.556488 0.134533
H54   H     H_    0.369918 0.749429 0.443809 0.135371
H55   H     H_    0.376380 0.242420 0.446194 0.133968
H56   H     H_    0.981431 0.915788 0.237006 0.095924
H57   H     H_    0.653714 0.736237 0.610392 0.127618
H58   H     H_    0.161313 0.799338 0.555620 0.121858
H59   H     H_    0.834638 0.202489 0.440178 0.122714
H60   H     H_    0.782274 0.841009 0.366245 0.155517
H61   H     H_    0.166286 0.200602 0.558265 0.122624
H62   H     H_    0.661363 0.378545 0.427711 0.184153
H63   H     H_    0.329725 0.616363 0.565518 0.185828
H64   H     H_    0.341634 0.375905 0.572930 0.185187
H65   H     H_    0.609881 0.674946 0.352010 0.174582
H66   H     H_    0.198921 0.934768 0.433154 0.182910
H67   H     H_    0.997241 0.123209 0.285526 0.101838
H68   H     H_    0.802706 0.065861 0.569024 0.181893
H69   H     H_    0.828253 0.915482 0.619227 0.172023
H70   H     H_    0.198103 0.063994 0.431676 0.181087
H71   H     H_    0.329215 0.846299 0.407162 0.145955
H72   H     H_    0.670039 0.148875 0.594130 0.146646
H73   H     H_    0.708726 0.825126 0.674431 0.150168
H74   H     H_    0.332486 0.146638 0.408868 0.145923
H75   H     H_    0.791238 0.295461 0.401241 0.143787
H76   H     H_    0.201390 0.704546 0.591879 0.142254
H77   H     H_    0.210834 0.292957 0.598321 0.144039
H78   H     H_    0.002187 0.876526 0.713042 0.106215
H79   H     H_    0.701922 0.791936 0.273591 0.155668
H80   H     H_    0.695999 0.644791 0.649009 0.334387
H81   H     H_    0.320605 0.337950 0.340316 0.321059
H82   H     H_    0.311614 0.652638 0.337600 0.323387
H83   H     H_    0.682554 0.341007 0.660629 0.321907
H84   H     H_    0.218858 0.085933 0.657659 0.334165
H85   H     H_    0.782433 0.944219 0.344675 0.333728
H86   H     H_    0.781612 0.088407 0.342063 0.332310
H87   H     H_    0.218762 0.914576 0.657074 0.334020
H88   H     H_    0.745853 0.380747 0.363959 0.332158
H89   H     H_    0.701823 0.394576 0.904910 0.122284
H90   H     H_    0.243702 0.617175 0.626241 0.332030
H91   H     H_    0.257009 0.378000 0.635946 0.333954
H92   H     H_    0.632949 0.729906 0.202828 0.329935
H93   H     H_    0.287038 0.934095 0.373812 0.324533
H94   H     H_    0.714862 0.062794 0.629308 0.326240
H95   H     H_    0.772117 0.895240 0.738673 0.327376
H96   H     H_    0.286680 0.060914 0.373000 0.325641
N1    N     N_R   0.532970 0.559900 0.665210 -0.045132
N2    N     N_R   0.402100 0.440070 0.454470 -0.074000
N3    N     N_R   0.402100 0.559930 0.454470 -0.075163
N4    N     N_R   0.597900 0.440070 0.545530 -0.072939
N5    N     N_R   0.097900 0.059930 0.545530 -0.077680
N6    N     N_R   0.902100 0.940070 0.454470 -0.071643
N7    N     N_R   0.902100 0.059930 0.454470 -0.075187
N8    N     N_R   0.097900 0.940070 0.545530 -0.078439
N9    N     N_R   0.567170 0.559950 0.454460 -0.068065
N10   N     N_R   0.432830 0.440050 0.545540 -0.070698
N11   N     N_R   0.432830 0.559950 0.545540 -0.069978
N12   N     N_R   0.467030 0.440100 0.334790 -0.047129
N13   N     N_R   0.567170 0.440050 0.454460 -0.070550
N14   N     N_R   0.067170 0.059950 0.454460 -0.072318
N15   N     N_R   0.932830 0.940050 0.545540 -0.070966
N16   N     N_R   0.932830 0.059950 0.545540 -0.072315
N17   N     N_R   0.067170 0.940050 0.454460 -0.072428
N18   N     N_R   0.421470 0.559970 0.334770 -0.051618
N19   N     N_R   0.578530 0.440030 0.665230 -0.052742
N20   N     N_R   0.578530 0.559970 0.665230 -0.050315
N21   N     N_R   0.421470 0.440030 0.334770 -0.052950
N22   N     N_R   0.921470 0.059970 0.334770 -0.037724
N23   N     N_R   0.467030 0.559900 0.334790 -0.047477
N24   N     N_R   0.078530 0.940030 0.665230 -0.037608
N25   N     N_R   0.078530 0.059970 0.665230 -0.037588
N26   N     N_R   0.921470 0.940030 0.334770 -0.043467
N27   N     N_R   0.532970 0.440100 0.665210 -0.047790
N28   N     N_R   0.032970 0.059900 0.665210 -0.047130
N29   N     N_R   0.967030 0.940100 0.334790 -0.048400
N30   N     N_R   0.967030 0.059900 0.334790 -0.046906
N31   N     N_R   0.032970 0.940100 0.665210 -0.047572
N32   N     N_R   0.597900 0.559930 0.545530 -0.070534
Ni1   Ni    Ni4+2 0.483030 0.500000 0.604430 0.203127
Ni2   Ni    Ni4+2 0.516970 0.500000 0.395570 0.200438
Ni3   Ni    Ni4+2 0.983030 0.000000 0.604430 0.203189
Ni4   Ni    Ni4+2 0.016970 0.000000 0.395570 0.196424
Ni5   Ni    Ni4+2 0.587400 0.500000 0.604430 0.275773
Ni6   Ni    Ni4+2 0.412600 0.500000 0.395570 0.266594
Ni7   Ni    Ni4+2 0.087400 0.000000 0.604430 0.303239
Ni8   Ni    Ni4+2 0.912600 0.000000 0.395570 0.291720
O1    O     O_3   0.674919 0.613624 0.653091 -0.780253
O2    O     O_3   0.267163 0.623004 0.606028 -0.741829
O3    O     O_3   0.280243 0.371203 0.615621 -0.741889
O4    O     O_3   0.625803 0.721949 0.248870 -0.759620
O5    O     O_3   0.263428 0.928163 0.393683 -0.730334
O6    O     O_3   0.738062 0.069700 0.608804 -0.747867
O7    O     O_3   0.782451 0.899286 0.696130 -0.737266
O8    O     O_3   0.263281 0.067827 0.392942 -0.730013
O9    O     O_3   0.333454 0.378615 0.342438 -0.774947
O10   O     O_3   0.329047 0.615341 0.340089 -0.777029
O11   O     O_3   0.668213 0.380595 0.658324 -0.774288
O12   O     O_3   0.188241 0.073273 0.657465 -0.742668
O13   O     O_3   0.812692 0.937357 0.341306 -0.756180
O14   O     O_3   0.811961 0.074915 0.342355 -0.749019
O15   O     O_3   0.188284 0.926989 0.657151 -0.742081
O16   O     O_3   0.722824 0.373979 0.384856 -0.746658

loop_
_geom_bond_atom_site_label_1
_geom_bond_atom_site_label_2
_ccdc_geom_bond_type
C8    C165  A    
C14   C21   A    
C38   H39   S    
C109  C125  A    
C79   C174  A    
C65   C178  A    
C56   C130  A    
C140  H20   S    
C51   C58   A    
C1    H1    S    
C70   H53   S    
C60   C135  S    
C112  C125  A    
C11   C168  A    
C7    C146  A    
N20   Ni5   S    
C30   C182  A    
N10   Ni1   S    
N7    Ni8   S    
C36   C62   A    
C104  C121  A    
C147  H10   S    
C53   C97   A    
N2    Ni6   S    
C15   C171  A    
C17   C26   A    
C68   C95   A    
C163  N31   A    
H87   O15   S    
C66   C85   S    
C55   C131  S    
N21   Ni6   S    
N15   Ni3   S    
C101  C110  A    
C88   H63   S    
C46   C117  A    
N31   Ni3   S    
C71   H54   S    
C40   C66   A    
C149  H13   S    
C58   C141  A    
C97   H12   S    
C181  O15   S    
C74   C83   A    
C11   C15   A    
C177  O11   S    
C49   H50   S    
C112  O16   S    
C31   C183  A    
C103  C122  A    
C32   C184  A    
N11   Ni1   S    
N24   N31   A    
C156  C165  A    
C50   N25   A    
C151  H15   S    
H88   O16   S    
N6    N15   A    
C179  N6    A    
C89   H64   S    
C73   C82   A    
C34   N9    A    
C36   N10   A    
C113  C126  A    
H92   O4    S    
C42   C69   A    
C42   N17   A    
C110  C128  A    
C66   C179  A    
C69   C83   S    
C159  H3    S    
C41   N16   A    
C25   H35   S    
C44   C55   A    
H95   O7    S    
C12   C169  A    
C123  H73   S    
C107  C126  A    
C34   H36   S    
N22   N30   A    
C118  O7    S    
C9    C17   A    
C75   C109  A    
C96   C102  A    
C115  O4    S    
H81   O9    S    
C76   C85   A    
C54   C129  S    
N18   Ni6   S    
C64   C177  A    
C78   C87   A    
C134  C160  A    
C63   C80   S    
H94   O6    S    
C18   C27   A    
N22   Ni8   S    
C20   H30   S    
C112  C174  A    
C135  C153  A    
C160  C169  A    
C61   C173  A    
C119  N27   A    
N8    Ni7   S    
C37   C63   A    
C46   C93   A    
N12   Ni2   S    
C67   C180  A    
C131  C148  A    
N1    Ni1   S    
C12   C22   A    
C144  H24   S    
C3    C168  A    
C164  H7    S    
C10   C16   A    
C158  H4    S    
C74   C107  A    
C5    C27   A    
C6    C28   A    
C60   C163  A    
C156  H2    S    
C159  C168  A    
C5    C170  A    
C155  H16   S    
C127  H77   S    
C129  C147  A    
C131  C157  A    
C178  N5    A    
C7    C29   A    
N3    Ni6   S    
C139  C183  A    
C73   C106  A    
C16   C172  A    
C119  H34   S    
C41   C67   A    
C70   C103  A    
C145  H25   S    
C144  C153  A    
C44   H46   S    
C137  C164  A    
C150  H11   S    
C24   C115  A    
C43   C54   A    
C148  H9    S    
C45   C52   A    
Br1   C26   S    
C125  H75   S    
C50   C56   A    
C19   H29   S    
C90   C104  A    
H80   O1    S    
C117  O6    S    
C10   C20   A    
Br8   C33   S    
C167  C184  A    
C39   H40   S    
C137  C155  A    
C157  C166  A    
C152  H67   S    
C51   H52   S    
C143  C151  A    
C36   H37   S    
C41   H42   S    
H96   O8    S    
C141  N29   A    
N4    N13   A    
N25   Ni7   S    
C48   N22   A    
C52   C132  S    
C53   C133  S    
C141  H56   S    
N5    Ni7   S    
C83   C92   A    
C72   H55   S    
C62   C81   S    
N19   N27   A    
C37   H38   S    
C49   C60   A    
C82   C91   A    
N4    Ni5   S    
C161  H5    S    
C120  O8    S    
C38   C64   A    
C100  C109  A    
C74   H58   S    
C102  C111  A    
C179  O13   S    
C166  C183  A    
N18   N23   A    
C46   C100  A    
C162  C171  A    
C69   C181  A    
C57   C118  A    
C38   N13   A    
N29   Ni4   S    
N26   Ni8   S    
C20   C29   A    
C47   C53   A    
H90   O2    S    
C22   C31   A    
C140  C149  A    
N16   Ni3   S    
C96   C105  A    
C108  N23   A    
C72   C105  A    
C76   C110  A    
N13   Ni2   S    
C163  H78   S    
C122  H72   S    
C98   C101  A    
Br2   C27   S    
C140  C184  A    
C80   C88   A    
C176  O10   S    
C105  C124  A    
C106  C123  A    
N2    N10   A    
C134  C151  A    
C40   N15   A    
C45   H47   S    
C158  C167  A    
C160  H6    S    
C71   C104  A    
C139  H19   S    
C79   C103  A    
C91   H65   S    
N8    N17   A    
C136  C162  A    
C165  C182  A    
C9    C12   A    
C23   C32   A    
C130  H45   S    
C142  H21   S    
C72   C81   A    
C13   C96   A    
N12   N21   A    
C138  C147  A    
C97   N12   A    
C47   H48   S    
C75   H59   S    
C164  C172  A    
N26   N29   A    
Br5   C30   S    
C126  H76   S    
C65   C86   S    
C108  H23   S    
H91   O3    S    
C71   C80   A    
C113  O2    S    
N6    Ni8   S    
C132  C158  A    
C92   H66   S    
C133  C159  A    
C152  N30   A    
C157  H89   S    
C35   C92   A    
C39   C65   A    
C51   N26   A    
C111  C127  A    
C90   C99   A    
C43   H44   S    
C45   N20   A    
N14   Ni4   S    
C43   N18   A    
C94   H69   S    
C35   C99   A    
N32   Ni5   S    
C139  C148  A    
C87   H62   S    
C57   C101  A    
C84   C93   A    
C86   C95   A    
H84   O12   S    
C68   C120  A    
C153  H14   S    
C17   H27   S    
C39   N14   A    
C4    C26   A    
C37   N11   A    
C9    C166  A    
C21   H31   S    
C8    C14   A    
C142  C150  A    
C63   C176  A    
C5    C144  A    
C85   C94   A    
C64   C78   S    
N9    Ni2   S    
C154  H17   S    
N30   Ni4   S    
C19   C28   A    
C145  C154  A    
C1    C52   A    
C25   C33   A    
C47   N21   A    
C16   C23   A    
H82   O10   S    
C95   H70   S    
C116  C121  A    
C128  H79   S    
C50   H51   S    
C114  C127  A    
C124  H74   S    
C133  C150  A    
H93   O5    S    
Br4   C29   S    
C68   C102  A    
Br6   C31   S    
N19   Ni5   S    
C121  H71   S    
C59   C134  S    
C173  O1    S    
C48   H49   S    
N17   Ni4   S    
C76   H60   S    
C14   C170  A    
C2    C113  A    
C162  H8    S    
N1    N20   A    
C75   C84   A    
C98   C106  A    
Br3   C28   S    
C175  O9    S    
C93   H68   S    
C13   C89   A    
C77   C111  A    
C2    C90   A    
C58   C137  S    
C3    C142  A    
C117  C122  A    
C79   C100  A    
N28   Ni3   S    
C15   C25   A    
C143  H22   S    
Br7   C32   S    
C59   C152  A    
C146  H26   S    
C11   C19   A    
C6    C171  A    
C181  N8    A    
C10   C167  A    
C70   C78   A    
C4    C169  A    
C24   C98   A    
C7    C172  A    
C4    C143  A    
C177  N4    A    
C57   C94   A    
H83   O11   S    
C120  C124  A    
C138  H18   S    
C173  N32   A    
H85   O13   S    
C44   N19   A    
C18   H28   S    
C146  C155  A    
C135  C161  A    
N25   N28   A    
C22   H32   S    
C56   C136  S    
C34   C61   A    
C81   C89   A    
C21   C30   A    
C54   C108  A    
C132  C149  A    
C77   C86   A    
C176  N3    A    
C2    C88   A    
N24   Ni7   S    
C99   C107  A    
C67   C84   S    
C23   H33   S    
C6    C145  A    
C61   C82   S    
C161  C170  A    
N23   Ni2   S    
N3    N11   A    
C13   C114  A    
C180  O14   S    
C136  C154  A    
C49   N24   A    
C40   H41   S    
C175  N2    A    
C73   H57   S    
C8    C18   A    
C114  O3    S    
C129  C156  A    
C130  N28   A    
C87   C174  A    
C178  O12   S    
C116  O5    S    
C48   C59   A    
C77   H61   S    
C24   C91   A    
C115  C128  A    
N27   Ni1   S    
C1    N1    A    
C118  C123  A    
C3    C33   A    
H86   O14   S    
C42   H43   S    
C180  N7    A    
C62   C175  A    
C138  C182  A    
N9    N32   A    
N5    N14   A    
C35   C116  A    
C55   C119  A    
N7    N16   A    
