data_mof_unit_35547.cif
_audit_creation_date              2012-12-10T17:35:45-0500
_audit_creation_method            fapswitch 2.2
_symmetry_space_group_name_H-M    P1
_symmetry_Int_Tables_number       1
_space_group_crystal_system       triclinic
_cell_length_a                    10.489688
_cell_length_b                    12.08602
_cell_length_c                    12.816394
_cell_angle_alpha                 93.021662
_cell_angle_beta                  91.382295
_cell_angle_gamma                 85.480969
_cell_volume                      1617.21540799

loop_
_atom_site_label
_atom_site_type_symbol
_atom_type_description
_atom_site_fract_x
_atom_site_fract_y
_atom_site_fract_z
_atom_type_partial_charge
C1    C     C_R   0.497843 0.521870 0.700133 0.872507
C2    C     C_R   0.502231 0.478137 0.299862 0.874116
C3    C     C_R   0.449917 0.454855 0.867845 -0.284433
C4    C     C_R   0.550384 0.545146 0.132141 -0.286137
C5    C     C_R   0.467585 0.456727 0.974650 0.190793
C6    C     C_R   0.532740 0.543289 0.025321 0.191704
C7    C     C_R   0.379806 0.959484 0.403264 -0.337967
C8    C     C_R   0.621560 0.040349 0.595705 -0.330204
C9    C     C_R   0.391293 0.843018 0.409684 0.262495
C10   C     C_R   0.609356 0.156901 0.589794 0.257101
C11   C     C_R   0.552728 0.856798 0.541784 -0.063145
C12   C     C_R   0.447673 0.143136 0.457928 -0.073440
C13   C     C_R   0.544358 0.974006 0.534475 0.061109
C14   C     C_R   0.456465 0.025888 0.464937 0.055059
C15   C     C_R   0.742388 0.500028 0.503093 0.906772
C16   C     C_R   0.257520 0.500099 0.497821 0.909360
C17   C     C_3   0.969333 0.412995 0.555875 -0.307664
C18   C     C_3   0.030266 0.587496 0.446462 -0.307443
C19   C     C_3   0.046950 0.509361 0.600551 -0.340352
C20   C     C_3   0.952946 0.491003 0.401693 -0.339163
C21   C     C_3   0.122539 0.500806 0.498717 -0.100757
C22   C     C_3   0.877279 0.499531 0.503340 -0.098112
C23   C     C_3   0.046179 0.406126 0.454941 0.603071
C24   C     C_3   0.953427 0.594156 0.547382 0.601737
C25   C     C_R   0.500005 0.464268 0.188619 -0.046006
C26   C     C_R   0.500206 0.535758 0.811361 -0.042733
C27   C     C_R   0.577697 0.627292 0.968583 -0.232378
C28   C     C_R   0.422664 0.372703 0.031365 -0.232039
C29   C     C_R   0.561438 0.623474 0.861027 -0.213917
C30   C     C_R   0.438866 0.376529 0.138918 -0.210320
H1    H     H_    0.091012 0.517413 0.679903 0.148349
H2    H     H_    0.910281 0.481521 0.321897 0.150040
H3    H     H_    0.938889 0.343428 0.599979 0.148775
H4    H     H_    0.059003 0.658908 0.403887 0.153953
H5    H     H_    0.600443 0.610974 0.171823 0.147617
H6    H     H_    0.399931 0.388969 0.828175 0.146675
H7    H     H_    0.399751 0.313811 0.183430 0.161473
H8    H     H_    0.600600 0.686158 0.816493 0.157953
H9    H     H_    0.626807 0.694285 0.007009 0.138930
H10   H     H_    0.373616 0.305685 0.992919 0.139351
H11   H     H_    0.380206 0.182742 0.403591 0.157942
H12   H     H_    0.620112 0.817176 0.596178 0.157037
H13   H     H_    0.311152 0.998169 0.349131 0.143165
H14   H     H_    0.691276 0.001537 0.648977 0.146791
N1    N     N_R   0.523490 0.207800 0.519350 -0.115932
N2    N     N_R   0.476510 0.792200 0.480650 -0.117423
O1    O     O_R   0.506270 0.421700 0.658830 -0.636255
O2    O     O_R   0.493730 0.578300 0.341170 -0.635271
O3    O     O_R   0.491200 0.609310 0.646410 -0.622556
O4    O     O_R   0.508800 0.390690 0.353590 -0.621740
O5    O     O_R   0.693580 0.406210 0.506230 -0.664704
O6    O     O_R   0.306420 0.593790 0.493770 -0.665909
O7    O     O_R   0.678510 0.593830 0.493810 -0.579755
O8    O     O_R   0.321490 0.406170 0.506190 -0.581353
Zn1   Zn    Zn3+2 0.510060 0.374730 0.508290 0.936090
Zn2   Zn    Zn3+2 0.489940 0.625270 0.491710 0.937050
O9    O     O_3   0.105158 0.308712 0.405705 -0.650747
C31   C     C_3   0.013354 0.231904 0.378200 0.064599
H15   H     H_    0.031837 0.199633 0.296755 0.156660
H16   H     H_    0.912218 0.268554 0.378837 0.140107
C32   C     C_3   0.028773 0.134447 0.450219 -0.346550
H17   H     H_    0.127320 0.094068 0.444271 0.226551
H18   H     H_    0.014183 0.165063 0.532544 0.212654
C33   C     C_3   0.932942 0.048647 0.421316 -0.967070
H19   H     H_    0.833528 0.086706 0.429463 0.274884
H20   H     H_    0.947158 0.978833 0.474256 0.258296
H21   H     H_    0.947006 0.015191 0.339662 0.262858
O10   O     O_3   0.892901 0.691955 0.594659 -0.649810
C34   C     C_3   0.984634 0.762139 0.637431 0.059151
H22   H     H_    0.957003 0.847565 0.612831 0.155499
H23   H     H_    0.084040 0.740251 0.609689 0.141849
C35   C     C_3   0.982573 0.763288 0.756794 -0.346158
H24   H     H_    0.885454 0.793483 0.783835 0.220567
H25   H     H_    0.004396 0.677688 0.783171 0.218292
C36   C     C_3   0.080184 0.838381 0.806280 -0.962326
H26   H     H_    0.178341 0.808157 0.781997 0.270620
H27   H     H_    0.075984 0.837735 0.892739 0.264591
H28   H     H_    0.058946 0.925081 0.782479 0.261498
C37   C     C_3   0.695675 0.219701 0.663934 -0.400699
C38   C     C_3   0.659981 0.209746 0.778452 -0.363474
C39   C     C_3   0.740615 0.280644 0.852144 -0.866578
H29   H     H_    0.843501 0.252028 0.845653 0.253015
H30   H     H_    0.726950 0.369427 0.833079 0.268989
H31   H     H_    0.711224 0.273195 0.933982 0.257167
H32   H     H_    0.557317 0.236920 0.788798 0.235769
H33   H     H_    0.675328 0.121983 0.800555 0.213706
H34   H     H_    0.796267 0.185583 0.652475 0.168617
H35   H     H_    0.693791 0.307502 0.649165 0.263222
C40   C     C_3   0.304903 0.780254 0.335500 -0.403308
C41   C     C_3   0.340879 0.789818 0.220954 -0.361088
C42   C     C_3   0.259878 0.719286 0.147203 -0.863968
H36   H     H_    0.272932 0.630500 0.166332 0.269945
H37   H     H_    0.157120 0.748409 0.153543 0.253357
H38   H     H_    0.289457 0.726529 0.065375 0.258046
H39   H     H_    0.326144 0.877551 0.198685 0.213697
H40   H     H_    0.443432 0.762207 0.210751 0.235962
H41   H     H_    0.306258 0.692523 0.350557 0.262733
H42   H     H_    0.204394 0.814747 0.346714 0.168969

loop_
_geom_bond_atom_site_label_1
_geom_bond_atom_site_label_2
_ccdc_geom_bond_type
C16   C21   S    
C27   C29   A    
C18   C21   S    
C19   H1    S    
C37   H34   S    
C4    C25   A    
O9    C31   S    
C41   H39   S    
C38   H32   S    
C18   C24   S    
C15   O7    A    
C19   C21   S    
C5    C6    A    
C28   H10   S    
C31   H16   S    
C11   H12   S    
C23   O9    S    
C34   H23   S    
C38   H33   S    
C2    O4    A    
C15   C22   S    
C27   H9    S    
O10   C34   S    
C29   H8    S    
C17   C22   S    
C15   O5    A    
C18   C20   S    
C35   H24   S    
C31   C32   S    
C4    H5    S    
C9    N2    A    
C13   C14   A    
C32   H17   S    
C17   H3    S    
C35   C36   S    
C37   H35   S    
C39   H30   S    
C39   H29   S    
C7    C14   A    
C33   H21   S    
C8    H14   S    
C35   H25   S    
C9    C40   S    
C42   H36   S    
C38   C39   S    
C2    O2    A    
C31   H15   S    
C30   H7    S    
C40   H41   S    
C33   H20   S    
C34   C35   S    
C36   H26   S    
C12   H11   S    
C42   H37   S    
C5    C28   A    
C18   H4    S    
C6    C27   A    
C20   C23   S    
C10   N1    A    
C32   H18   S    
C17   C23   S    
C36   H27   S    
C4    C6    A    
C12   C14   A    
C7    H13   S    
C21   C23   S    
C1    C26   S    
C22   C24   S    
C39   H31   S    
O1    Zn1   S    
C20   H2    S    
O7    Zn2   S    
C25   C30   A    
O2    Zn2   S    
O8    Zn1   S    
C3    C26   A    
C1    O1    A    
C16   O6    A    
C20   C22   S    
C12   N1    A    
C3    C5    A    
C10   C37   S    
C41   H40   S    
O3    Zn2   S    
O4    Zn1   S    
C40   H42   S    
C33   H19   S    
C28   C30   A    
C19   C24   S    
C32   C33   S    
C11   C13   A    
C41   C42   S    
C3    H6    S    
C17   C19   S    
C2    C25   S    
O5    Zn1   S    
C34   H22   S    
C36   H28   S    
C16   O8    A    
C24   O10   S    
C37   C38   S    
C8    C13   A    
C7    C9    A    
N1    Zn1   S    
C26   C29   A    
C8    C10   A    
N2    Zn2   S    
C11   N2    A    
C40   C41   S    
C1    O3    A    
O6    Zn2   S    
C42   H38   S    
