data_mof_unit_7050.cif
_audit_creation_date              2013-03-05T15:44:12-0500
_audit_creation_method            fapswitch 2.2
_symmetry_space_group_name_H-M    P1
_symmetry_Int_Tables_number       1
_space_group_crystal_system       triclinic
_cell_length_a                    26.006727
_cell_length_b                    28.092079
_cell_length_c                    8.791167
_cell_angle_alpha                 90.507932
_cell_angle_beta                  96.990873
_cell_angle_gamma                 89.518126
_cell_volume                      6374.50395845

loop_
_atom_site_label
_atom_site_type_symbol
_atom_site_description
_atom_site_fract_x
_atom_site_fract_y
_atom_site_fract_z
_atom_type_partial_charge
P1    P     P_3+3 0.893960 0.447890 0.040050 0.469396
P2    P     P_3+3 0.893960 0.552110 0.540050 0.454626
P3    P     P_3+3 0.393960 0.947890 0.040050 0.459666
P4    P     P_3+3 0.393960 0.052110 0.540050 0.457296
O1    O     O_2   0.898940 0.431940 0.867860 -0.350257
O2    O     O_2   0.898940 0.568060 0.367860 -0.330029
O3    O     O_2   0.398940 0.931940 0.867860 -0.337500
O4    O     O_2   0.398940 0.068060 0.367860 -0.336996
O5    O     O_3   0.941140 0.476130 0.123050 -0.361349
O6    O     O_3   0.941140 0.523870 0.623050 -0.401050
O7    O     O_3   0.441140 0.976130 0.123050 -0.370622
O8    O     O_3   0.441140 0.023870 0.623050 -0.402633
O9    O     O_3   0.982430 0.389880 0.635700 -0.368616
O10   O     O_3   0.982430 0.610120 0.135700 -0.347302
O11   O     O_3   0.482430 0.889880 0.635700 -0.369637
O12   O     O_3   0.482430 0.110120 0.135700 -0.343695
O13   O     O_2   0.895207 0.355442 0.726831 -0.398951
O14   O     O_2   0.894003 0.644307 0.220984 -0.382412
O15   O     O_2   0.394147 0.856500 0.723750 -0.395802
O16   O     O_2   0.394409 0.144704 0.221767 -0.384852
O17   O     O_3   0.846390 0.491702 0.992736 -0.568091
O18   O     O_3   0.843128 0.511751 0.484429 -0.616161
O19   O     O_3   0.345200 0.990855 0.998045 -0.577356
O20   O     O_3   0.341957 0.011598 0.499053 -0.612271
O21   O     O_3   0.955127 0.291968 0.627127 -0.563894
O22   O     O_3   0.956424 0.708490 0.141632 -0.566652
O23   O     O_3   0.453664 0.791656 0.630190 -0.565152
O24   O     O_3   0.457379 0.208656 0.143210 -0.567384
C1    C     C_3   0.999102 0.232546 0.481465 -0.196076
C2    C     C_3   0.001294 0.768279 0.002724 -0.179460
C3    C     C_3   0.496504 0.731448 0.482970 -0.181550
C4    C     C_3   0.502534 0.268659 0.005474 -0.182378
P5    P     P_3+3 0.105800 0.447360 0.649510 0.472214
P6    P     P_3+3 0.105800 0.552640 0.149510 0.466713
P7    P     P_3+3 0.605800 0.947360 0.649510 0.464743
P8    P     P_3+3 0.605800 0.052640 0.149510 0.463191
P9    P     P_3+3 0.069825 0.349367 0.087515 0.405327
P10   P     P_3+3 0.065149 0.654719 0.597137 0.409088
P11   P     P_3+3 0.568713 0.848453 0.090148 0.409568
P12   P     P_3+3 0.565823 0.154146 0.597007 0.399376
O25   O     O_2   0.100770 0.431440 0.821660 -0.338504
O26   O     O_2   0.100770 0.568560 0.321660 -0.352969
O27   O     O_2   0.600770 0.931440 0.821660 -0.338114
O28   O     O_2   0.600770 0.068560 0.321660 -0.367880
O29   O     O_3   0.017130 0.389790 0.053700 -0.414112
O30   O     O_3   0.017130 0.610210 0.553700 -0.409700
O31   O     O_3   0.517130 0.889790 0.053700 -0.408901
O32   O     O_3   0.517130 0.110210 0.553700 -0.408540
O33   O     O_2   0.103682 0.354291 0.955811 -0.383188
O34   O     O_2   0.104976 0.646036 0.482595 -0.377681
O35   O     O_2   0.606195 0.856399 0.969386 -0.383603
O36   O     O_2   0.606092 0.144411 0.484398 -0.385802
O37   O     O_3   0.154475 0.490201 0.693790 -0.558282
O38   O     O_3   0.163622 0.518465 0.167851 -0.598227
O39   O     O_3   0.667422 0.975523 0.674140 -0.566919
O40   O     O_3   0.662842 0.017698 0.165039 -0.597356
O41   O     O_3   0.049178 0.289892 0.067426 -0.573203
O42   O     O_3   0.038993 0.710885 0.542407 -0.569363
O43   O     O_3   0.547541 0.789848 0.050683 -0.575857
O44   O     O_3   0.540780 0.210595 0.540507 -0.565787
C5    C     C_3   0.995173 0.284931 0.030192 0.439457
C6    C     C_3   0.984546 0.711467 0.538798 0.441810
C7    C     C_3   0.493135 0.785230 0.033475 0.463635
C8    C     C_3   0.486384 0.212401 0.538935 0.448459
H1    H     H_    0.980388 0.307988 0.931872 0.157905
H2    H     H_    0.966591 0.683150 0.460628 0.167385
H3    H     H_    0.475502 0.807087 0.935519 0.152139
H4    H     H_    0.467442 0.184338 0.461595 0.165561
C9    C     C_3   0.986211 0.232069 0.984497 -0.428768
C10   C     C_3   0.963994 0.759851 0.475983 -0.444328
C11   C     C_3   0.482084 0.732046 0.999271 -0.466588
C12   C     C_3   0.466736 0.261086 0.476097 -0.451981
H5    H     H_    0.000781 0.225576 0.873666 0.198428
H6    H     H_    0.974103 0.762906 0.358786 0.216705
H7    H     H_    0.497061 0.721837 0.891550 0.195441
H8    H     H_    0.475998 0.263497 0.357916 0.217852
C13   C     C_3   0.153596 0.469568 0.167350 0.285526
C14   C     C_3   0.186865 0.492731 0.577846 0.253164
C15   C     C_3   0.652047 0.970229 0.193639 0.270769
C16   C     C_3   0.665802 0.025193 0.665266 0.172106
H9    H     H_    0.144978 0.460267 0.282304 -0.023201
H10   H     H_    0.166185 0.511376 0.478057 0.128044
H11   H     H_    0.640256 0.968116 0.310246 0.035576
H12   H     H_    0.656053 0.039636 0.775487 0.042527
H13   H     H_    0.121260 0.459776 0.079900 0.132109
H14   H     H_    0.198992 0.456649 0.544545 -0.004640
H15   H     H_    0.622060 0.956684 0.103763 0.125620
H16   H     H_    0.639049 0.036286 0.564562 0.123137
C17   C     C_3   0.200973 0.439866 0.134327 -0.130488
C18   C     C_3   0.236261 0.520426 0.638355 -0.159848
C19   C     C_3   0.699900 0.938228 0.186482 -0.159030
C20   C     C_3   0.719457 0.046564 0.649535 -0.133438
H17   H     H_    0.189425 0.401828 0.135037 0.122385
H18   H     H_    0.254734 0.501757 0.741685 0.134022
H19   H     H_    0.687510 0.900867 0.199797 0.120878
H20   H     H_    0.715603 0.085948 0.661178 0.120935
Ba1   Ba    Ba6+2 0.999910 0.465960 0.844870 1.514488
Ba2   Ba    Ba6+2 0.999910 0.534040 0.344870 1.511352
Ba3   Ba    Ba6+2 0.499910 0.965960 0.844870 1.507532
Ba4   Ba    Ba6+2 0.499910 0.034040 0.344870 1.503479
C21   C     C_3   0.796048 0.488267 0.041247 0.486200
C22   C     C_3   0.795835 0.513125 0.552425 0.488039
C23   C     C_3   0.298270 0.985090 0.063831 0.485774
C24   C     C_3   0.293848 0.021016 0.558357 0.465893
C25   C     C_3   0.765008 0.440283 0.997777 -0.207805
C26   C     C_3   0.764822 0.561982 0.540981 -0.083452
C27   C     C_3   0.264506 0.940079 0.004181 -0.233788
C28   C     C_3   0.265141 0.068160 0.493819 -0.127321
H21   H     H_    0.780252 0.412821 0.079360 0.135763
H22   H     H_    0.787741 0.587068 0.615321 0.075479
H23   H     H_    0.278497 0.909003 0.071831 0.146092
H24   H     H_    0.293842 0.090892 0.450892 0.135795
O45   O     O_3   0.058810 0.523750 0.066650 -0.417038
O46   O     O_3   0.058810 0.476250 0.566650 -0.420450
O47   O     O_3   0.558810 0.023750 0.066650 -0.405088
O48   O     O_3   0.558810 0.976250 0.566650 -0.442287
P13   P     P_3+3 0.931176 0.651307 0.098673 0.449301
P14   P     P_3+3 0.929932 0.350086 0.597098 0.429538
P15   P     P_3+3 0.431595 0.151680 0.099536 0.449571
P16   P     P_3+3 0.429644 0.850091 0.596473 0.431320
C29   C     C_3   0.997256 0.284419 0.542117 0.421898
C30   C     C_3   0.000863 0.716199 0.067081 0.372523
C31   C     C_3   0.496796 0.782960 0.549918 0.425642
C32   C     C_3   0.501662 0.216320 0.067847 0.373916
H25   H     H_    0.993194 0.305984 0.438209 0.012795
H26   H     H_    0.001422 0.692146 0.966973 0.019081
H27   H     H_    0.495585 0.805598 0.448812 0.013315
H28   H     H_    0.501611 0.192596 0.966756 0.019986
H29   H     H_    0.029764 0.231499 0.403018 0.151841
H30   H     H_    0.022516 0.766783 0.900147 0.149694
H31   H     H_    0.526723 0.729679 0.403392 0.136255
H32   H     H_    0.522886 0.267238 0.901205 0.151474
H33   H     H_    0.010045 0.209393 0.069534 0.177520
H34   H     H_    0.983651 0.789262 0.545377 0.169253
H35   H     H_    0.504431 0.710885 0.091665 0.171629
H36   H     H_    0.487709 0.290189 0.543617 0.168914
C33   C     C_R   0.892272 0.395369 0.316744 -0.479180
C34   C     C_R   0.905133 0.609583 0.806824 -0.468180
C35   C     C_R   0.391774 0.895236 0.316135 -0.483807
C36   C     C_R   0.405176 0.109529 0.808612 -0.463090
C37   C     C_R   0.878085 0.393917 0.157075 0.207494
C38   C     C_R   0.883469 0.608184 0.652746 0.244114
C39   C     C_R   0.378598 0.893734 0.156062 0.202440
C40   C     C_R   0.384882 0.108683 0.653215 0.255891
C41   C     C_R   0.850093 0.353323 0.095819 -0.329443
C42   C     C_R   0.851179 0.646675 0.595524 -0.307262
C43   C     C_R   0.351491 0.853010 0.093085 -0.322783
C44   C     C_R   0.354956 0.148412 0.594288 -0.333313
C45   C     C_R   0.836216 0.316504 0.193805 0.040914
C46   C     C_R   0.835033 0.682255 0.696342 0.036515
C47   C     C_R   0.337414 0.816047 0.190129 0.046303
C48   C     C_R   0.338970 0.184591 0.693159 0.043731
C49   C     C_R   0.859432 0.316343 0.347190 -0.271179
C50   C     C_R   0.858001 0.682249 0.850678 -0.301530
C51   C     C_R   0.359939 0.815873 0.344361 -0.279701
C52   C     C_R   0.360137 0.183691 0.849135 -0.311787
C53   C     C_R   0.889628 0.354845 0.407110 0.281918
C54   C     C_R   0.894848 0.647379 0.903684 0.258486
C55   C     C_R   0.389646 0.854518 0.405640 0.291798
C56   C     C_R   0.395464 0.147825 0.904354 0.255190
C57   C     C_R   0.804811 0.230474 0.159859 -0.183833
C58   C     C_R   0.797370 0.766616 0.688539 -0.183849
C59   C     C_R   0.305004 0.730518 0.153659 -0.182760
C60   C     C_R   0.301525 0.269408 0.690143 -0.184829
C61   C     C_R   0.264734 0.697672 0.110330 -0.193687
C62   C     C_R   0.262667 0.303107 0.639068 -0.194275
C63   C     C_R   0.765216 0.197079 0.114901 -0.184891
C64   C     C_R   0.757638 0.799754 0.640825 -0.188561
C65   C     C_R   0.214817 0.713445 0.049483 0.190228
C66   C     C_R   0.219120 0.290208 0.535310 0.184003
C67   C     C_R   0.715605 0.212163 0.049103 0.189780
C68   C     C_R   0.711927 0.785535 0.549225 0.188172
C69   C     C_R   0.206466 0.762959 0.038163 -0.160832
C70   C     C_R   0.216135 0.242292 0.485798 -0.160042
C71   C     C_R   0.706754 0.261551 0.035046 -0.165064
C72   C     C_R   0.707148 0.736757 0.510352 -0.153382
C73   C     C_R   0.745648 0.294638 0.083274 -0.199546
C74   C     C_R   0.747440 0.704066 0.553856 -0.193618
C75   C     C_R   0.246230 0.795487 0.082706 -0.200929
C76   C     C_R   0.256021 0.209501 0.530737 -0.193956
C77   C     C_R   0.795860 0.279833 0.140606 0.165354
C78   C     C_R   0.793341 0.718299 0.643385 0.175742
C79   C     C_R   0.296522 0.779987 0.136606 0.168612
C80   C     C_R   0.299086 0.221933 0.635590 0.180676
C81   C     C_R   0.141278 0.685558 0.850069 -0.112927
C82   C     C_R   0.152362 0.324843 0.324724 -0.118014
C83   C     C_R   0.643594 0.183013 0.847240 -0.108772
C84   C     C_R   0.645388 0.819287 0.337977 -0.118967
C85   C     C_R   0.099943 0.654313 0.801058 0.158112
C86   C     C_R   0.110564 0.356327 0.277076 0.157025
C87   C     C_R   0.600605 0.153261 0.800550 0.135977
C88   C     C_R   0.605629 0.852402 0.286213 0.159340
C89   C     C_R   0.117271 0.610074 0.043785 0.342366
C90   C     C_R   0.121432 0.394617 0.529704 0.283855
C91   C     C_R   0.617242 0.109635 0.043860 0.336991
C92   C     C_R   0.616035 0.891583 0.537585 0.365631
C93   C     C_R   0.159957 0.640212 0.088434 -0.357268
C94   C     C_R   0.160798 0.361446 0.579603 -0.384809
C95   C     C_R   0.660379 0.139206 0.088277 -0.362529
C96   C     C_R   0.654792 0.857961 0.589704 -0.360985
C97   C     C_R   0.171469 0.679211 0.995586 0.018845
C98   C     C_R   0.177009 0.326013 0.478961 0.026568
C99   C     C_R   0.672733 0.177517 0.994428 0.013357
C100  C     C_R   0.669910 0.821190 0.491942 0.002023
C101  C     C_R   0.086885 0.619481 0.904384 -0.215754
C102  C     C_R   0.096749 0.391555 0.378774 -0.217632
C103  C     C_R   0.586252 0.119459 0.905780 -0.213752
C104  C     C_R   0.592806 0.888829 0.385339 -0.253104
H37   H     H_    0.183908 0.633535 0.195752 0.158130
H38   H     H_    0.178692 0.363357 0.696845 0.176612
H39   H     H_    0.684006 0.132580 0.196238 0.163486
H40   H     H_    0.673826 0.861076 0.705721 0.179063
H41   H     H_    0.272857 0.659933 0.122085 0.117561
H42   H     H_    0.267047 0.339433 0.680097 0.121714
H43   H     H_    0.773640 0.159468 0.129353 0.120081
H44   H     H_    0.763103 0.836744 0.673881 0.120660
H45   H     H_    0.842414 0.217727 0.209847 0.109650
H46   H     H_    0.831746 0.779055 0.758974 0.106398
H47   H     H_    0.342893 0.717272 0.199554 0.124390
H48   H     H_    0.333997 0.280857 0.770495 0.106426
H49   H     H_    0.836910 0.351309 0.974871 0.165126
H50   H     H_    0.835351 0.646879 0.476110 0.162064
H51   H     H_    0.338361 0.851689 0.971851 0.168863
H52   H     H_    0.342850 0.150873 0.472657 0.169170
H53   H     H_    0.168728 0.776784 0.995362 0.128572
H54   H     H_    0.182474 0.229531 0.412990 0.122495
H55   H     H_    0.669230 0.274769 0.987444 0.129401
H56   H     H_    0.671883 0.723540 0.446469 0.117761
H57   H     H_    0.735997 0.332163 0.079526 0.140788
H58   H     H_    0.741994 0.667200 0.520493 0.135455
H59   H     H_    0.237106 0.833094 0.079168 0.137060
H60   H     H_    0.252232 0.173786 0.485904 0.140048
H61   H     H_    0.853417 0.286687 0.420690 0.140039
H62   H     H_    0.847857 0.709649 0.929369 0.141449
H63   H     H_    0.353646 0.786180 0.417381 0.142053
H64   H     H_    0.350220 0.211344 0.927218 0.140080
H65   H     H_    0.907743 0.427753 0.370040 0.166488
H66   H     H_    0.929691 0.580607 0.853025 0.175182
H67   H     H_    0.406231 0.927803 0.370498 0.160793
H68   H     H_    0.428445 0.079894 0.856193 0.178196
N1    N     N_3   0.045736 0.297644 0.634888 -0.164979
H69   H     H_    0.051153 0.276663 0.733094 0.157747
H70   H     H_    0.076607 0.290608 0.571953 0.064584
N2    N     N_3   0.047413 0.704849 0.171469 -0.155785
H71   H     H_    0.050190 0.727775 0.265966 0.169093
H72   H     H_    0.079770 0.710152 0.114295 0.072609
N3    N     N_3   0.544733 0.793966 0.648419 -0.173138
H73   H     H_    0.545121 0.776205 0.752112 0.165877
H74   H     H_    0.576411 0.782006 0.595618 0.073882
N4    N     N_3   0.548342 0.204211 0.170620 -0.154982
H75   H     H_    0.551833 0.226986 0.265505 0.170036
H76   H     H_    0.580516 0.209217 0.112383 0.074108
N5    N     N_3   0.244464 0.447705 0.253740 -0.210372
H77   H     H_    0.277995 0.432288 0.220020 0.130339
H78   H     H_    0.237299 0.428213 0.349449 0.071840
N6    N     N_3   0.274039 0.520644 0.527335 -0.215259
H79   H     H_    0.255303 0.528670 0.418393 0.150274
H80   H     H_    0.289938 0.486455 0.521693 0.090963
N7    N     N_3   0.740415 0.949744 0.311468 -0.187443
H81   H     H_    0.772065 0.927079 0.303427 0.121510
H82   H     H_    0.726720 0.941200 0.414891 0.126277
N8    N     N_3   0.758916 0.029965 0.771021 -0.188120
H83   H     H_    0.761385 0.992827 0.767306 0.168296
H84   H     H_    0.747940 0.040362 0.876985 0.095926
N9    N     N_2   0.215365 0.451346 0.984559 -0.045133
H85   H     H_    0.227367 0.485956 0.975044 0.212465
C105  C     C_3   0.247319 0.416386 0.917061 -0.926380
H86   H     H_    0.244600 0.421955 0.791810 0.234587
H87   H     H_    0.234143 0.379620 0.935895 0.249281
H88   H     H_    0.288500 0.420051 0.966044 0.231042
N10   N     N_2   0.223853 0.568675 0.684724 -0.079504
H89   H     H_    0.245599 0.580008 0.784286 0.170967
C106  C     C_3   0.217857 0.604962 0.567955 -0.804279
H90   H     H_    0.201904 0.637631 0.615952 0.241786
H91   H     H_    0.191099 0.593019 0.467407 0.272235
H92   H     H_    0.256034 0.613750 0.531307 0.221373
N11   N     N_2   0.719135 0.943598 0.039262 -0.049576
H93   H     H_    0.738757 0.974876 0.029183 0.203449
C107  C     C_3   0.744400 0.902323 0.981225 -0.881542
H94   H     H_    0.752873 0.909310 0.862772 0.236558
H95   H     H_    0.718747 0.870818 0.977564 0.257739
H96   H     H_    0.781383 0.894559 0.054174 0.228713
N12   N     N_2   0.735149 0.036120 0.499881 -0.076883
H97   H     H_    0.706551 0.044303 0.412500 0.226264
C108  C     C_3   0.784308 0.055815 0.471142 -0.877937
H98   H     H_    0.792018 0.046019 0.353299 0.242786
H99   H     H_    0.816363 0.041184 0.552752 0.258470
H100  H     H_    0.783381 0.095278 0.481162 0.235291
N13   N     N_2   0.765833 0.529048 0.974657 -0.116425
H101  H     H_    0.727992 0.531441 0.996742 0.141034
C109  C     C_3   0.789726 0.575934 0.981828 -0.912767
H102  H     H_    0.831683 0.574187 0.973295 0.280869
H103  H     H_    0.784929 0.594340 0.090069 0.246899
H104  H     H_    0.771010 0.598341 0.887377 0.231013
N14   N     N_2   0.764349 0.473919 0.480251 -0.095687
H105  H     H_    0.785144 0.442510 0.476906 0.170644
C110  C     C_3   0.711632 0.465294 0.510689 -0.953371
H106  H     H_    0.699504 0.429195 0.468852 0.243357
H107  H     H_    0.684301 0.490447 0.446631 0.271050
H108  H     H_    0.708261 0.467687 0.634779 0.276234
N15   N     N_2   0.267720 0.028412 0.028468 -0.131917
H109  H     H_    0.246155 0.029003 0.922322 0.153486
C111  C     C_3   0.293115 0.073592 0.066917 -0.827221
H110  H     H_    0.327134 0.078110 0.004387 0.263370
H111  H     H_    0.306474 0.075972 0.191058 0.267063
H112  H     H_    0.265637 0.103309 0.035102 0.221590
N16   N     N_2   0.260414 0.979936 0.516409 -0.106910
H113  H     H_    0.279745 0.947758 0.530716 0.181907
C112  C     C_3   0.208729 0.978376 0.564420 -0.964450
H114  H     H_    0.191661 0.942743 0.538440 0.257349
H115  H     H_    0.181711 0.003863 0.501246 0.270810
H116  H     H_    0.209777 0.986036 0.688338 0.262153
N17   N     N_3   0.801376 0.494239 0.204919 -0.212763
H117  H     H_    0.825444 0.523501 0.227535 0.208137
H118  H     H_    0.821444 0.464934 0.254275 0.098875
N18   N     N_3   0.809405 0.502260 0.710859 -0.193615
H119  H     H_    0.831933 0.530302 0.758589 0.130488
H120  H     H_    0.835089 0.473707 0.712240 0.171276
N19   N     N_3   0.309979 0.982840 0.229599 -0.208393
H121  H     H_    0.348497 0.992654 0.257515 0.210791
H122  H     H_    0.306053 0.948824 0.273070 0.059760
N20   N     N_3   0.304645 0.021777 0.723363 -0.214531
H123  H     H_    0.323234 0.052910 0.760857 0.080740
H124  H     H_    0.332276 0.995054 0.746266 0.193197
N21   N     N_2   0.770271 0.422931 0.843613 -0.086223
H125  H     H_    0.807901 0.415194 0.829556 0.221762
C113  C     C_3   0.738117 0.383540 0.782809 -0.913596
H126  H     H_    0.743426 0.377676 0.660721 0.250475
H127  H     H_    0.696403 0.390741 0.788843 0.264247
H128  H     H_    0.750383 0.350275 0.842788 0.246887
N22   N     N_2   0.757692 0.581913 0.387983 -0.095758
H129  H     H_    0.790882 0.586009 0.337422 0.187505
C114  C     C_3   0.710356 0.572619 0.287262 -0.896871
H130  H     H_    0.708119 0.596065 0.185954 0.237655
H131  H     H_    0.675563 0.580953 0.344255 0.252998
H132  H     H_    0.709304 0.535035 0.249211 0.251393
N23   N     N_2   0.267756 0.928018 0.844250 -0.087772
H133  H     H_    0.305023 0.925601 0.818075 0.227498
C115  C     C_3   0.238966 0.886494 0.784287 -0.896445
H134  H     H_    0.197184 0.890296 0.796963 0.265667
H135  H     H_    0.254974 0.853865 0.841791 0.243086
H136  H     H_    0.242846 0.881885 0.660773 0.243140
N24   N     N_2   0.226098 0.059302 0.363413 -0.086141
H137  H     H_    0.235858 0.034662 0.285137 0.212773
C116  C     C_3   0.198503 0.100328 0.294844 -0.909686
H138  H     H_    0.171671 0.088837 0.193424 0.245162
H139  H     H_    0.226046 0.126503 0.257600 0.244445
H140  H     H_    0.175078 0.117566 0.377674 0.261808
N25   N     N_3   0.709972 0.444441 0.019327 -0.206203
H141  H     H_    0.706054 0.459981 0.125745 0.104531
H142  H     H_    0.689769 0.464719 0.932121 0.122286
N26   N     N_3   0.715212 0.560436 0.604740 -0.199310
H143  H     H_    0.701562 0.595292 0.615823 0.112539
H144  H     H_    0.720783 0.546725 0.715011 0.124647
N27   N     N_3   0.210078 0.945718 0.031251 -0.202582
H145  H     H_    0.208274 0.957750 0.143405 0.110915
H146  H     H_    0.191003 0.970407 0.955664 0.124888
N28   N     N_3   0.240367 0.094112 0.612002 -0.208937
H147  H     H_    0.267932 0.109711 0.692867 0.107629
H148  H     H_    0.217652 0.071249 0.668290 0.134875
N29   N     N_2   0.011478 0.198763 0.605388 -0.098821
H149  H     H_    0.979828 0.185253 0.650142 0.197425
C117  C     C_3   0.050067 0.162927 0.581979 -0.942529
H150  H     H_    0.058012 0.140819 0.686404 0.253498
H151  H     H_    0.086851 0.180062 0.560600 0.254763
H152  H     H_    0.035892 0.139579 0.483325 0.253304
N30   N     N_2   0.026343 0.802945 0.111138 -0.087391
H153  H     H_    0.012607 0.807825 0.214838 0.179602
C118  C     C_3   0.079849 0.815268 0.104094 -0.932955
H154  H     H_    0.105874 0.788478 0.165697 0.243101
H155  H     H_    0.087883 0.850317 0.160931 0.255528
H156  H     H_    0.087865 0.818311 0.983360 0.249063
N31   N     N_2   0.506913 0.694829 0.598785 -0.092752
H157  H     H_    0.479163 0.687599 0.669102 0.185240
C119  C     C_3   0.559675 0.679236 0.645326 -0.947890
H158  H     H_    0.577433 0.700790 0.743820 0.249218
H159  H     H_    0.583654 0.681609 0.549418 0.249733
H160  H     H_    0.559471 0.641515 0.681702 0.252709
N32   N     N_2   0.529003 0.302642 0.113623 -0.088259
H161  H     H_    0.515928 0.308020 0.218013 0.179097
C120  C     C_3   0.582506 0.314263 0.103542 -0.933537
H162  H     H_    0.608422 0.287082 0.163498 0.244343
H163  H     H_    0.591462 0.349156 0.160463 0.254646
H164  H     H_    0.589734 0.317308 0.982113 0.249603
N33   N     N_3   0.153290 0.723597 0.752775 -0.211139
H165  H     H_    0.161890 0.709618 0.648419 0.149927
H166  H     H_    0.120569 0.745522 0.731688 0.137454
N34   N     N_3   0.171705 0.293226 0.215611 -0.214009
H167  H     H_    0.182729 0.313259 0.125555 0.133146
H168  H     H_    0.142308 0.269952 0.172346 0.163601
N35   N     N_3   0.659239 0.217949 0.744548 -0.209704
H169  H     H_    0.669578 0.200667 0.646951 0.153409
H170  H     H_    0.627875 0.240710 0.712423 0.144198
N36   N     N_3   0.663256 0.785375 0.233041 -0.210516
H171  H     H_    0.675365 0.803603 0.140764 0.141361
H172  H     H_    0.632731 0.762918 0.192733 0.156113
N37   N     N_2   0.046901 0.588052 0.857358 -0.117040
H173  H     H_    0.012007 0.603855 0.820598 0.145376
C121  C     C_3   0.063773 0.551110 0.761281 -0.440190
H174  H     H_    0.029053 0.536743 0.695977 0.276571
H175  H     H_    0.085833 0.523881 0.830582 0.239007
H176  H     H_    0.090098 0.563639 0.679879 0.216321
N38   N     N_2   0.058259 0.425843 0.328339 -0.093404
H177  H     H_    0.060727 0.443493 0.228036 0.201202
C122  C     C_3   0.006844 0.413583 0.354819 -0.569415
H178  H     H_    0.990678 0.440257 0.428302 0.264738
H179  H     H_    0.005843 0.377358 0.397599 0.164798
H180  H     H_    0.980765 0.413753 0.250451 0.215318
N39   N     N_2   0.543806 0.089889 0.863505 -0.100175
H181  H     H_    0.510176 0.107597 0.826060 0.148213
C123  C     C_3   0.557131 0.051779 0.766114 -0.519827
H182  H     H_    0.522517 0.037686 0.704007 0.289795
H183  H     H_    0.580063 0.023889 0.829236 0.223991
H184  H     H_    0.579668 0.064162 0.678416 0.180179
N40   N     N_2   0.556234 0.924264 0.332003 -0.094988
H185  H     H_    0.559860 0.941592 0.232160 0.196901
C124  C     C_3   0.504224 0.913662 0.354363 -0.567075
H186  H     H_    0.488760 0.940634 0.428521 0.266507
H187  H     H_    0.501028 0.877123 0.392679 0.163865
H188  H     H_    0.479463 0.914652 0.248158 0.219117
N41   N     N_3   0.949957 0.220221 0.390492 -0.219966
H189  H     H_    0.920522 0.219084 0.461449 0.129452
H190  H     H_    0.953528 0.185945 0.345385 0.112001
N42   N     N_3   0.948841 0.785612 0.950613 -0.199754
H191  H     H_    0.929462 0.792902 0.045672 0.145151
H192  H     H_    0.927853 0.759311 0.886830 0.104905
N43   N     N_3   0.446686 0.722023 0.391663 -0.215773
H193  H     H_    0.418012 0.718493 0.464440 0.129917
H194  H     H_    0.449348 0.689327 0.335191 0.112045
N44   N     N_3   0.450175 0.286913 0.957448 -0.201000
H195  H     H_    0.431588 0.293833 0.054285 0.145970
H196  H     H_    0.428434 0.261230 0.893026 0.104387
N45   N     N_3   0.968874 0.296173 0.163461 -0.220660
H197  H     H_    0.929472 0.290365 0.135333 0.099715
H198  H     H_    0.971214 0.332508 0.184800 0.098418
N46   N     N_3   0.970602 0.705421 0.692751 -0.233186
H199  H     H_    0.976679 0.670038 0.722924 0.072220
H200  H     H_    0.930852 0.709491 0.688359 0.086939
N47   N     N_3   0.472342 0.799169 0.174472 -0.224792
H201  H     H_    0.435548 0.784988 0.175028 0.124793
H202  H     H_    0.465453 0.835580 0.172074 0.090230
N48   N     N_3   0.473030 0.206858 0.693757 -0.232097
H203  H     H_    0.475881 0.170986 0.720077 0.071025
H204  H     H_    0.433905 0.213961 0.693470 0.088282
N49   N     N_2   0.932741 0.216522 0.976915 -0.111957
H205  H     H_    0.919073 0.212086 0.080908 0.180824
C125  C     C_3   0.895464 0.235579 0.857207 -0.802097
H206  H     H_    0.857171 0.218996 0.863263 0.227503
H207  H     H_    0.907315 0.226932 0.743369 0.263892
H208  H     H_    0.891223 0.274588 0.871583 0.267529
N50   N     N_2   0.908227 0.764103 0.476371 -0.087277
H209  H     H_    0.897944 0.778470 0.576797 0.186102
C126  C     C_3   0.879282 0.784523 0.341510 -0.840119
H210  H     H_    0.882219 0.761095 0.240707 0.278173
H211  H     H_    0.894016 0.820583 0.320361 0.227522
H212  H     H_    0.837718 0.787430 0.358326 0.241093
N51   N     N_2   0.427678 0.719556 0.992935 -0.117683
H213  H     H_    0.422306 0.683745 0.009934 0.181777
C127  C     C_3   0.392819 0.738025 0.866155 -0.815628
H214  H     H_    0.352931 0.725462 0.874611 0.230680
H215  H     H_    0.404384 0.725135 0.755630 0.253289
H216  H     H_    0.391992 0.777400 0.870151 0.280078
N52   N     N_2   0.411248 0.266789 0.480083 -0.089488
H217  H     H_    0.402100 0.283306 0.578649 0.187506
C128  C     C_3   0.381326 0.284769 0.343003 -0.844708
H218  H     H_    0.383342 0.259374 0.246574 0.280720
H219  H     H_    0.395929 0.320160 0.313540 0.227265
H220  H     H_    0.340051 0.288465 0.362288 0.242669

loop_
_geom_bond_atom_site_label_1
_geom_bond_atom_site_label_2
_geom_bond_distance
_ccdc_geom_bond_type
N20   H124  1.038683 S    
N43   H193  1.045845 S    
C57   H45   1.081660 S    
C123  H183  1.093952 S    
C88   C104  1.402485 A    
N51   H213  1.031497 S    
C38   C42   1.420907 A    
C109  H102  1.103461 S    
P6    O26   1.594587 D    
O22   P13   1.760935 S    
C127  H214  1.109772 S    
C3    C31   1.557082 S    
C15   H15   1.107678 S    
N23   H133  1.024603 S    
C111  H111  1.105895 S    
N15   H109  1.028735 S    
C13   C17   1.537567 S    
P5    O46   1.568378 S    
O40   C15   1.396302 S    
O3    Ba3   2.832735 S    
C59   C61   1.416398 A    
O27   Ba3   2.818924 S    
C50   C54   1.406627 A    
C20   N12   1.450978 S    
N37   C121  1.431747 S    
Ba2   O46   2.840879 S    
C41   H49   1.077870 S    
C69   C75   1.403115 A    
N4    H76   1.043803 S    
N10   H89   1.031934 S    
C36   H68   1.081801 S    
C106  H92   1.110822 S    
O11   P16   1.776676 S    
C82   C98   1.427750 A    
P12   O32   1.781170 S    
C45   C49   1.408796 A    
C42   C46   1.424340 A    
N28   H147  1.042601 S    
C86   C102  1.401521 A    
O19   C23   1.423773 S    
C48   C52   1.414395 A    
P2    O18   1.769235 S    
C47   C51   1.410079 A    
P4    O8    1.563089 S    
C37   C41   1.424091 A    
C118  H156  1.110453 S    
O30   Ba2   2.809966 S    
C35   C55   1.399366 A    
P5    O37   1.760601 S    
Ba4   O47   3.050293 S    
C3    N43   1.463502 S    
C102  N38   1.417665 S    
C61   C65   1.411794 A    
O32   Ba4   2.809966 S    
C59   C79   1.411708 A    
N52   H217  1.031476 S    
O9    P14   1.770615 S    
P3    C39   1.910804 S    
C71   C73   1.404018 A    
Ba3   O48   3.056838 S    
C63   C67   1.411471 A    
C26   N22   1.451858 S    
C114  H130  1.107937 S    
C35   H67   1.077518 S    
N18   H119  1.040168 S    
C16   C20   1.545722 S    
C126  H212  1.110917 S    
C125  H207  1.106821 S    
C27   N23   1.455577 S    
C14   H10   1.105321 S    
C111  H110  1.105692 S    
N26   H143  1.046493 S    
C50   H62   1.082690 S    
C117  H150  1.110369 S    
C116  H140  1.110239 S    
C74   C78   1.406456 A    
O13   P14   1.544130 D    
C83   N35   1.433746 S    
C7    C11   1.543819 S    
O15   P16   1.543282 D    
P6    O38   1.768725 S    
C120  H162  1.107751 S    
P8    O28   1.594587 D    
P9    O29   1.771042 S    
N46   H199  1.036906 S    
P11   O31   1.768202 S    
C66   C70   1.410846 A    
C114  H132  1.104273 S    
C1    N41   1.465173 S    
C121  H175  1.095986 S    
C18   N6    1.466807 S    
N38   C122  1.430269 S    
N7    H82   1.046547 S    
P4    C40   1.895790 S    
C119  H158  1.108023 S    
O41   C5    1.410608 S    
O43   C7    1.411521 S    
O44   C8    1.413551 S    
N31   C119  1.448642 S    
O37   C14   1.401740 S    
C16   H16   1.102827 S    
C69   H53   1.077925 S    
C122  H178  1.098987 S    
O39   C16   1.398218 S    
C42   H50   1.080004 S    
P5    Ba1   3.452171 S    
C107  H95   1.110689 S    
C33   H65   1.077825 S    
N49   H205  1.029347 S    
N44   H196  1.040493 S    
C66   C98   1.521428 S    
P3    O7    1.566993 S    
N36   H171  1.044852 S    
C5    H1    1.113250 S    
C108  H99   1.110192 S    
C9    N49   1.454655 S    
C10   H34   1.112828 S    
C23   C27   1.593651 S    
O20   C24   1.434573 S    
N39   H181  1.022870 S    
C4    N44   1.465442 S    
P9    O41   1.760067 S    
C76   C80   1.405538 A    
N33   H166  1.045303 S    
C59   H47   1.082548 S    
P11   O35   1.544953 D    
N19   H122  1.042681 S    
N41   H189  1.045531 S    
P12   O44   1.761636 S    
C63   H43   1.082694 S    
C128  H220  1.110817 S    
Ba1   Ba2   4.809146 S    
N14   C110  1.451203 S    
N2    H71   1.042512 S    
C29   N1    1.464585 S    
C127  H215  1.108499 S    
C6    C10   1.538590 S    
C25   N25   1.470032 S    
C8    H4    1.114430 S    
C109  H103  1.098854 S    
C74   H58   1.079636 S    
N47   H202  1.036892 S    
C49   C53   1.402700 A    
N5    H77   1.044108 S    
C105  H88   1.109881 S    
N17   H118  1.040348 S    
C121  H174  1.087964 S    
C20   H20   1.115002 S    
O31   Ba3   2.828952 S    
C19   N11   1.452715 S    
N1    H69   1.044342 S    
N21   C113  1.451141 S    
C24   N20   1.443584 S    
C104  N40   1.413940 S    
C3    H31   1.114494 S    
C35   C39   1.407589 A    
C1    H29   1.116006 S    
N40   H185  1.022131 S    
N34   H167  1.044763 S    
N6    H80   1.045642 S    
C94   C98   1.421070 A    
C120  H164  1.110383 S    
N40   C124  1.424568 S    
P7    O27   1.602709 D    
C15   C19   1.536266 S    
O38   C13   1.400153 S    
C72   C74   1.407169 A    
P9    C86   1.872357 S    
C13   H13   1.103037 S    
N11   H93   1.029667 S    
O9    Ba1   2.810521 S    
C110  H107  1.105795 S    
C124  H187  1.090107 S    
C68   C100  1.519054 S    
O10   Ba2   2.829435 S    
C114  H131  1.108753 S    
C91   C95   1.415767 A    
C112  H115  1.103822 S    
C72   H56   1.082120 S    
C22   N18   1.429587 S    
C24   N16   1.468004 S    
C89   C101  1.400958 A    
C6    H2    1.114241 S    
C51   C55   1.402893 A    
C2    C30   1.573929 S    
C52   C56   1.406942 A    
C7    N47   1.460535 S    
C122  H180  1.072570 S    
C113  H127  1.109377 S    
O12   Ba4   2.829435 S    
C84   C100  1.425054 A    
C1    C29   1.549656 S    
C92   C104  1.401575 A    
O6    Ba1   2.841512 S    
C43   C47   1.427650 A    
C10   H6    1.098125 S    
C34   C54   1.399508 A    
C31   H27   1.094679 S    
C96   C100  1.421252 A    
O10   P13   1.759690 S    
N13   H101  1.027558 S    
C87   C103  1.415079 A    
N28   H148  1.043810 S    
N9    C105  1.450236 S    
C57   C63   1.416788 A    
C58   C64   1.412621 A    
C61   H41   1.082644 S    
N42   H191  1.045010 S    
N27   H146  1.044422 S    
C126  H211  1.111212 S    
C62   C66   1.412629 A    
N24   C116  1.449050 S    
C6    N46   1.454895 S    
P2    C38   1.888980 S    
C117  H152  1.111051 S    
O25   Ba1   2.818924 S    
C116  H139  1.109604 S    
C70   C76   1.404016 A    
C119  H160  1.109799 S    
N35   H170  1.045134 S    
C25   H21   1.096438 S    
C3    N31   1.454272 S    
P13   C54   1.856711 S    
C27   H23   1.095153 S    
C44   C48   1.423540 A    
O1    Ba1   2.832735 S    
C10   N50   1.454648 S    
C105  H86   1.107169 S    
O24   C32   1.415651 S    
C81   C85   1.417085 A    
N8    H83   1.045178 S    
C33   C53   1.400875 A    
C84   C88   1.420719 A    
C64   H44   1.082365 S    
P4    Ba4   3.450519 S    
O4    Ba4   2.816579 S    
N14   H105  1.033070 S    
N37   H173  1.024420 S    
C36   C56   1.400262 A    
O28   Ba4   2.835299 S    
C90   C94   1.410954 A    
O21   C29   1.412985 S    
C52   H64   1.082327 S    
C73   C77   1.402372 A    
C81   N33   1.434546 S    
C106  H91   1.107746 S    
N2    H72   1.043714 S    
C12   N52   1.455218 S    
C17   N9    1.451598 S    
C17   H17   1.112696 S    
C94   H38   1.079097 S    
P10   O30   1.780582 S    
C19   N7    1.462791 S    
C19   H19   1.111808 S    
N50   H209  1.031107 S    
P3    Ba3   3.461795 S    
C115  H136  1.109029 S    
N12   H97   1.028240 S    
C65   C69   1.408529 A    
N48   H203  1.035964 S    
N48   H204  1.034953 S    
C68   C72   1.412131 A    
C118  H155  1.110011 S    
O42   C6    1.412446 S    
C95   C99   1.424194 A    
C58   H46   1.082345 S    
C11   H35   1.112993 S    
C18   N10   1.456822 S    
Ba4   O48   2.840879 S    
C16   H12   1.104040 S    
O21   P14   1.764116 S    
C21   N13   1.468806 S    
N32   H161  1.026300 S    
C46   C78   1.511495 S    
O23   P16   1.766087 S    
C14   C18   1.543257 S    
P6    O45   1.572327 S    
P1    O17   1.754008 S    
N29   C117  1.446574 S    
O5    Ba2   2.836432 S    
P1    O1    1.594901 D    
O2    Ba2   2.816579 S    
P3    O3    1.594901 D    
O26   Ba2   2.835299 S    
Ba3   O47   2.835844 S    
P4    O20   1.775985 S    
C83   C99   1.426642 A    
C71   H55   1.078234 S    
N18   H120  1.038695 S    
C81   C97   1.428983 A    
C11   N51   1.455001 S    
P10   O42   1.760542 S    
N30   H153  1.026523 S    
C85   C101  1.412206 A    
N45   H198  1.037140 S    
N26   H144  1.039515 S    
C107  H94   1.109808 S    
C9    H5    1.100786 S    
C103  N39   1.398855 S    
P4    O4    1.603031 D    
C2    N30   1.457462 S    
C32   H28   1.105983 S    
N3    H74   1.045327 S    
N20   H123  1.034654 S    
C123  H184  1.084951 S    
C45   C77   1.507185 S    
N51   C127  1.445577 S    
N23   C115  1.451512 S    
N46   H200  1.035184 S    
C18   H18   1.108615 S    
C111  H112  1.109626 S    
N15   C111  1.453786 S    
N25   H141  1.044707 S    
C23   N19   1.453860 S    
N16   H113  1.031811 S    
P1    O5    1.566993 S    
C34   C38   1.402633 A    
C92   C96   1.413217 A    
Ba2   O45   3.050293 S    
C30   N2    1.462060 S    
N4    H75   1.042357 S    
C2    H30   1.113402 S    
C26   N26   1.469043 S    
C125  H206  1.110301 S    
N47   H201  1.040163 S    
Ba1   O46   3.056838 S    
C108  H98   1.110754 S    
P8    O40   1.763943 S    
P9    O33   1.545326 D    
C115  H134  1.109904 S    
C13   H9    1.095711 S    
P10   C85   1.907355 S    
P11   O43   1.758594 S    
C49   H61   1.082768 S    
P7    O48   1.568378 S    
P8    Ba4   3.463771 S    
C47   C79   1.505442 S    
O14   P13   1.545777 D    
N36   H172  1.043908 S    
P6    C89   1.912642 S    
C101  N37   1.391430 S    
C28   N24   1.457049 S    
C24   C28   1.589608 S    
C43   H51   1.079266 S    
N43   H194  1.045992 S    
N33   H165  1.043042 S    
C33   C37   1.407581 A    
C36   C40   1.403402 A    
C84   N36   1.433818 S    
P5    O25   1.602709 D    
C70   H54   1.081349 S    
C125  H208  1.108104 S    
C113  H126  1.109382 S    
N22   H129  1.025588 S    
C28   N28   1.472300 S    
C15   H11   1.107392 S    
P11   C88   1.870971 S    
C105  H87   1.111018 S    
N17   H117  1.040446 S    
P12   C87   1.904511 S    
P6    Ba2   3.463771 S    
C67   C99   1.516879 S    
N21   H125  1.022542 S    
P1    C37   1.915555 S    
C65   C97   1.516716 S    
N19   H121  1.040816 S    
C28   H24   1.090054 S    
C64   C68   1.410843 A    
C91   C103  1.401151 A    
N34   H168  1.043966 S    
C14   H14   1.106534 S    
C123  H182  1.071325 S    
C120  H163  1.110057 S    
P14   C53   1.865906 S    
O22   C30   1.415356 S    
O16   P15   1.545377 D    
C41   C45   1.428230 A    
N50   C126  1.445293 S    
C27   N27   1.470682 S    
C121  H176  1.110177 S    
C11   H7    1.101749 S    
N24   H137  1.023812 S    
C82   C86   1.420894 A    
N12   C108  1.448242 S    
C110  H106  1.110719 S    
C4    C32   1.575068 S    
P3    O19   1.751969 S    
N38   H177  1.024475 S    
C40   C44   1.420275 A    
C124  H186  1.100377 S    
C128  H218  1.108958 S    
N35   H169  1.044368 S    
C112  H114  1.109028 S    
C39   C43   1.421138 A    
C96   H40   1.081289 S    
N32   C120  1.445215 S    
C58   C78   1.411952 A    
C108  H100  1.111604 S    
C122  H179  1.089653 S    
C73   H57   1.081414 S    
C12   H36   1.112788 S    
C5    N45   1.457747 S    
C107  H96   1.110292 S    
N49   C125  1.444595 S    
N44   H195  1.044906 S    
C128  H219  1.111112 S    
C29   H25   1.094453 S    
N27   H145  1.045783 S    
P15   C56   1.856037 S    
O8    Ba3   2.841512 S    
P16   C55   1.867814 S    
C32   N4    1.461956 S    
C93   C97   1.427237 A    
C48   C80   1.515187 S    
N9    H85   1.030849 S    
C83   C87   1.419447 A    
O17   C21   1.429702 S    
C60   H48   1.082094 S    
N42   H192  1.040752 S    
N41   H190  1.045786 S    
C17   N5    1.463184 S    
C57   C77   1.412310 A    
C117  H151  1.111438 S    
P2    O2    1.603031 D    
P7    Ba3   3.452171 S    
C75   C79   1.402862 A    
C119  H159  1.110807 S    
C21   C25   1.596488 S    
C90   C102  1.404130 A    
C127  H216  1.106464 S    
C7    H3    1.112387 S    
P7    O39   1.781818 S    
C109  H104  1.108295 S    
N30   C118  1.445465 S    
O12   P15   1.757906 S    
P1    Ba1   3.461795 S    
N5    H78   1.044284 S    
O23   C31   1.414562 S    
N8    H84   1.045495 S    
P12   O36   1.547368 D    
C67   C71   1.408522 A    
C8    N48   1.455018 S    
O7    Ba4   2.836432 S    
N1    H70   1.045577 S    
C30   H26   1.106200 S    
C60   C80   1.412597 A    
Ba3   Ba4   4.809146 S    
C51   H63   1.082592 S    
N6    H79   1.045883 S    
C25   N21   1.457896 S    
C106  H90   1.105325 S    
C12   H8    1.097476 S    
N22   C114  1.450390 S    
C62   H42   1.081599 S    
C21   N17   1.437102 S    
P7    C92   1.877120 S    
C115  H135  1.104367 S    
N11   C107  1.447332 S    
C110  H108  1.106411 S    
N39   C123  1.431451 S    
Ba1   O45   2.835844 S    
N7    H81   1.045216 S    
P2    O6    1.563089 S    
C4    H32   1.113148 S    
C124  H188  1.068167 S    
C118  H154  1.107780 S    
C26   H22   1.087708 S    
C112  H116  1.105675 S    
C5    C9    1.547050 S    
N10   C106  1.447122 S    
C76   H60   1.075581 S    
C9    H33   1.112599 S    
O11   Ba3   2.810521 S    
O24   P15   1.761659 S    
P5    C90   1.880507 S    
C113  H128  1.102645 S    
N3    H73   1.041990 S    
C22   N14   1.470514 S    
P10   O34   1.546450 D    
N29   H149  1.031064 S    
O18   C22   1.431535 S    
C60   C62   1.414228 A    
C44   H52   1.079940 S    
P8    C91   1.901696 S    
N16   C112  1.458169 S    
O29   Ba1   2.828952 S    
N31   H157  1.028349 S    
C31   N3    1.462395 S    
C4    N32   1.457689 S    
C1    N29   1.455656 S    
C89   C93   1.416705 A    
N13   C109  1.458668 S    
C34   H66   1.081405 S    
C95   H39   1.082701 S    
C8    C12   1.539379 S    
C126  H210  1.108859 S    
C93   H37   1.082315 S    
C2    N42   1.465767 S    
C23   N15   1.462626 S    
P2    Ba2   3.450519 S    
N25   H142  1.045437 S    
N45   H197  1.038360 S    
C46   C50   1.414355 A    
C22   C26   1.583817 S    
N52   C128  1.445281 S    
C116  H138  1.110551 S    
P8    O47   1.572327 S    
C75   H59   1.080722 S    
C20   N8    1.464636 S    
C82   N34   1.434183 S    
