data_mof_unit_52199.cif
_audit_creation_date              2013-03-05T15:56:46-0500
_audit_creation_method            fapswitch 2.2
_symmetry_space_group_name_H-M    P1
_symmetry_Int_Tables_number       1
_space_group_crystal_system       triclinic
_cell_length_a                    6.928503
_cell_length_b                    14.578801
_cell_length_c                    16.050965
_cell_angle_alpha                 89.974288
_cell_angle_beta                  89.714964
_cell_angle_gamma                 90.016808
_cell_volume                      1621.2759041

loop_
_atom_site_label
_atom_site_type_symbol
_atom_site_description
_atom_site_fract_x
_atom_site_fract_y
_atom_site_fract_z
_atom_type_partial_charge
O1    O     O_R   0.638180 0.333920 0.163320 -0.572570
O2    O     O_R   0.361820 0.666080 0.836680 -0.572570
O3    O     O_R   0.308470 0.344960 0.336080 -0.567016
O4    O     O_R   0.691530 0.655040 0.663920 -0.567017
O5    O     O_R   0.138140 0.166110 0.336680 -0.598844
O6    O     O_R   0.861860 0.833890 0.663320 -0.598844
C1    C     C_R   0.476792 0.367783 0.364508 0.983303
C2    C     C_R   0.523208 0.632217 0.635491 0.983306
O7    O     O_R   0.308460 0.344950 0.163930 -0.585736
O8    O     O_R   0.691540 0.655050 0.836070 -0.585740
O9    O     O_R   0.138140 0.166100 0.163310 -0.605994
O10   O     O_R   0.861860 0.833900 0.836690 -0.605996
C3    C     C_R   0.477605 0.365144 0.133468 1.044372
C4    C     C_R   0.522395 0.634856 0.866533 1.044378
O11   O     O_R   0.638180 0.333930 0.336700 -0.588159
O12   O     O_R   0.361820 0.666070 0.663300 -0.588160
O13   O     O_3   0.471670 0.191340 0.250000 -0.288153
O14   O     O_3   0.528330 0.808660 0.750000 -0.288152
V1    V     V_3+5 0.196830 0.260900 0.250000 1.261556
V2    V     V_3+5 0.803170 0.739100 0.750000 1.261553
O15   O     O_R   0.808420 0.155070 0.163920 -0.585865
O16   O     O_R   0.191580 0.844930 0.836080 -0.585864
C5    C     C_R   0.977724 0.132735 0.135036 0.993709
C6    C     C_R   0.022277 0.867264 0.864964 0.993708
O17   O     O_R   0.808420 0.155080 0.336070 -0.604149
O18   O     O_R   0.191580 0.844920 0.663930 -0.604149
C7    C     C_R   0.976865 0.133215 0.364830 0.930006
C8    C     C_R   0.023135 0.866785 0.635170 0.930006
V3    V     V_3+5 0.696830 0.239130 0.250000 1.244094
V4    V     V_3+5 0.303170 0.760870 0.750000 1.244093
O19   O     O_3   0.971850 0.308690 0.250010 -0.235621
O20   O     O_3   0.028150 0.691310 0.749990 -0.235624
C9    C     C_R   0.797957 0.166406 0.525829 -0.231214
C10   C     C_R   0.202044 0.833594 0.474171 -0.231213
C11   C     C_R   0.713164 0.185804 0.602606 -0.180499
C12   C     C_R   0.286837 0.814197 0.397394 -0.180495
C13   C     C_R   0.728632 0.124119 0.668885 0.411112
C14   C     C_R   0.271369 0.875881 0.331115 0.411111
C15   C     C_R   0.829638 0.041833 0.656558 -0.289059
C16   C     C_R   0.170363 0.958167 0.343442 -0.289059
C17   C     C_R   0.912803 0.019307 0.578325 0.070774
C18   C     C_R   0.087197 0.980692 0.421675 0.070774
C19   C     C_R   0.897975 0.083319 0.511730 0.128194
C20   C     C_R   0.102025 0.916681 0.488270 0.128193
C21   C     C_R   0.013893 0.935540 0.566552 -0.263108
C22   C     C_R   0.986107 0.064460 0.433448 -0.263108
H1    H     H_    0.784393 0.217871 0.477923 0.140661
H2    H     H_    0.215608 0.782129 0.522077 0.140660
H3    H     H_    0.636274 0.249900 0.610190 0.189839
H4    H     H_    0.363728 0.750101 0.389810 0.189838
C23   C     C_R   0.179224 0.975941 0.966105 -0.029064
C24   C     C_R   0.820776 0.024059 0.033895 -0.029066
C25   C     C_R   0.168332 0.039524 0.031327 -0.032623
C26   C     C_R   0.831668 0.960476 0.968673 -0.032621
H5    H     H_    0.301016 0.069241 0.054335 0.139363
H6    H     H_    0.698984 0.930759 0.945665 0.139363
C27   C     C_R   0.988977 0.064430 0.066192 -0.159814
C28   C     C_R   0.011023 0.935570 0.933808 -0.159813
C29   C     C_R   0.345512 0.505680 0.443691 0.402782
C30   C     C_R   0.654487 0.494320 0.556309 0.402782
C31   C     C_R   0.361390 0.568451 0.509482 -0.194410
C32   C     C_R   0.638610 0.431549 0.490518 -0.194412
C33   C     C_R   0.514373 0.564047 0.566494 -0.338134
C34   C     C_R   0.485627 0.435953 0.433506 -0.338133
C35   C     C_R   0.349558 0.501771 0.058090 -0.158875
C36   C     C_R   0.650443 0.498230 0.941911 -0.158885
H7    H     H_    0.235555 0.505349 0.104447 0.195088
H8    H     H_    0.764447 0.494651 0.895554 0.195084
C37   C     C_R   0.360184 0.570252 0.996565 0.404575
C38   C     C_R   0.639817 0.429750 0.003436 0.404581
C39   C     C_R   0.511228 0.567978 0.936628 -0.351385
C40   C     C_R   0.488772 0.432022 0.063373 -0.351386
N1    N     N_R   0.356651 0.854810 0.251314 0.249207
O21   O     O_R   0.347625 0.913176 0.190062 -0.410320
O22   O     O_R   0.444908 0.777105 0.239205 -0.334565
N2    N     N_R   0.643351 0.145190 0.748686 0.249206
O23   O     O_R   0.652376 0.086824 0.809938 -0.410321
O24   O     O_R   0.555094 0.222895 0.760795 -0.334564
N3    N     N_R   0.222788 0.644006 0.999022 0.241435
O25   O     O_R   0.043840 0.627688 0.019130 -0.376608
O26   O     O_R   0.281988 0.728631 0.995211 -0.386881
N4    N     N_R   0.777216 0.355997 0.000980 0.241436
O27   O     O_R   0.956170 0.372318 0.980885 -0.376615
O28   O     O_R   0.718020 0.271371 0.004786 -0.386877
H9    H     H_    0.844504 0.996318 0.709251 0.157875
H10   H     H_    0.155496 0.003682 0.290749 0.157875
H11   H     H_    0.319858 0.958485 0.941034 0.138115
H12   H     H_    0.680142 0.041515 0.058965 0.138115
N5    N     N_R   0.189696 0.516078 0.386331 0.233337
O29   O     O_R   0.183569 0.587920 0.338367 -0.381200
O30   O     O_R   0.036231 0.465490 0.394637 -0.378970
N6    N     N_R   0.810300 0.483922 0.613670 0.233336
O31   O     O_R   0.816414 0.412085 0.661641 -0.381198
O32   O     O_R   0.963773 0.534504 0.605361 -0.378971
H13   H     H_    0.252849 0.621375 0.515614 0.169450
H14   H     H_    0.747151 0.378625 0.484386 0.169449

loop_
_geom_bond_atom_site_label_1
_geom_bond_atom_site_label_2
_geom_bond_distance
_ccdc_geom_bond_type
C36   H8    1.083740 S    
C32   H14   1.081763 S    
O13   V3    1.708348 S    
C4    C39   1.490153 S    
O4    C2    1.297764 A    
V1    O19   1.707581 S    
C15   C17   1.417736 A    
N1    O22   1.301709 A    
O9    V1    2.004656 S    
C29   C34   1.414788 A    
C30   C33   1.414787 A    
C11   C13   1.397245 A    
N2    O24   1.301710 A    
O3    C1    1.297764 A    
C18   C22   1.420235 A    
O12   V4    2.002068 S    
C30   C32   1.402381 A    
N1    O21   1.301694 A    
C16   H10   1.080113 S    
C37   C39   1.418399 A    
O7    C3    1.301197 A    
C32   C34   1.405225 A    
C9    C11   1.391763 A    
O5    C7    1.295065 A    
O7    V1    1.998882 S    
C29   N5    1.430375 S    
O8    V2    1.998880 S    
C35   H7    1.083740 S    
C11   H3    1.082390 S    
O3    V1    2.005176 S    
O14   V4    1.708348 S    
N5    O30   1.300120 A    
C10   C12   1.391762 A    
C16   C18   1.417734 A    
C2    O12   1.299494 A    
C14   C16   1.402627 A    
C17   C19   1.422762 A    
C18   C20   1.422762 A    
O2    C4    1.296138 A    
O1    V3    2.003692 S    
C24   C26   1.400375 A    
O11   V3    2.002067 S    
C25   H5    1.082810 S    
O17   V3    2.004362 S    
C13   C15   1.402625 A    
C26   H6    1.082810 S    
C8    C21   1.490508 S    
C29   C31   1.402382 A    
C9    C19   1.413464 A    
C24   H12   1.082797 S    
C10   C20   1.413465 A    
N2    O23   1.301696 A    
O8    C4    1.301197 A    
C23   H11   1.082797 S    
N3    O26   1.301336 A    
C25   C27   1.408097 A    
C1    O11   1.299495 A    
O15   V3    2.000013 S    
C23   C25   1.400375 A    
C36   C39   1.404575 A    
O10   V2    2.004658 S    
N6    O32   1.300119 A    
C23   C28   1.406808 A    
C7    C22   1.490508 S    
C13   N2    1.441209 S    
O18   V4    2.004363 S    
N4    O28   1.301335 A    
O15   C5    1.300724 A    
C9    H1    1.078548 S    
O16   C6    1.300722 A    
C37   N3    1.436724 S    
O1    C3    1.296136 A    
C15   H9    1.080113 S    
C12   H4    1.082390 S    
C20   C21   1.421282 A    
V2    O20   1.707580 S    
C5    C27   1.489625 S    
O16   V4    2.000013 S    
C31   C33   1.405224 A    
C31   H13   1.081762 S    
O5    V1    2.000772 S    
C3    C40   1.490153 S    
O17   C7    1.297003 A    
C35   C40   1.404574 A    
O6    V2    2.000774 S    
O10   C6    1.297213 A    
C10   H2    1.078548 S    
O18   C8    1.297002 A    
O2    V4    2.003689 S    
C12   C14   1.397245 A    
V3    O19   2.158267 S    
V4    O20   2.158266 S    
C36   C38   1.405608 A    
C35   C37   1.405609 A    
O9    C5    1.297214 A    
N6    O31   1.300429 A    
O13   V1    2.157690 S    
O14   V2    2.157690 S    
C38   N4    1.436722 S    
C19   C22   1.421281 A    
C1    C34   1.489833 S    
C24   C27   1.406808 A    
C2    C33   1.489832 S    
N3    O25   1.301437 A    
O4    V2    2.005178 S    
O6    C8    1.295065 A    
C26   C28   1.408097 A    
C6    C28   1.489625 S    
N4    O27   1.301439 A    
C17   C21   1.420236 A    
C38   C40   1.418396 A    
N5    O29   1.300431 A    
C30   N6    1.430374 S    
C14   N1    1.441210 S    
