data_mof_unit_61813.cif
_audit_creation_date              2013-03-05T15:42:03-0500
_audit_creation_method            fapswitch 2.2
_symmetry_space_group_name_H-M    P1
_symmetry_Int_Tables_number       1
_space_group_crystal_system       triclinic
_cell_length_a                    26.316346
_cell_length_b                    26.22349
_cell_length_c                    22.407514
_cell_angle_alpha                 90.000199
_cell_angle_beta                  53.660437
_cell_angle_gamma                 90.000495
_cell_volume                      12456.2038192

loop_
_atom_site_label
_atom_site_type_symbol
_atom_site_description
_atom_site_fract_x
_atom_site_fract_y
_atom_site_fract_z
_atom_type_partial_charge
Zn1   Zn    Zn3+2 0.823660 0.707100 0.438580 0.982040
Zn2   Zn    Zn3+2 0.823660 0.292900 0.438580 0.980832
Zn3   Zn    Zn3+2 0.323660 0.207100 0.438580 0.979737
Zn4   Zn    Zn3+2 0.323660 0.792900 0.438580 0.982317
Zn5   Zn    Zn3+2 0.676410 0.707120 0.561420 0.984044
Zn6   Zn    Zn3+2 0.676410 0.292880 0.561420 0.983298
Zn7   Zn    Zn3+2 0.176410 0.207120 0.561420 0.984562
Zn8   Zn    Zn3+2 0.176410 0.792880 0.561420 0.984191
Zn9   Zn    Zn3+2 0.737810 0.792950 0.438580 0.967744
Zn10  Zn    Zn3+2 0.737810 0.207050 0.438580 0.968598
Zn11  Zn    Zn3+2 0.237810 0.292950 0.438580 0.969160
Zn12  Zn    Zn3+2 0.237810 0.707050 0.438580 0.967675
Zn13  Zn    Zn3+2 0.762240 0.792950 0.561420 0.994657
Zn14  Zn    Zn3+2 0.762240 0.207050 0.561420 0.997084
Zn15  Zn    Zn3+2 0.262240 0.292950 0.561420 0.995849
Zn16  Zn    Zn3+2 0.262240 0.707050 0.561420 0.994624
O1    O     O_3   0.750030 0.750030 0.500000 -0.494103
O2    O     O_3   0.750030 0.249970 0.500000 -0.494287
O3    O     O_3   0.250030 0.250030 0.500000 -0.494113
O4    O     O_3   0.250030 0.749970 0.500000 -0.494100
O5    O     O_R   0.698090 0.780090 0.663980 -0.620618
O6    O     O_R   0.698090 0.219910 0.663980 -0.617726
O7    O     O_R   0.198090 0.280090 0.663980 -0.618797
O8    O     O_R   0.198090 0.719910 0.663980 -0.620874
O9    O     O_R   0.862050 0.719970 0.336020 -0.623874
O10   O     O_R   0.862050 0.280030 0.336020 -0.625517
O11   O     O_R   0.362050 0.219970 0.336020 -0.627870
O12   O     O_R   0.362050 0.780030 0.336020 -0.623679
O13   O     O_R   0.698510 0.635460 0.542990 -0.640342
O14   O     O_R   0.698510 0.364540 0.542990 -0.640823
O15   O     O_R   0.198510 0.135460 0.542990 -0.640166
O16   O     O_R   0.198510 0.864540 0.542990 -0.640332
O17   O     O_R   0.741470 0.864610 0.457010 -0.643113
O18   O     O_R   0.741470 0.135390 0.457010 -0.643183
O19   O     O_R   0.241470 0.364610 0.457010 -0.643416
O20   O     O_R   0.241470 0.635390 0.457010 -0.642951
O21   O     O_R   0.613960 0.720010 0.542990 -0.633635
O22   O     O_R   0.613960 0.279990 0.542990 -0.633575
O23   O     O_R   0.113960 0.220010 0.542990 -0.633248
O24   O     O_R   0.113960 0.779990 0.542990 -0.633898
O25   O     O_R   0.843120 0.780070 0.542990 -0.635432
O26   O     O_R   0.843120 0.219930 0.542990 -0.634419
O27   O     O_R   0.343120 0.280070 0.542990 -0.634919
O28   O     O_R   0.343120 0.719930 0.542990 -0.635120
O29   O     O_R   0.656940 0.780080 0.457010 -0.655065
O30   O     O_R   0.656940 0.219920 0.457010 -0.654650
O31   O     O_R   0.156940 0.280080 0.457010 -0.654866
O32   O     O_R   0.156940 0.719920 0.457010 -0.654829
O33   O     O_R   0.886110 0.719980 0.457010 -0.641708
O34   O     O_R   0.886110 0.280020 0.457010 -0.642233
O35   O     O_R   0.386110 0.219980 0.457010 -0.642219
O36   O     O_R   0.386110 0.780020 0.457010 -0.641894
O37   O     O_R   0.801570 0.635440 0.457010 -0.638189
O38   O     O_R   0.801570 0.364560 0.457010 -0.637967
O39   O     O_R   0.301570 0.135440 0.457010 -0.638732
O40   O     O_R   0.301570 0.864560 0.457010 -0.637807
O41   O     O_R   0.758570 0.864610 0.542990 -0.640016
O42   O     O_R   0.758570 0.135390 0.542990 -0.639374
O43   O     O_R   0.258570 0.364610 0.542990 -0.639774
O44   O     O_R   0.258570 0.635390 0.542990 -0.640226
O45   O     O_R   0.638020 0.720010 0.663980 -0.642687
O46   O     O_R   0.638020 0.279990 0.663980 -0.643623
O47   O     O_R   0.138020 0.220010 0.663980 -0.643422
O48   O     O_R   0.138020 0.779990 0.663980 -0.642342
O49   O     O_R   0.801960 0.780050 0.336020 -0.644616
O50   O     O_R   0.801960 0.219950 0.336020 -0.644214
O51   O     O_R   0.301960 0.280050 0.336020 -0.643090
O52   O     O_R   0.301960 0.719950 0.336020 -0.644865
C1    C     C_R   0.650516 0.749975 0.698888 0.823106
C2    C     C_R   0.650514 0.250021 0.698888 0.821152
C3    C     C_R   0.150514 0.249978 0.698887 0.821980
C4    C     C_R   0.150514 0.750023 0.698888 0.823077
C5    C     C_R   0.849523 0.749928 0.301124 0.824114
C6    C     C_R   0.849522 0.250072 0.301124 0.825699
C7    C     C_R   0.349522 0.249929 0.301124 0.826844
C8    C     C_R   0.349522 0.750074 0.301123 0.824125
C9    C     C_R   0.750010 0.611373 0.500273 0.866555
C10   C     C_R   0.749942 0.388627 0.499876 0.864894
C11   C     C_R   0.250010 0.111372 0.500274 0.867170
C12   C     C_R   0.249942 0.888627 0.499875 0.865285
C13   C     C_R   0.750267 0.888586 0.499849 0.852104
C14   C     C_R   0.749786 0.111414 0.500259 0.851607
C15   C     C_R   0.250268 0.388586 0.499848 0.851678
C16   C     C_R   0.249785 0.611414 0.500260 0.851525
C17   C     C_R   0.610705 0.750760 0.501576 0.844108
C18   C     C_R   0.610710 0.249243 0.501569 0.844785
C19   C     C_R   0.110709 0.250757 0.501571 0.845427
C20   C     C_R   0.110706 0.749241 0.501575 0.843999
C21   C     C_R   0.889051 0.750040 0.499225 0.859563
C22   C     C_R   0.889054 0.249956 0.499220 0.858839
C23   C     C_R   0.389054 0.250046 0.499219 0.859432
C24   C     C_R   0.389051 0.749961 0.499226 0.859743
C25   C     C_2   0.050820 0.726807 0.455708 -0.185506
C26   C     C_2   0.050854 0.273128 0.455645 -0.184673
C27   C     C_2   0.550867 0.226899 0.455620 -0.185257
C28   C     C_2   0.550813 0.773208 0.455721 -0.185780
C29   C     C_2   0.050551 0.742941 0.512919 0.029412
C30   C     C_2   0.050562 0.257050 0.512893 0.028415
C31   C     C_2   0.550566 0.242949 0.512885 0.028622
C32   C     C_2   0.550548 0.757061 0.512924 0.029168
H1    H     H_    0.095423 0.718327 0.402829 0.153420
H2    H     H_    0.095469 0.281560 0.402753 0.153936
H3    H     H_    0.595486 0.218492 0.402720 0.153470
H4    H     H_    0.595414 0.781698 0.402845 0.153348
C33   C     C_2   0.993457 0.717919 0.460425 0.196585
C34   C     C_2   0.993505 0.282028 0.460338 0.196797
C35   C     C_2   0.493521 0.217992 0.460308 0.197062
C36   C     C_2   0.493448 0.782093 0.460442 0.197062
C37   C     C_2   0.947560 0.753750 0.492315 -0.305925
C38   C     C_2   0.947567 0.246232 0.492300 -0.305119
C39   C     C_2   0.447567 0.253774 0.492299 -0.305792
C40   C     C_2   0.447559 0.746255 0.492318 -0.306023
H5    H     H_    0.953932 0.788721 0.513036 0.148221
H6    H     H_    0.953906 0.211275 0.513075 0.148781
H7    H     H_    0.453894 0.288726 0.513097 0.148340
H8    H     H_    0.453936 0.711282 0.513029 0.148196
C41   C     C_3   0.034661 0.741821 0.042135 -0.113472
C42   C     C_3   0.033301 0.264723 0.042152 -0.114500
C43   C     C_3   0.531587 0.229978 0.042162 -0.113844
C44   C     C_3   0.534659 0.758292 0.042126 -0.112562
C45   C     C_3   0.955530 0.802019 0.043863 -0.016802
C46   C     C_3   0.962012 0.195532 0.043790 -0.017388
C47   C     C_3   0.467484 0.305817 0.043731 -0.017270
C48   C     C_3   0.455549 0.698023 0.043867 -0.016097
C49   C     C_3   0.000692 0.803345 0.957196 0.031306
C50   C     C_3   0.007537 0.194414 0.957132 0.030979
C51   C     C_3   0.513093 0.306708 0.957071 0.031703
C52   C     C_3   0.500525 0.696745 0.957190 0.031609
H9    H     H_    0.905960 0.802996 0.062573 0.186375
H10   H     H_    0.912912 0.189775 0.062266 0.186379
H11   H     H_    0.419145 0.315500 0.062214 0.186300
H12   H     H_    0.405922 0.696951 0.062777 0.186299
H13   H     H_    0.036551 0.833558 0.938261 0.233986
H14   H     H_    0.046939 0.167773 0.938391 0.234057
H15   H     H_    0.554981 0.330253 0.938290 0.233945
H16   H     H_    0.536302 0.666432 0.938055 0.233796
C53   C     C_1   0.110779 0.750263 0.778026 -0.100936
C54   C     C_1   0.110817 0.249706 0.778023 -0.100713
C55   C     C_1   0.610839 0.250313 0.778025 -0.100634
C56   C     C_1   0.610779 0.749732 0.778027 -0.100877
C57   C     C_3   0.963469 0.750239 0.073562 0.113876
C58   C     C_3   0.963522 0.249679 0.073563 0.114006
C59   C     C_3   0.463562 0.250313 0.073562 0.113894
C60   C     C_3   0.463475 0.749822 0.073561 0.113753
C61   C     C_3   0.076829 0.740156 0.955221 0.127890
C62   C     C_3   0.075174 0.266545 0.955256 0.127196
C63   C     C_3   0.573289 0.228339 0.955269 0.127239
C64   C     C_3   0.576880 0.759653 0.955201 0.128391
C65   C     C_3   0.036302 0.751144 0.926256 0.058526
C66   C     C_3   0.036474 0.248743 0.926252 0.058897
C67   C     C_3   0.536600 0.251309 0.926250 0.058614
C68   C     C_3   0.536294 0.748869 0.926259 0.058060
C69   C     C_3   0.986785 0.707596 0.955812 -0.517949
C70   C     C_3   0.981784 0.287595 0.955888 -0.518825
C71   C     C_3   0.478268 0.216590 0.955933 -0.518514
C72   C     C_3   0.486925 0.792537 0.955795 -0.517007
C73   C     C_3   0.944532 0.704201 0.043302 0.378509
C74   C     C_3   0.939260 0.291251 0.043361 0.378754
C75   C     C_3   0.435376 0.212842 0.043411 0.378443
C76   C     C_3   0.444528 0.795851 0.043303 0.377975
C77   C     C_1   0.077292 0.750602 0.844635 0.011549
C78   C     C_1   0.077383 0.249329 0.844632 0.012675
C79   C     C_1   0.577445 0.250709 0.844632 0.012776
C80   C     C_1   0.577288 0.749396 0.844637 0.010596
C81   C     C_1   0.922643 0.749898 0.155382 0.006851
C82   C     C_1   0.922665 0.250055 0.155382 0.006888
C83   C     C_1   0.422675 0.249941 0.155383 0.007124
C84   C     C_1   0.422641 0.750140 0.155381 0.007023
C85   C     C_1   0.889271 0.749832 0.222007 -0.113995
C86   C     C_1   0.889284 0.250148 0.222007 -0.114040
C87   C     C_1   0.389284 0.249853 0.222007 -0.114142
C88   C     C_1   0.389267 0.750184 0.222006 -0.113908
H17   H     H_    0.011424 0.671245 0.928770 0.224892
H18   H     H_    0.001728 0.325045 0.928800 0.224467
H19   H     H_    0.494484 0.178688 0.928888 0.224353
H20   H     H_    0.511744 0.828848 0.928839 0.225020
H21   H     H_    0.037624 0.703167 0.060330 0.199289
H22   H     H_    0.031479 0.304454 0.060742 0.200452
H23   H     H_    0.525797 0.189695 0.060767 0.200851
H24   H     H_    0.537649 0.797056 0.060001 0.198933
H25   H     H_    0.093356 0.699897 0.939454 0.140474
H26   H     H_    0.086311 0.307641 0.939888 0.142121
H27   H     H_    0.580375 0.187106 0.939918 0.142226
H28   H     H_    0.593809 0.799802 0.939111 0.139407
H29   H     H_    0.957640 0.713478 0.935481 0.201868
H30   H     H_    0.953586 0.276753 0.935710 0.202073
H31   H     H_    0.451324 0.231158 0.935743 0.202480
H32   H     H_    0.457859 0.786861 0.935318 0.202118
C89   C     C_2   0.742601 0.028065 0.457024 -0.159272
C90   C     C_2   0.740647 0.971934 0.458689 -0.158038
C91   C     C_2   0.242602 0.528065 0.457022 -0.159293
C92   C     C_2   0.240637 0.471934 0.458698 -0.158325
C93   C     C_2   0.748019 0.056112 0.503058 -0.285541
C94   C     C_2   0.752464 0.943888 0.499271 -0.286261
C95   C     C_2   0.248007 0.556112 0.503068 -0.286215
C96   C     C_2   0.252475 0.443889 0.499260 -0.286311
H33   H     H_    0.738677 0.046701 0.416614 0.177645
H34   H     H_    0.729689 0.953297 0.424276 0.177767
H35   H     H_    0.238695 0.546701 0.416599 0.177650
H36   H     H_    0.229656 0.453297 0.424306 0.177790
H37   H     H_    0.750429 0.039193 0.545304 0.156812
H38   H     H_    0.765121 0.960809 0.532782 0.155462
H39   H     H_    0.250391 0.539190 0.545332 0.156514
H40   H     H_    0.265163 0.460812 0.532742 0.155444
C97   C     C_2   0.801102 0.471936 0.458628 -0.143207
C98   C     C_2   0.800826 0.528062 0.456949 -0.142224
C99   C     C_2   0.301103 0.971935 0.458635 -0.142863
C100  C     C_2   0.300826 0.028062 0.456953 -0.142679
C101  C     C_2   0.748327 0.443912 0.499309 -0.289185
C102  C     C_2   0.748976 0.556089 0.503129 -0.292926
C103  C     C_2   0.248327 0.943912 0.499306 -0.288422
C104  C     C_2   0.248977 0.056089 0.503133 -0.292154
H41   H     H_    0.846772 0.453277 0.424144 0.181688
H42   H     H_    0.845482 0.546716 0.416415 0.184547
H43   H     H_    0.346774 0.953277 0.424160 0.181793
H44   H     H_    0.345483 0.046716 0.416417 0.183535
H45   H     H_    0.701855 0.460829 0.532913 0.153268
H46   H     H_    0.703990 0.539175 0.545548 0.153440
H47   H     H_    0.201855 0.960829 0.532898 0.153397
H48   H     H_    0.203992 0.039175 0.545556 0.153487
C105  C     C_3   0.964674 0.819912 0.925531 -0.936770
H49   H     H_    0.925402 0.793628 0.942032 0.250601
H50   H     H_    0.944257 0.858478 0.946675 0.254887
H51   H     H_    0.996868 0.822284 0.864169 0.264439
C106  C     C_3   0.974183 0.171422 0.925248 -0.936172
H52   H     H_    0.931897 0.193601 0.941630 0.250617
H53   H     H_    0.006782 0.169225 0.863893 0.264366
H54   H     H_    0.958644 0.131931 0.946362 0.254619
C107  C     C_3   0.482236 0.334458 0.925175 -0.937866
H55   H     H_    0.437927 0.315756 0.941588 0.250593
H56   H     H_    0.470622 0.374251 0.946247 0.254346
H57   H     H_    0.515035 0.336450 0.863819 0.264199
C108  C     C_3   0.464301 0.680411 0.925692 -0.937626
H58   H     H_    0.425106 0.706810 0.942303 0.250911
H59   H     H_    0.496394 0.678066 0.864323 0.264394
H60   H     H_    0.443761 0.641875 0.946831 0.254770
N1    N     N_R   0.953769 0.654780 0.068127 0.220826
O53   O     O_R   0.000190 0.624213 0.022803 -0.396727
O54   O     O_R   0.915871 0.641595 0.137566 -0.368375
N2    N     N_R   0.942556 0.342943 0.068056 0.220444
O55   O     O_R   0.985217 0.376059 0.022633 -0.396160
O56   O     O_R   0.903193 0.355748 0.137484 -0.369488
N3    N     N_R   0.433478 0.159854 0.068169 0.220396
O57   O     O_R   0.472729 0.124911 0.022779 -0.395829
O58   O     O_R   0.392884 0.147586 0.137616 -0.370853
N4    N     N_R   0.453574 0.845281 0.068302 0.220969
O59   O     O_R   0.499913 0.875950 0.023105 -0.396762
O60   O     O_R   0.415553 0.858389 0.137762 -0.368057
C109  C     C_3   0.874145 0.705888 0.072701 -0.859158
H61   H     H_    0.861919 0.669982 0.057529 0.265107
H62   H     H_    0.842067 0.709343 0.133950 0.251805
H63   H     H_    0.863782 0.737458 0.048569 0.205241
C110  C     C_3   0.869427 0.282923 0.072920 -0.860166
H64   H     H_    0.853034 0.316182 0.057780 0.264501
H65   H     H_    0.862917 0.248865 0.048856 0.205536
H66   H     H_    0.837838 0.279381 0.134174 0.252271
C111  C     C_3   0.366637 0.226585 0.072964 -0.859663
H67   H     H_    0.347071 0.195861 0.057861 0.264627
H68   H     H_    0.335405 0.230207 0.134215 0.252684
H69   H     H_    0.363587 0.262311 0.048865 0.205378
C112  C     C_3   0.374184 0.794059 0.072555 -0.858151
H70   H     H_    0.361913 0.829949 0.057400 0.265454
H71   H     H_    0.363946 0.762478 0.048321 0.205208
H72   H     H_    0.342048 0.790546 0.133794 0.251729
C113  C     C_3   0.991033 0.749122 0.591192 -0.838647
H73   H     H_    0.000753 0.740919 0.632193 0.240347
H74   H     H_    0.973510 0.788893 0.600200 0.243917
H75   H     H_    0.953775 0.721900 0.603084 0.252097
C114  C     C_3   0.991036 0.250934 0.591174 -0.838103
H76   H     H_    0.000769 0.259124 0.632166 0.240349
H77   H     H_    0.953828 0.278199 0.603027 0.251530
H78   H     H_    0.973442 0.211183 0.600233 0.244816
C115  C     C_3   0.491037 0.249027 0.591171 -0.837152
H79   H     H_    0.500778 0.240830 0.632154 0.240582
H80   H     H_    0.473416 0.288770 0.600267 0.244173
H81   H     H_    0.453849 0.221747 0.603000 0.252000
C116  C     C_3   0.491032 0.750866 0.591196 -0.838226
H82   H     H_    0.500750 0.759072 0.632198 0.240408
H83   H     H_    0.453765 0.778080 0.603096 0.252167
H84   H     H_    0.473522 0.711091 0.600194 0.243882
C117  C     C_3   0.990531 0.669186 0.426651 -0.790503
H85   H     H_    0.031650 0.644315 0.407963 0.220531
H86   H     H_    0.947228 0.647469 0.468290 0.241289
H87   H     H_    0.991531 0.677839 0.377469 0.254088
C118  C     C_3   0.990642 0.330730 0.426457 -0.792410
H88   H     H_    0.031802 0.355569 0.407695 0.220576
H89   H     H_    0.991613 0.322028 0.377307 0.254000
H90   H     H_    0.947376 0.352500 0.468054 0.240763
C119  C     C_3   0.490678 0.169301 0.426393 -0.792297
H91   H     H_    0.531850 0.144472 0.407608 0.220583
H92   H     H_    0.447424 0.147513 0.467977 0.241601
H93   H     H_    0.491639 0.178017 0.377253 0.253151
C120  C     C_3   0.490511 0.830832 0.426687 -0.791491
H94   H     H_    0.531623 0.855709 0.408014 0.220494
H95   H     H_    0.491517 0.822187 0.377500 0.254063
H96   H     H_    0.447201 0.852539 0.468333 0.241054
N5    N     N_R   0.134281 0.771684 0.919047 0.226133
O61   O     O_R   0.189255 0.749603 0.880943 -0.371049
O62   O     O_R   0.131859 0.821204 0.922934 -0.416938
N6    N     N_R   0.136466 0.240480 0.918724 0.226136
O63   O     O_R   0.188168 0.267205 0.881328 -0.368630
O64   O     O_R   0.140661 0.191233 0.921390 -0.416554
N7    N     N_R   0.636932 0.250045 0.918731 0.226228
O65   O     O_R   0.685853 0.220214 0.881292 -0.367579
O66   O     O_R   0.645928 0.298498 0.921418 -0.417687
N8    N     N_R   0.633991 0.727733 0.919325 0.226169
O67   O     O_R   0.689214 0.749406 0.880590 -0.371661
O68   O     O_R   0.631011 0.678257 0.924309 -0.417875
C121  C     C_3   0.060126 0.775483 0.075656 -0.758191
H97   H     H_    0.028911 0.773349 0.137048 0.221825
H98   H     H_    0.107191 0.761203 0.056946 0.255209
H99   H     H_    0.065856 0.815759 0.059305 0.280771
C122  C     C_3   0.062646 0.236048 0.075219 -0.756916
H100  H     H_    0.107401 0.255028 0.057219 0.255315
H101  H     H_    0.030985 0.237328 0.136650 0.222950
H102  H     H_    0.073895 0.195993 0.057713 0.280660
C123  C     C_3   0.563538 0.253941 0.075223 -0.757858
H103  H     H_    0.606263 0.231524 0.057183 0.255290
H104  H     H_    0.578693 0.293571 0.057762 0.280316
H105  H     H_    0.531769 0.252703 0.136649 0.223557
C124  C     C_3   0.560066 0.724980 0.076027 -0.758562
H106  H     H_    0.529132 0.727827 0.137367 0.221507
H107  H     H_    0.565160 0.684515 0.060738 0.280566
H108  H     H_    0.607393 0.739030 0.056660 0.255375
C125  C     C_3   0.960647 0.851728 0.077269 -0.897242
H109  H     H_    0.009563 0.866126 0.046404 0.264802
H110  H     H_    0.933314 0.882323 0.073725 0.240685
H111  H     H_    0.940934 0.847406 0.136519 0.252514
C126  C     C_3   0.972670 0.148783 0.077364 -0.896750
H112  H     H_    0.023014 0.138402 0.046689 0.264217
H113  H     H_    0.952229 0.154296 0.136654 0.251741
H114  H     H_    0.949185 0.114952 0.073738 0.240861
C127  C     C_3   0.482649 0.349618 0.077239 -0.897278
H115  H     H_    0.533850 0.356459 0.046560 0.264317
H116  H     H_    0.462666 0.385795 0.073543 0.240931
H117  H     H_    0.461597 0.343238 0.136543 0.251238
C128  C     C_3   0.460958 0.648340 0.077067 -0.898422
H118  H     H_    0.509956 0.634100 0.046043 0.265765
H119  H     H_    0.441331 0.652623 0.136296 0.252308
H120  H     H_    0.433707 0.617662 0.073526 0.240514

loop_
_geom_bond_atom_site_label_1
_geom_bond_atom_site_label_2
_geom_bond_distance
_ccdc_geom_bond_type
Zn5   O21   1.946819 S    
C43   C59   1.578410 S    
C44   C60   1.578274 S    
O23   C19   1.270005 A    
C128  H118  1.105907 S    
N7    O66   1.300382 A    
C127  H115  1.105693 S    
C117  H87   1.110097 S    
Zn16  O4    1.946342 S    
C70   C74   1.582333 S    
O42   C14   1.275876 A    
C61   N5    1.474483 S    
C95   H39   1.080809 S    
C16   C95   1.451125 S    
C69   H17   1.109355 S    
C51   C107  1.545190 S    
C115  H81   1.110112 S    
C93   H37   1.080780 S    
O46   C2    1.281544 A    
C65   C69   1.554985 S    
C62   C66   1.569057 S    
O34   C22   1.268454 A    
C68   C72   1.555075 S    
C33   C117  1.510264 S    
Zn3   O3    1.937939 S    
C67   C71   1.554910 S    
C60   C76   1.601844 S    
Zn16  O28   1.942488 S    
C20   C29   1.456415 S    
O28   C24   1.279867 A    
C98   H42   1.086422 S    
C121  H98   1.111163 S    
C28   C36   1.468070 S    
Zn4   O40   1.937855 S    
C43   H23   1.112482 S    
C58   C74   1.601941 S    
O11   C7    1.281737 A    
C46   C126  1.548426 S    
C41   H21   1.112405 S    
C81   C85   1.202575 T    
C11   C104  1.450685 S    
C63   N7    1.474556 S    
C91   C92   1.472553 S    
C25   H1    1.087616 S    
C83   C87   1.202568 T    
C104  H48   1.080795 S    
C43   C123  1.545605 S    
C123  H105  1.109396 S    
C107  H55   1.107805 S    
O16   C12   1.270668 A    
N7    O65   1.301238 A    
C100  C104  1.341428 D    
Zn12  O4    1.946490 S    
N8    O67   1.301330 A    
Zn13  O5    1.909739 S    
Zn2   O10   1.914241 S    
C18   C31   1.456372 S    
C49   C65   1.569317 S    
C57   C73   1.601887 S    
Zn6   O14   1.937894 S    
C42   C122  1.545621 S    
O47   C3    1.281529 A    
C44   C64   1.569970 S    
Zn7   O3    1.937471 S    
C114  H77   1.110105 S    
C128  H120  1.111396 S    
N6    O63   1.301283 A    
C110  H65   1.107820 S    
C127  H117  1.108286 S    
C89   H33   1.086366 S    
O43   C15   1.275877 A    
C73   C109  1.555920 S    
C36   C120  1.510261 S    
C62   N6    1.474503 S    
C120  H96   1.110586 S    
C101  H45   1.080779 S    
O24   C20   1.269999 A    
Zn11  O19   1.938622 S    
C118  H89   1.110095 S    
C71   H31   1.110662 S    
C53   C77   1.202316 T    
Zn10  O2    1.946490 S    
C27   C31   1.345998 D    
C92   H36   1.086378 S    
Zn9   O49   1.909930 S    
Zn4   O4    1.937925 S    
C50   H14   1.106159 S    
C124  H106  1.109690 S    
Zn7   O23   1.946819 S    
Zn8   O24   1.946814 S    
C43   C63   1.569990 S    
O25   C21   1.279864 A    
C32   C116  1.516574 S    
C34   C118  1.510255 S    
C106  H54   1.110954 S    
Zn12  O52   1.909928 S    
C109  H61   1.111459 S    
C120  H94   1.111145 S    
O22   C18   1.270015 A    
C107  H57   1.109758 S    
C112  H70   1.111460 S    
C122  H101  1.109450 S    
Zn13  O41   1.938672 S    
O50   C6    1.281443 A    
C61   H25   1.116433 S    
C48   H12   1.109126 S    
C111  H67   1.111439 S    
Zn16  O44   1.938667 S    
C125  H110  1.111369 S    
Zn1   O37   1.937848 S    
C14   C93   1.451114 S    
Zn2   O34   1.946776 S    
C51   C67   1.569665 S    
Zn3   O39   1.937848 S    
C52   C68   1.568942 S    
Zn6   O22   1.946814 S    
C108  H58   1.107571 S    
C38   H6    1.084856 S    
C75   C111  1.555976 S    
C116  H82   1.110984 S    
C99   C103  1.341442 D    
N5    O62   1.300520 A    
C125  H109  1.105816 S    
C27   H3    1.087620 S    
C106  H52   1.107809 S    
Zn3   O11   1.914241 S    
Zn10  O50   1.909928 S    
C30   C114  1.516560 S    
C106  H53   1.109769 S    
C41   C121  1.545654 S    
C70   H18   1.109407 S    
C71   C75   1.582343 S    
C72   C76   1.582539 S    
O5    C1    1.281534 A    
O26   C22   1.279855 A    
O31   C19   1.276226 A    
C63   C67   1.569041 S    
C45   C49   1.565161 S    
C105  H49   1.107701 S    
C58   C82   1.476895 S    
C98   C102  1.341425 D    
C47   C51   1.565132 S    
C124  H108  1.111170 S    
Zn7   O47   1.914331 S    
C119  H91   1.111127 S    
Zn5   O45   1.914331 S    
C113  H74   1.109428 S    
C59   C83   1.476919 S    
C9    C102  1.450679 S    
Zn8   O48   1.914330 S    
C42   H22   1.112503 S    
C82   C86   1.202570 T    
C96   H40   1.080817 S    
C25   C29   1.345993 D    
C40   H8    1.084872 S    
O8    C4    1.281530 A    
C52   C108  1.545235 S    
C33   C37   1.352586 D    
N4    O59   1.302269 A    
C109  H63   1.107669 S    
C35   C39   1.352564 D    
C64   C68   1.569142 S    
C112  H72   1.109663 S    
C49   C105  1.545229 S    
C117  H86   1.110585 S    
C103  H47   1.080784 S    
Zn1   O1    1.937939 S    
O40   C12   1.272887 A    
Zn13  O1    1.946334 S    
C111  H69   1.107766 S    
Zn14  O6    1.909741 S    
C116  H83   1.110105 S    
Zn15  O27   1.942494 S    
C50   C66   1.569702 S    
C28   C32   1.345994 D    
N2    O55   1.302389 A    
C115  H80   1.109404 S    
O9    C5    1.281723 A    
C108  H60   1.110982 S    
C91   C95   1.341499 D    
C48   C128  1.548118 S    
C89   C93   1.341507 D    
O51   C7    1.281442 A    
C47   C127  1.548367 S    
C116  H84   1.109431 S    
C46   C58   1.579308 S    
O18   C14   1.278170 A    
C56   C80   1.202329 T    
Zn9   O29   1.942185 S    
Zn11  O31   1.942185 S    
Zn12  O32   1.942191 S    
Zn13  O25   1.942494 S    
Zn15  O3    1.946334 S    
Zn11  O3    1.946499 S    
C92   C96   1.341497 D    
C51   H15   1.106186 S    
C105  H51   1.109775 S    
C52   H16   1.106241 S    
Zn5   O1    1.937471 S    
C26   C30   1.345998 D    
O45   C1    1.281517 A    
N3    O57   1.302315 A    
C94   H38   1.080781 S    
C119  H93   1.110097 S    
C41   C61   1.569995 S    
C126  H112  1.105725 S    
C123  H104  1.098724 S    
O10   C6    1.281724 A    
O35   C23   1.268466 A    
N8    O68   1.300595 A    
O32   C20   1.276251 A    
C48   C52   1.565197 S    
C19   C30   1.456383 S    
C1    C56   1.428450 S    
C127  H116  1.111328 S    
C97   H41   1.086430 S    
C2    C55   1.428432 S    
C114  H76   1.110978 S    
Zn9   O17   1.938622 S    
C66   C78   1.473315 S    
C75   N3    1.485996 S    
C128  H119  1.108323 S    
N6    O64   1.300526 A    
C3    C54   1.428416 S    
C72   H32   1.110758 S    
Zn14  O42   1.938667 S    
C62   H26   1.116363 S    
C99   C100  1.472449 S    
C45   C57   1.579559 S    
Zn2   O38   1.937855 S    
O33   C21   1.268443 A    
O19   C15   1.278179 A    
C24   C40   1.456604 S    
C64   N8    1.474417 S    
C121  H97   1.109531 S    
C36   C40   1.352589 D    
C41   C57   1.578343 S    
C118  H88   1.111136 S    
O7    C3    1.281503 A    
C110  H66   1.109645 S    
O39   C11   1.272910 A    
C44   C124  1.545706 S    
C99   H43   1.086432 S    
C27   C35   1.468062 S    
C73   N1    1.486074 S    
Zn4   O36   1.946776 S    
O36   C24   1.268437 A    
C50   C106  1.545205 S    
O52   C8    1.281479 A    
C5    C85   1.428041 S    
O12   C8    1.281697 A    
C90   H34   1.086364 S    
C71   H19   1.109385 S    
C72   H20   1.109305 S    
Zn3   O35   1.946771 S    
C47   H11   1.108969 S    
Zn15  O43   1.938672 S    
C45   H9    1.109053 S    
C59   C75   1.601904 S    
C57   C81   1.476910 S    
Zn6   O46   1.914330 S    
C44   H24   1.112324 S    
C107  H56   1.110969 S    
C45   C125  1.548271 S    
C122  H100  1.111137 S    
C110  H64   1.111454 S    
C29   C113  1.516571 S    
C55   C79   1.202300 T    
C69   C73   1.582448 S    
C89   C90   1.472562 S    
C84   C88   1.202579 T    
C105  H50   1.110976 S    
C114  H78   1.109423 S    
C61   C65   1.569098 S    
O38   C10   1.272888 A    
Zn2   O2    1.937925 S    
N5    O61   1.301294 A    
Zn14  O2    1.946342 S    
O37   C9    1.272909 A    
C31   C115  1.516543 S    
C97   C98   1.472449 S    
Zn8   O4    1.937485 S    
C60   C84   1.476896 S    
O21   C17   1.269999 A    
C91   H35   1.086374 S    
C118  H90   1.110569 S    
C21   C37   1.456607 S    
O49   C5    1.281463 A    
C70   H30   1.110667 S    
C8    C88   1.428049 S    
C23   C39   1.456624 S    
C15   C96   1.451126 S    
C25   C33   1.468068 S    
C13   C94   1.451110 S    
C124  H107  1.098594 S    
Zn1   O33   1.946771 S    
Zn10  O30   1.942191 S    
Zn12  O20   1.938626 S    
C113  H73   1.110984 S    
C37   H5    1.084878 S    
Zn14  O26   1.942488 S    
Zn15  O7    1.909739 S    
Zn16  O8    1.909741 S    
Zn1   O9    1.914241 S    
Zn4   O12   1.914241 S    
Zn11  O51   1.909930 S    
Zn5   O13   1.937901 S    
Zn6   O2    1.937485 S    
N4    O60   1.302359 A    
C109  H62   1.109658 S    
Zn7   O15   1.937901 S    
Zn8   O16   1.937894 S    
C42   C62   1.570029 S    
C54   C78   1.202315 T    
C112  H71   1.107570 S    
C122  H102  1.098728 S    
N3    O58   1.302352 A    
C117  H85   1.111145 S    
O27   C23   1.279851 A    
C111  H68   1.109670 S    
C46   C50   1.565128 S    
C125  H111  1.108313 S    
O29   C17   1.276254 A    
C97   C101  1.341443 D    
C64   H28   1.116490 S    
C49   H13   1.106215 S    
N2    O56   1.302368 A    
C115  H79   1.110960 S    
C126  H113  1.108290 S    
O13   C9    1.270653 A    
Zn10  O18   1.938626 S    
C108  H59   1.109788 S    
C10   C101  1.450657 S    
C68   C80   1.473326 S    
C12   C103  1.450656 S    
Zn9   O1    1.946499 S    
C4    C53   1.428441 S    
C67   C79   1.473299 S    
N1    O54   1.302351 A    
C7    C87   1.428037 S    
C76   C112  1.555883 S    
C126  H114  1.111380 S    
O41   C13   1.275876 A    
C22   C38   1.456617 S    
C34   C38   1.352569 D    
C121  H99   1.098648 S    
C63   H27   1.116368 S    
C26   C34   1.468067 S    
C76   N4    1.486152 S    
C42   C58   1.578399 S    
O15   C11   1.270655 A    
C102  H46   1.080793 S    
C28   H4    1.087617 S    
C74   C110  1.555990 S    
C120  H95   1.110093 S    
C17   C32   1.456426 S    
O44   C16   1.275878 A    
C69   H29   1.110723 S    
O20   C16   1.278176 A    
C119  H92   1.110563 S    
O6    C2    1.281517 A    
O48   C4    1.281535 A    
C123  H103  1.111108 S    
C113  H75   1.110108 S    
C6    C86   1.428041 S    
C90   C94   1.341506 D    
O14   C10   1.270667 A    
C65   C77   1.473309 S    
C100  H44   1.086421 S    
C66   C70   1.554902 S    
C47   C59   1.579312 S    
C48   C60   1.579811 S    
C39   H7    1.084863 S    
N1    O53   1.302295 A    
O17   C13   1.278172 A    
C46   H10   1.108960 S    
C35   C119  1.510249 S    
C26   H2    1.087619 S    
C74   N2    1.485971 S    
O30   C18   1.276215 A    
