data_mof_unit_15934.cif
_audit_creation_date              2012-12-10T16:50:56-0500
_audit_creation_method            fapswitch 2.2
_symmetry_space_group_name_H-M    P1
_symmetry_Int_Tables_number       1
_space_group_crystal_system       triclinic
_cell_length_a                    8.042623
_cell_length_b                    8.546858
_cell_length_c                    10.547256
_cell_angle_alpha                 90.998078
_cell_angle_beta                  88.187219
_cell_angle_gamma                 92.775526
_cell_volume                      723.704907993

loop_
_atom_site_label
_atom_site_type_symbol
_atom_type_description
_atom_site_fract_x
_atom_site_fract_y
_atom_site_fract_z
_atom_type_partial_charge
C1    C     C_R   0.544121 0.793099 0.497034 0.941660
C2    C     C_R   0.936797 0.507364 0.076528 -0.063992
C3    C     C_R   0.069666 0.598874 0.027293 -0.142996
C4    C     C_R   0.930323 0.400818 0.972602 -0.143052
C5    C     C_R   0.210588 0.612133 0.101128 -0.217820
C6    C     C_R   0.789390 0.387592 0.898780 -0.217797
C7    C     C_R   0.351926 0.536362 0.060872 0.095447
C8    C     C_R   0.648054 0.463337 0.939077 0.095441
C9    C     C_R   0.352464 0.457396 0.943794 0.087944
C10   C     C_R   0.647528 0.542277 0.056163 0.087934
C11   C     C_R   0.498529 0.553932 0.125361 -0.245110
C12   C     C_R   0.455879 0.206901 0.502966 0.941617
C13   C     C_R   0.501459 0.445826 0.874592 -0.245122
C14   C     C_2   0.566826 0.957008 0.495165 -0.382381
C15   C     C_2   0.433174 0.042992 0.504837 -0.382370
C16   C     C_R   0.501120 0.479144 0.738601 0.872144
C17   C     C_R   0.498876 0.520810 0.261389 0.872105
C18   C     C_R   0.202237 0.409851 0.891633 -0.200297
C19   C     C_R   0.797776 0.589818 0.108295 -0.200241
C20   C     C_R   0.063209 0.492315 0.923372 -0.063954
H1    H     H_    0.960712 0.281794 0.995924 0.148533
H2    H     H_    0.306251 0.993635 0.514265 0.182665
H3    H     H_    0.008828 0.381941 0.404767 0.186771
H4    H     H_    0.991172 0.618059 0.595232 0.186766
H5    H     H_    0.039256 0.717889 0.003957 0.148511
H6    H     H_    0.196393 0.325990 0.813081 0.158380
H7    H     H_    0.803669 0.673759 0.186787 0.158389
H8    H     H_    0.033513 0.550465 0.835956 0.166156
H9    H     H_    0.966509 0.449200 0.163932 0.166143
H10   H     H_    0.213426 0.693705 0.181070 0.160029
H11   H     H_    0.786548 0.306083 0.818801 0.160037
H12   H     H_    0.693749 0.006365 0.485737 0.182665
N1    N     N_2   0.950330 0.457950 0.466250 -0.192283
N2    N     N_2   0.049670 0.542050 0.533750 -0.192293
O1    O     O_R   0.389250 0.738570 0.508280 -0.609418
O2    O     O_R   0.610750 0.261430 0.491720 -0.609433
O3    O     O_R   0.678390 0.711630 0.486650 -0.632204
O4    O     O_R   0.321610 0.288370 0.513350 -0.632227
O5    O     O_R   0.355430 0.513480 0.694040 -0.615061
O6    O     O_R   0.644570 0.486520 0.305960 -0.615057
O7    O     O_R   0.644570 0.486540 0.672410 -0.618469
O8    O     O_R   0.355430 0.513460 0.327590 -0.618459
Zn1   Zn    Zn3+2 0.306940 0.517990 0.514440 0.920349
Zn2   Zn    Zn3+2 0.693060 0.482010 0.485560 0.920352

loop_
_geom_bond_atom_site_label_1
_geom_bond_atom_site_label_2
_ccdc_geom_bond_type
C2    C4    A    
C5    C7    A    
C8    C13   A    
C12   O2    A    
O1    Zn1   S    
C18   H6    S    
C12   C15   S    
C1    O3    A    
C10   C19   A    
O3    Zn2   S    
C2    C3    A    
C3    C20   A    
C7    C11   A    
C4    H1    S    
C2    H9    S    
C6    C8    A    
C4    C6    A    
N1    N2    D    
C18   C20   A    
C12   O4    A    
C14   C15   D    
O7    Zn2   S    
O4    Zn1   S    
O2    Zn2   S    
C10   C11   A    
C16   O5    A    
C4    C20   A    
C9    C18   A    
O6    Zn2   S    
C3    H5    S    
C19   H7    S    
C1    O1    A    
C8    C10   A    
C5    H10   S    
O8    Zn1   S    
C13   C16   S    
C7    C9    A    
C9    C13   A    
C17   O8    A    
C11   C17   S    
C6    H11   S    
C1    C14   S    
C20   H8    S    
H3    N1    S    
C2    C19   A    
O5    Zn1   S    
N1    Zn2   S    
C16   O7    A    
C15   H2    S    
H4    N2    S    
N2    Zn1   S    
C14   H12   S    
C3    C5    A    
C17   O6    A    
