data_mof_unit_35316.cif
_audit_creation_date              2012-12-10T19:24:57-0500
_audit_creation_method            fapswitch 2.2
_symmetry_space_group_name_H-M    P1
_symmetry_Int_Tables_number       1
_space_group_crystal_system       triclinic
_cell_length_a                    15.71566
_cell_length_b                    10.489968
_cell_length_c                    9.786063
_cell_angle_alpha                 89.249281
_cell_angle_beta                  89.909914
_cell_angle_gamma                 90.192181
_cell_volume                      1613.14907987

loop_
_atom_site_label
_atom_site_type_symbol
_atom_type_description
_atom_site_fract_x
_atom_site_fract_y
_atom_site_fract_z
_atom_type_partial_charge
C1    C     C_R   0.499742 0.257820 0.500933 0.989151
C2    C     C_R   0.500259 0.742180 0.499067 0.989149
C3    C     C_3   0.570383 0.958375 0.561153 0.480493
C4    C     C_3   0.429620 0.041625 0.438849 0.480524
C5    C     C_3   0.500288 0.876996 0.496847 -0.257960
C6    C     C_3   0.499715 0.123004 0.503153 -0.257952
C7    C     C_3   0.431835 0.956693 0.566964 0.467001
C8    C     C_3   0.568168 0.043306 0.433036 0.467001
C9    C     C_3   0.481875 0.389956 0.048696 0.683161
C10   C     C_3   0.518125 0.610044 0.951304 0.683152
C11   C     C_3   0.555915 0.420093 0.951890 -0.263250
C12   C     C_3   0.444085 0.579907 0.048109 -0.263269
C13   C     C_3   0.425597 0.467810 0.952024 -0.245098
C14   C     C_3   0.574403 0.532190 0.047976 -0.245082
C15   C     C_R   0.338187 0.499780 0.500061 0.900088
C16   C     C_R   0.661813 0.500220 0.499939 0.900087
C17   C     C_3   0.971662 0.379510 0.506549 0.105094
C18   C     C_3   0.028338 0.620489 0.493450 0.105082
C19   C     C_3   0.028036 0.433805 0.389587 -0.391003
C20   C     C_3   0.971963 0.566194 0.610412 -0.391017
C21   C     C_1   0.249344 0.499246 0.500160 -0.146824
C22   C     C_1   0.750656 0.500753 0.499839 -0.146829
C23   C     C_3   0.027449 0.444455 0.613966 0.598800
C24   C     C_3   0.972551 0.555544 0.386032 0.598800
C25   C     C_3   0.083247 0.499365 0.499068 -0.000195
C26   C     C_3   0.916753 0.500634 0.500931 -0.000192
C27   C     C_1   0.174087 0.498973 0.499853 0.033695
C28   C     C_1   0.825913 0.501026 0.500147 0.033691
C29   C     C_3   0.501963 0.037963 0.633871 -0.449376
C30   C     C_3   0.498040 0.962038 0.366129 -0.449338
H1    H     H_    0.053026 0.379660 0.301548 0.168186
H2    H     H_    0.946974 0.620337 0.698451 0.168187
H3    H     H_    0.503669 0.073277 0.740059 0.167985
H4    H     H_    0.496333 0.926727 0.259940 0.167989
H5    H     H_    0.602396 0.353387 0.906320 0.145216
H6    H     H_    0.397604 0.646613 0.093680 0.145212
H7    H     H_    0.363749 0.439091 0.907006 0.163759
H8    H     H_    0.636250 0.560909 0.092994 0.163763
N1    N     N_3   0.499940 0.500030 0.863290 -0.119803
N2    N     N_3   0.500060 0.499970 0.136710 -0.119804
O1    O     O_R   0.500000 0.313960 0.616610 -0.662027
O2    O     O_R   0.500000 0.686040 0.383390 -0.662025
O3    O     O_R   0.500040 0.313950 0.383350 -0.519933
O4    O     O_R   0.499960 0.686050 0.616650 -0.519940
O5    O     O_R   0.376760 0.499990 0.616610 -0.615417
O6    O     O_R   0.623240 0.500010 0.383390 -0.615413
O7    O     O_R   0.376790 0.499980 0.383350 -0.608356
O8    O     O_R   0.623210 0.500020 0.616650 -0.608354
Zn1   Zn    Zn3+2 0.499980 0.500010 0.655740 1.008117
Zn2   Zn    Zn3+2 0.500020 0.499990 0.344260 1.008123
C31   C     C_3   0.937615 0.243595 0.513462 -0.862663
H9    H     H_    0.991401 0.175945 0.524117 0.253692
H10   H     H_    0.894060 0.231872 0.602052 0.226702
H11   H     H_    0.902097 0.222598 0.418399 0.244106
C32   C     C_3   0.062385 0.756404 0.486541 -0.862667
H12   H     H_    0.008600 0.824054 0.475874 0.253687
H13   H     H_    0.097895 0.777403 0.581611 0.244116
H14   H     H_    0.105948 0.768126 0.397961 0.226697
O9    O     O_3   0.936186 0.617531 0.271434 -0.596965
C33   C     C_3   0.995491 0.621217 0.163495 -0.319316
H15   H     H_    0.005633 0.524268 0.122351 0.155918
H16   H     H_    0.057149 0.663951 0.194997 0.162359
H17   H     H_    0.969386 0.681404 0.079589 0.189642
O10   O     O_3   0.063812 0.382464 0.728564 -0.596963
C34   C     C_3   0.004513 0.378802 0.836510 -0.319296
H18   H     H_    0.942839 0.336109 0.805013 0.162348
H19   H     H_    0.994400 0.475757 0.877666 0.155923
H20   H     H_    0.030607 0.318590 0.920405 0.189644
O11   O     O_3   0.643169 0.901818 0.620041 -0.582700
C35   C     C_3   0.692300 0.996501 0.683683 -0.265908
H21   H     H_    0.657492 0.039003 0.770841 0.142937
H22   H     H_    0.712622 0.072144 0.609840 0.181977
H23   H     H_    0.750717 0.951549 0.725303 0.184139
O12   O     O_3   0.356832 0.098183 0.379969 -0.582673
C36   C     C_3   0.307701 0.003501 0.316323 -0.265799
H24   H     H_    0.287377 0.927858 0.390165 0.182001
H25   H     H_    0.342510 0.960999 0.229166 0.142886
H26   H     H_    0.249285 0.048456 0.274701 0.184121
O13   O     O_3   0.360982 0.898196 0.630820 -0.601798
C37   C     C_3   0.317267 0.989205 0.708356 -0.274184
H27   H     H_    0.301375 0.075910 0.646864 0.185508
H28   H     H_    0.354690 0.015097 0.800165 0.153661
H29   H     H_    0.256475 0.946410 0.744340 0.183459
O14   O     O_3   0.639012 0.101811 0.369163 -0.601781
C38   C     C_3   0.682790 0.010762 0.291766 -0.274235
H30   H     H_    0.645377 0.984656 0.200011 0.153649
H31   H     H_    0.698765 0.924180 0.353406 0.185595
H32   H     H_    0.743543 0.053620 0.255687 0.183460
O15   O     O_3   0.459709 0.272305 0.110692 -0.544875
C39   C     C_3   0.460949 0.175877 0.012134 -0.324899
H33   H     H_    0.527248 0.155837 0.979320 0.142666
H34   H     H_    0.420418 0.200436 0.922488 0.144895
H35   H     H_    0.435012 0.087132 0.058989 0.190046
O16   O     O_3   0.540293 0.727694 0.889307 -0.544884
C40   C     C_3   0.539033 0.824127 0.987858 -0.324895
H36   H     H_    0.579544 0.799572 0.077527 0.144898
H37   H     H_    0.472727 0.844168 0.020633 0.142652
H38   H     H_    0.564981 0.912869 0.941011 0.190064

loop_
_geom_bond_atom_site_label_1
_geom_bond_atom_site_label_2
_ccdc_geom_bond_type
O4    Zn1   S    
C32   H12   S    
C7    C29   S    
C40   H36   S    
C15   O7    A    
C19   H1    S    
C17   C31   S    
C40   H38   S    
C38   H30   S    
C17   C23   S    
C33   H17   S    
C18   C24   S    
C17   C26   S    
C3    O11   S    
C24   C26   S    
C37   H29   S    
C11   C14   S    
C10   O16   S    
C29   H3    S    
C33   H16   S    
C3    C29   S    
C9    C13   S    
C1    O3    A    
C2    O4    A    
C34   H19   S    
C35   H21   S    
C12   H6    S    
C13   H7    S    
C21   C27   T    
O9    C33   S    
C22   C28   T    
C16   O8    A    
O16   C40   S    
C18   C25   S    
C4    C7    S    
O1    Zn1   S    
O7    Zn2   S    
C38   H31   S    
O12   C36   S    
C30   H4    S    
C1    C6    S    
O14   C38   S    
C37   H28   S    
C3    C8    S    
C10   C14   S    
C16   O6    A    
C5    C7    S    
C6    C8    S    
C9    N2    S    
C31   H9    S    
C10   N1    S    
C31   H10   S    
C12   N2    S    
C36   H24   S    
C14   H8    S    
C36   H25   S    
C39   H34   S    
C20   C23   S    
O5    Zn1   S    
C34   H20   S    
C35   H23   S    
C11   N1    S    
C9    C11   S    
C10   C12   S    
C18   C32   S    
O2    Zn2   S    
C1    O1    A    
C23   O10   S    
N1    Zn1   S    
C32   H13   S    
C4    C6    S    
C15   O5    A    
C9    O15   S    
C39   H35   S    
C7    O13   S    
C5    C30   S    
C20   H2    S    
C38   H32   S    
O8    Zn1   S    
C16   C22   S    
C8    O14   S    
C4    O12   S    
C37   H27   S    
C3    C5    S    
C40   H37   S    
O3    Zn2   S    
C25   C27   S    
O6    Zn2   S    
C26   C28   S    
C31   H11   S    
C8    C30   S    
O10   C34   S    
C11   H5    S    
C19   C24   S    
C39   H33   S    
C20   C26   S    
C2    O2    A    
C24   O9    S    
N2    Zn2   S    
C17   C19   S    
C18   C20   S    
C23   C25   S    
O11   C35   S    
C19   C25   S    
C36   H26   S    
C13   N1    S    
C14   N2    S    
O13   C37   S    
C2    C5    S    
C15   C21   S    
C6    C29   S    
C12   C13   S    
C34   H18   S    
C32   H14   S    
C33   H15   S    
C35   H22   S    
O15   C39   S    
C4    C30   S    
