data_mof_unit_53352.cif
_audit_creation_date              2012-12-10T18:58:16-0500
_audit_creation_method            fapswitch 2.2
_symmetry_space_group_name_H-M    P1
_symmetry_Int_Tables_number       1
_space_group_crystal_system       triclinic
_cell_length_a                    11.01487
_cell_length_b                    10.881915
_cell_length_c                    9.537129
_cell_angle_alpha                 90.819867
_cell_angle_beta                  101.969937
_cell_angle_gamma                 89.912789
_cell_volume                      1118.17606352

loop_
_atom_site_label
_atom_site_type_symbol
_atom_type_description
_atom_site_fract_x
_atom_site_fract_y
_atom_site_fract_z
_atom_type_partial_charge
C1    C     C_R   0.494212 0.262258 0.496740 0.863922
C2    C     C_R   0.492755 0.128333 0.491289 -0.163312
C3    C     C_R   0.485595 0.058072 0.362286 0.392701
C4    C     C_R   0.497354 0.930628 0.370870 -0.233396
C5    C     C_R   0.508697 0.870401 0.501881 -0.088995
C6    C     C_R   0.523484 0.940312 0.627928 0.008045
C7    C     C_3   0.458903 0.931760 0.750686 -0.377529
C8    C     C_3   0.437763 0.069592 0.737816 0.276532
C9    C     C_R   0.605286 0.528930 0.099361 0.265700
C10   C     C_R   0.399393 0.461229 0.049442 0.049082
C11   C     C_R   0.399854 0.460097 0.901004 0.013185
C12   C     C_R   0.262938 0.502564 0.442710 0.958513
C13   C     C_R   0.605480 0.528203 0.951935 0.248962
C14   C     C_3   0.676589 0.645445 0.963812 -0.475784
C15   C     C_3   0.674794 0.647601 0.122572 -0.483801
C16   C     C_R   0.502214 0.737480 0.501330 0.862247
C17   C     C_R   0.737351 0.502650 0.557264 0.828575
C18   C     C_2   0.128158 0.498260 0.412590 -0.415586
C19   C     C_2   0.061174 0.555615 0.496610 0.460415
C20   C     C_2   0.871529 0.520157 0.586389 -0.241555
C21   C     C_2   0.930226 0.523070 0.476732 -0.224599
C22   C     C_R   0.510851 0.066273 0.621233 -0.051166
Cu1   Cu    Cu3+1 0.499990 0.499980 0.640670 1.025984
Cu2   Cu    Cu3+1 0.500010 0.500020 0.359330 1.027279
H1    H     H_    0.881835 0.497623 0.368984 0.151675
H2    H     H_    0.484203 0.123189 0.834053 0.149005
H3    H     H_    0.318018 0.429187 0.826012 0.198011
H4    H     H_    0.771010 0.631976 0.941895 0.209670
H5    H     H_    0.622609 0.720855 0.903461 0.217685
H6    H     H_    0.768524 0.637433 0.191766 0.205610
H7    H     H_    0.618615 0.724139 0.154103 0.222320
H8    H     H_    0.920912 0.537918 0.695758 0.189983
H9    H     H_    0.489195 0.877340 0.272762 0.201983
H10   H     H_    0.373635 0.874585 0.726394 0.279728
H11   H     H_    0.523898 0.907591 0.851773 0.172928
N1    N     N_R   0.500780 0.500930 0.148120 -0.194131
N2    N     N_R   0.500790 0.500890 0.852210 -0.205311
O1    O     O_R   0.500000 0.319640 0.618810 -0.577472
O2    O     O_R   0.500010 0.319680 0.381230 -0.506078
O3    O     O_R   0.320680 0.500000 0.575130 -0.525193
O4    O     O_R   0.320690 0.500040 0.337550 -0.592708
O5    O     O_R   0.499990 0.680320 0.618770 -0.571407
O6    O     O_R   0.500000 0.680360 0.381190 -0.603055
O7    O     O_R   0.679310 0.499960 0.662450 -0.592751
O8    O     O_R   0.679320 0.500000 0.424870 -0.582320
H12   H     H_    0.316627 0.432516 0.083874 0.180229
S1    S     S_3+6 0.119852 0.680584 0.613081 0.027776
O9    O     O_2   0.182104 0.632916 0.757125 -0.316940
O10   O     O_2   0.211550 0.752237 0.550083 -0.289714
O11   O     O_3   0.002545 0.773837 0.633165 -0.515137
H13   H     H_    0.042216 0.840652 0.698396 0.411060
H14   H     H_    0.083379 0.435879 0.327421 0.130126
S2    S     S_3+6 0.443636 0.119024 0.186800 -0.008188
O12   O     O_2   0.549610 0.192844 0.154768 -0.277550
O13   O     O_2   0.412906 0.017844 0.076177 -0.322858
O14   O     O_3   0.318350 0.209545 0.176145 -0.545761
H15   H     H_    0.255437 0.157194 0.206883 0.359544
S3    S     S_3+6 0.276104 0.105688 0.676256 0.034555
O15   O     O_2   0.259582 0.240789 0.648735 -0.328989
O16   O     O_2   0.224463 0.035883 0.539803 -0.221067
O17   O     O_3   0.197253 0.065507 0.801760 -0.474571
H16   H     H_    0.218716 0.129066 0.878251 0.383893

loop_
_geom_bond_atom_site_label_1
_geom_bond_atom_site_label_2
_ccdc_geom_bond_type
C2    C22   A    
C9    N1    A    
C8    C22   S    
Cu1   Cu2   S    
C12   O3    A    
C12   O4    A    
Cu1   N2    S    
Cu1   O1    S    
C8    H2    S    
C13   N2    A    
S1    O9    D    
C11   H3    S    
C8    S3    S    
Cu2   O2    S    
S3    O17   S    
O11   H13   S    
C9    C15   S    
C17   O7    A    
C18   H14   S    
C7    C8    S    
S1    O10   D    
Cu2   N1    S    
C13   C14   S    
O14   H15   S    
C15   H7    S    
Cu2   O4    S    
C3    S2    S    
C16   O6    A    
C6    C7    S    
Cu1   O5    S    
C21   H1    S    
C1    O1    A    
C5    C6    A    
Cu2   O8    S    
C19   C21   S    
C17   O8    A    
C2    C3    A    
S1    O11   S    
S2    O13   D    
O17   H16   S    
C7    H10   S    
C19   S1    S    
C10   C11   A    
C1    O2    A    
C14   H5    S    
S3    O16   D    
C3    C4    A    
C6    C22   A    
C16   O5    A    
C10   H12   S    
C17   C20   S    
C20   C21   D    
C15   H6    S    
C1    C2    S    
C20   H8    S    
S2    O14   S    
C12   C18   S    
C11   N2    A    
Cu2   O6    S    
C9    C13   A    
C14   C15   S    
C18   C19   D    
C5    C16   S    
C10   N1    A    
C14   H4    S    
S3    O15   D    
C4    H9    S    
C7    H11   S    
Cu1   O7    S    
Cu1   O3    S    
S2    O12   D    
C4    C5    A    
