data_mof_unit_64393.cif
_audit_creation_date              2013-03-05T16:14:15-0500
_audit_creation_method            fapswitch 2.2
_symmetry_space_group_name_H-M    P1
_symmetry_Int_Tables_number       1
_space_group_crystal_system       triclinic
_cell_length_a                    44.840758
_cell_length_b                    39.02386
_cell_length_c                    21.954771
_cell_angle_alpha                 90.017571
_cell_angle_beta                  60.363475
_cell_angle_gamma                 89.956142
_cell_volume                      33391.9269258

loop_
_atom_site_label
_atom_site_type_symbol
_atom_site_description
_atom_site_fract_x
_atom_site_fract_y
_atom_site_fract_z
_atom_type_partial_charge
O1    O     O_R   0.049910 0.528880 0.450120 -0.583836
O2    O     O_R   0.950090 0.528880 0.549880 -0.581517
O3    O     O_R   0.549910 0.028880 0.450120 -0.582592
O4    O     O_R   0.450090 0.028880 0.549880 -0.583457
O5    O     O_R   0.049900 0.471110 0.450110 -0.584104
O6    O     O_R   0.950100 0.471110 0.549890 -0.583291
O7    O     O_R   0.549900 0.971110 0.450110 -0.583921
O8    O     O_R   0.450100 0.971110 0.549890 -0.589002
C1    C     C_R   0.066102 0.499984 0.434553 0.794711
C2    C     C_R   0.933914 0.500015 0.565596 0.796741
C3    C     C_R   0.566101 0.999984 0.434549 0.796012
C4    C     C_R   0.433762 0.000076 0.564835 0.793889
O9    O     O_R   0.999990 0.528880 0.589040 -0.564398
O10   O     O_R   0.000010 0.528880 0.410960 -0.556795
O11   O     O_R   0.499990 0.028880 0.589040 -0.563669
O12   O     O_R   0.500010 0.028880 0.410960 -0.564929
O13   O     O_R   0.999990 0.471110 0.589030 -0.605914
O14   O     O_R   0.000010 0.471110 0.410970 -0.607162
O15   O     O_R   0.499990 0.971110 0.589030 -0.605807
O16   O     O_R   0.500010 0.971110 0.410970 -0.605799
C5    C     C_R   0.999090 0.500299 0.618615 0.818485
C6    C     C_R   0.001537 0.500234 0.380792 0.817063
C7    C     C_R   0.499095 0.000299 0.618611 0.823154
C8    C     C_R   0.500965 0.000290 0.381327 0.819805
Cu1   Cu    Cu3+1 0.000000 0.534200 0.500000 0.955119
Cu2   Cu    Cu3+1 0.500000 0.034200 0.500000 0.950828
Cu3   Cu    Cu3+1 0.000000 0.465790 0.500000 0.939037
Cu4   Cu    Cu3+1 0.500000 0.965790 0.500000 0.935831
C9    C     C_2   0.977193 0.477233 0.805423 0.183780
C10   C     C_2   0.021354 0.475748 0.195623 0.187637
C11   C     C_2   0.477223 0.977212 0.805398 0.182671
C12   C     C_2   0.522749 0.977064 0.194573 0.183515
C13   C     C_2   0.002070 0.490930 0.815310 -0.330212
C14   C     C_2   0.998049 0.492655 0.185052 -0.325448
C15   C     C_2   0.502078 0.990944 0.815304 -0.330832
C16   C     C_2   0.497945 0.990990 0.184684 -0.329634
H1    H     H_    0.026582 0.496915 0.769741 0.149300
H2    H     H_    0.974705 0.501856 0.230227 0.154306
H3    H     H_    0.526583 0.996962 0.769746 0.149311
H4    H     H_    0.473485 0.997188 0.230251 0.149618
C17   C     C_2   0.982955 0.475639 0.733080 -0.253591
C18   C     C_2   0.015995 0.474340 0.267712 -0.249878
C19   C     C_2   0.482988 0.975625 0.733052 -0.250801
C20   C     C_2   0.517013 0.975505 0.266905 -0.253464
C21   C     C_2   0.994825 0.502745 0.689162 0.092492
C22   C     C_2   0.007253 0.502394 0.309009 0.084941
C23   C     C_2   0.494835 0.002742 0.689154 0.092308
C24   C     C_2   0.505347 0.002717 0.310671 0.093319
H5    H     H_    0.976406 0.451973 0.716353 0.152580
H6    H     H_    0.019496 0.449832 0.286818 0.153455
H7    H     H_    0.476462 0.951953 0.716304 0.151907
H8    H     H_    0.523357 0.951760 0.283779 0.152295
C25   C     C_R   0.378115 0.487454 0.071455 -0.185482
C26   C     C_R   0.622015 0.488778 0.929163 -0.185467
C27   C     C_R   0.878115 0.987458 0.071447 -0.185380
C28   C     C_R   0.121910 0.004141 0.932957 -0.189245
H9    H     H_    0.391775 0.476720 0.019147 0.147848
H10   H     H_    0.608446 0.478798 0.982077 0.148611
H11   H     H_    0.891776 0.976733 0.019131 0.147907
H12   H     H_    0.108334 0.007610 0.989264 0.152863
C29   C     C_R   0.342328 0.487788 0.106691 -0.167302
C30   C     C_R   0.657800 0.489314 0.893892 -0.166884
C31   C     C_R   0.842328 0.987790 0.106684 -0.167266
C32   C     C_R   0.157661 0.004116 0.897503 -0.159596
H13   H     H_    0.329071 0.476948 0.081336 0.139740
H14   H     H_    0.671142 0.479377 0.919845 0.139484
H15   H     H_    0.829072 0.976956 0.081320 0.139783
H16   H     H_    0.171054 0.007328 0.926802 0.134445
C33   C     C_R   0.323832 0.501870 0.174183 0.097098
C34   C     C_R   0.676191 0.502416 0.825586 0.096990
C35   C     C_R   0.823831 0.001861 0.174186 0.097056
C36   C     C_R   0.176002 0.999890 0.824668 0.095081
C37   C     C_R   0.341731 0.514394 0.206968 -0.166152
C38   C     C_R   0.658211 0.513792 0.792124 -0.166647
C39   C     C_R   0.841730 0.014374 0.206981 -0.166096
C40   C     C_R   0.158344 0.995267 0.787551 -0.173614
H17   H     H_    0.327953 0.525152 0.259245 0.131253
H18   H     H_    0.671924 0.523775 0.739220 0.131532
H19   H     H_    0.827951 0.025123 0.259265 0.131326
H20   H     H_    0.172311 0.991909 0.731199 0.135199
C41   C     C_R   0.377558 0.513424 0.172270 -0.189606
C42   C     C_R   0.622392 0.512669 0.826933 -0.189303
C43   C     C_R   0.877556 0.013406 0.172282 -0.189532
C44   C     C_R   0.122543 0.995437 0.822915 -0.186910
H21   H     H_    0.390816 0.523508 0.198349 0.146636
H22   H     H_    0.609082 0.521877 0.800279 0.147600
H23   H     H_    0.890813 0.023482 0.198369 0.146702
H24   H     H_    0.109427 0.991970 0.793123 0.152025
C45   C     C_R   0.396030 0.500247 0.103951 -0.026950
C46   C     C_R   0.603997 0.500437 0.895993 -0.028139
C47   C     C_R   0.896030 0.000242 0.103952 -0.027063
C48   C     C_R   0.103999 0.999905 0.895978 -0.032921
C49   C     C_R   0.268084 0.488042 0.278869 -0.215345
C50   C     C_R   0.731985 0.487470 0.722017 -0.215034
C51   C     C_R   0.768083 0.988024 0.278863 -0.215240
C52   C     C_R   0.231493 0.970330 0.754785 -0.215889
H25   H     H_    0.281998 0.477121 0.302881 0.147515
H26   H     H_    0.718112 0.475515 0.698924 0.147696
H27   H     H_    0.781996 0.977097 0.302869 0.147541
H28   H     H_    0.217605 0.947223 0.757015 0.149974
C53   C     C_R   0.232355 0.487150 0.315659 -0.182520
C54   C     C_R   0.767716 0.486595 0.685338 -0.182424
C55   C     C_R   0.732354 0.987134 0.315653 -0.182496
C56   C     C_R   0.267228 0.969643 0.719526 -0.181020
H29   H     H_    0.219288 0.475834 0.367463 0.141243
H30   H     H_    0.780814 0.474212 0.634547 0.141004
H31   H     H_    0.719286 0.975812 0.367452 0.141240
H32   H     H_    0.280426 0.946155 0.694197 0.139792
C57   C     C_R   0.213618 0.500302 0.285512 0.045104
C58   C     C_R   0.786411 0.501095 0.714368 0.045688
C59   C     C_R   0.713617 0.000296 0.285513 0.045063
C60   C     C_R   0.285747 0.999284 0.715409 0.048562
C61   C     C_R   0.230989 0.514865 0.218493 -0.179427
C62   C     C_R   0.768956 0.516973 0.780157 -0.179634
C63   C     C_R   0.730989 0.014867 0.218501 -0.179285
C64   C     C_R   0.268018 0.029515 0.747927 -0.187991
H33   H     H_    0.216309 0.526304 0.196692 0.142997
H34   H     H_    0.783565 0.529419 0.801049 0.142753
H35   H     H_    0.716309 0.026313 0.196707 0.143091
H36   H     H_    0.282233 0.052575 0.744308 0.140799
C65   C     C_R   0.267003 0.516333 0.180907 0.278594
C66   C     C_R   0.732934 0.518374 0.817635 0.278736
C67   C     C_R   0.767003 0.016333 0.180916 0.278548
C68   C     C_R   0.232075 0.030470 0.784377 0.280095
C69   C     C_R   0.285841 0.502430 0.211477 0.014081
C70   C     C_R   0.714170 0.503123 0.788209 0.013934
C71   C     C_R   0.785840 0.002420 0.211479 0.014101
C72   C     C_R   0.213692 0.000492 0.787239 0.013245
C73   C     C_R   0.157504 0.485375 0.294571 -0.167425
C74   C     C_R   0.842495 0.488124 0.707428 -0.166298
C75   C     C_R   0.657503 0.985376 0.294566 -0.167326
C76   C     C_R   0.342298 0.972567 0.683620 -0.170993
H37   H     H_    0.170958 0.474129 0.242694 0.138072
H38   H     H_    0.829002 0.478651 0.760754 0.137593
H39   H     H_    0.670958 0.974133 0.242685 0.137993
H40   H     H_    0.329233 0.951688 0.719536 0.136960
C77   C     C_R   0.121723 0.485107 0.331446 -0.234819
C78   C     C_R   0.878274 0.487621 0.670664 -0.235582
C79   C     C_R   0.621723 0.985110 0.331439 -0.234644
C80   C     C_R   0.378055 0.973118 0.646866 -0.233313
H41   H     H_    0.107992 0.473801 0.307400 0.140301
H42   H     H_    0.891965 0.477955 0.696217 0.138042
H43   H     H_    0.607991 0.973808 0.307388 0.139793
H44   H     H_    0.391858 0.952517 0.655175 0.156070
C81   C     C_R   0.103730 0.499970 0.398189 -0.018042
C82   C     C_R   0.896317 0.500103 0.601928 -0.016626
C83   C     C_R   0.603730 0.999969 0.398186 -0.018409
C84   C     C_R   0.395869 0.000253 0.601187 -0.037948
C85   C     C_R   0.121937 0.514559 0.429082 0.178383
C86   C     C_R   0.878212 0.512582 0.569050 0.180051
C87   C     C_R   0.621936 0.014552 0.429085 0.178334
C88   C     C_R   0.377031 0.026794 0.591166 0.174922
C89   C     C_R   0.157943 0.513983 0.392107 -0.153248
C90   C     C_R   0.842202 0.512325 0.606071 -0.152725
C91   C     C_R   0.657942 0.013974 0.392112 -0.153042
C92   C     C_R   0.341099 0.025909 0.628746 -0.162077
H45   H     H_    0.172175 0.525166 0.415194 0.131866
H46   H     H_    0.828052 0.521913 0.581422 0.131551
H47   H     H_    0.672175 0.025153 0.415203 0.131906
H48   H     H_    0.326575 0.045995 0.621064 0.131240
C93   C     C_R   0.175808 0.499740 0.324715 0.069284
C94   C     C_R   0.824245 0.500404 0.675349 0.069273
C95   C     C_R   0.675808 0.999735 0.324715 0.069291
C96   C     C_R   0.323595 0.999161 0.675425 0.075933
O17   O     O_R   0.971110 0.450090 0.028870 -0.594299
O18   O     O_R   0.028890 0.450090 0.971130 -0.594517
O19   O     O_R   0.471110 0.950090 0.028870 -0.594964
O20   O     O_R   0.528890 0.950090 0.971130 -0.595139
C97   C     C_R   0.000017 0.433715 0.000019 0.774157
C98   C     C_R   0.500016 0.933714 0.999989 0.773200
O21   O     O_R   0.971120 0.500000 0.939830 -0.576492
O22   O     O_R   0.028880 0.500000 0.060170 -0.575723
O23   O     O_R   0.471120 1.000000 0.939830 -0.576509
O24   O     O_R   0.528880 1.000000 0.060170 -0.576607
O25   O     O_R   0.028890 0.500000 0.882090 -0.591443
O26   O     O_R   0.971110 0.500000 0.117910 -0.591208
O27   O     O_R   0.528890 1.000000 0.882090 -0.591533
O28   O     O_R   0.471110 1.000000 0.117910 -0.591194
C99   C     C_R   0.000210 0.496847 0.882675 0.859078
C100  C     C_R   0.999784 0.497357 0.117486 0.854761
C101  C     C_R   0.500212 0.996850 0.882675 0.859127
C102  C     C_R   0.499795 0.996856 0.117320 0.858861
Cu5   Cu    Cu3+1 0.965790 0.500000 0.034190 0.933496
Cu6   Cu    Cu3+1 0.034210 0.500000 0.965810 0.933774
Cu7   Cu    Cu3+1 0.465790 1.000000 0.034190 0.934439
Cu8   Cu    Cu3+1 0.534210 1.000000 0.965810 0.933524
O29   O     O_R   0.971120 0.549910 0.028870 -0.588214
O30   O     O_R   0.028880 0.549910 0.971130 -0.587776
O31   O     O_R   0.471120 0.049910 0.028870 -0.587557
O32   O     O_R   0.528880 0.049910 0.971130 -0.587700
C103  C     C_R   0.999984 0.566247 0.000010 0.821486
C104  C     C_R   0.499984 0.066247 0.000009 0.822980
O33   O     O_R   0.499990 0.450020 0.051430 -0.587878
O34   O     O_R   0.500010 0.450020 0.948570 -0.588054
O35   O     O_R   0.999990 0.950020 0.051430 -0.586289
O36   O     O_R   0.000010 0.950020 0.948570 -0.589391
C105  C     C_R   0.499995 0.433719 0.999997 0.791325
C106  C     C_R   0.999994 0.933719 0.999998 0.791910
O37   O     O_R   0.450090 0.499930 0.101420 -0.586284
O38   O     O_R   0.549910 0.499930 0.898580 -0.586589
O39   O     O_R   0.950090 0.999930 0.101420 -0.586296
O40   O     O_R   0.049910 0.999930 0.898580 -0.588809
O41   O     O_R   0.450100 0.500000 0.998350 -0.586838
O42   O     O_R   0.549900 0.500000 0.001650 -0.587095
O43   O     O_R   0.950100 1.000000 0.998350 -0.586786
O44   O     O_R   0.049900 1.000000 0.001650 -0.588721
C107  C     C_R   0.433806 0.500028 0.066275 0.781465
C108  C     C_R   0.566203 0.500059 0.933713 0.781769
C109  C     C_R   0.933806 0.000027 0.066275 0.781425
C110  C     C_R   0.066205 0.999968 0.933715 0.784971
Cu9   Cu    Cu3+1 0.499990 0.499920 0.061020 0.935299
Cu10  Cu    Cu3+1 0.500010 0.499920 0.938980 0.935265
Cu11  Cu    Cu3+1 0.999990 0.999920 0.061020 0.934905
Cu12  Cu    Cu3+1 0.000010 0.999920 0.938980 0.934716
O45   O     O_R   0.500000 0.549840 0.051640 -0.583124
O46   O     O_R   0.500000 0.549840 0.948360 -0.582957
O47   O     O_R   0.000000 0.049840 0.051640 -0.584278
O48   O     O_R   0.000000 0.049840 0.948360 -0.581276
C111  C     C_R   0.500005 0.565953 0.000003 0.841619
C112  C     C_R   0.000019 0.065955 0.999993 0.842555
C113  C     C_R   0.529101 0.621531 0.992547 0.115025
C114  C     C_R   0.470990 0.621634 0.007436 0.115019
C115  C     C_R   0.029021 0.121511 0.993264 0.117999
C116  C     C_R   0.971181 0.121670 0.006742 0.114525
C117  C     C_R   0.528682 0.657814 0.995069 0.163698
C118  C     C_R   0.471463 0.657916 0.004893 0.163806
C119  C     C_R   0.028614 0.157795 0.995796 0.164208
C120  C     C_R   0.971694 0.157951 0.004211 0.163691
C121  C     C_R   0.500086 0.675874 0.999979 -0.015191
C122  C     C_R   0.000178 0.175880 0.000012 -0.015394
C123  C     C_R   0.500032 0.603734 0.999998 -0.124502
C124  C     C_R   0.000078 0.103739 0.999981 -0.124851
C125  C     C_R   0.480233 0.731784 0.062530 -0.172276
C126  C     C_R   0.519999 0.731728 0.937445 -0.172255
C127  C     C_R   0.980116 0.231776 0.062512 -0.172261
C128  C     C_R   0.020322 0.231740 0.937638 -0.172016
H49   H     H_    0.464836 0.718102 0.111151 0.141060
H50   H     H_    0.535387 0.718001 0.888821 0.141160
H51   H     H_    0.964549 0.218084 0.111040 0.141073
H52   H     H_    0.035883 0.218022 0.889084 0.141513
C129  C     C_R   0.980007 0.267543 0.062519 -0.188771
C130  C     C_R   0.020411 0.267508 0.937682 -0.188680
C131  C     C_R   0.480135 0.767552 0.062515 -0.188753
C132  C     C_R   0.520106 0.767496 0.937465 -0.188745
H53   H     H_    0.964497 0.280998 0.111421 0.132077
H54   H     H_    0.035904 0.280936 0.888794 0.132227
H55   H     H_    0.464803 0.781016 0.111484 0.132035
H56   H     H_    0.535436 0.780918 0.888496 0.132076
C133  C     C_R   0.000197 0.285740 0.000110 0.096552
C134  C     C_R   0.500119 0.785739 0.999990 0.096649
C135  C     C_R   0.500109 0.713756 0.999985 0.128718
C136  C     C_R   0.000217 0.213760 0.000059 0.128672
C137  C     C_R   0.031055 0.341855 0.963535 -0.170590
C138  C     C_R   0.969207 0.341853 0.036682 -0.170495
C139  C     C_R   0.530987 0.841838 0.963018 -0.170658
C140  C     C_R   0.469186 0.841866 0.036945 -0.170757
H57   H     H_    0.055295 0.328405 0.935539 0.127609
H58   H     H_    0.945000 0.328400 0.064695 0.127705
H59   H     H_    0.555202 0.828373 0.934700 0.127695
H60   H     H_    0.444988 0.828423 0.065262 0.127702
C141  C     C_R   0.031029 0.377628 0.963680 -0.185963
C142  C     C_R   0.969143 0.377625 0.036477 -0.185535
C143  C     C_R   0.530982 0.877612 0.963197 -0.185838
C144  C     C_R   0.469141 0.877637 0.036761 -0.185637
H61   H     H_    0.055276 0.390962 0.935181 0.151763
H62   H     H_    0.944864 0.390958 0.064958 0.151685
H63   H     H_    0.555217 0.890937 0.934397 0.151508
H64   H     H_    0.444886 0.890981 0.065561 0.151690
C145  C     C_R   0.000062 0.395878 0.000054 -0.030446
C146  C     C_R   0.500048 0.895876 0.999978 -0.029361
C147  C     C_R   0.000154 0.323642 0.000118 0.109011
C148  C     C_R   0.500099 0.823639 0.999985 0.108939
C149  C     C_R   0.506180 0.377749 0.939685 -0.183916
C150  C     C_R   0.493727 0.377783 0.060358 -0.183694
C151  C     C_R   0.006206 0.877749 0.939668 -0.184866
C152  C     C_R   0.993697 0.877784 0.060376 -0.182456
H65   H     H_    0.511300 0.391096 0.892245 0.150808
H66   H     H_    0.488626 0.391157 0.107785 0.150887
H67   H     H_    0.011349 0.891096 0.892213 0.150097
H68   H     H_    0.988574 0.891158 0.107817 0.151072
C153  C     C_R   0.506293 0.342009 0.939616 -0.169477
C154  C     C_R   0.493555 0.342045 0.060473 -0.169510
C155  C     C_R   0.006319 0.842009 0.939599 -0.169564
C156  C     C_R   0.993526 0.842046 0.060491 -0.169387
H69   H     H_    0.511832 0.328659 0.891910 0.126040
H70   H     H_    0.487996 0.328726 0.108197 0.126062
H71   H     H_    0.011879 0.828659 0.891880 0.125831
H72   H     H_    0.987945 0.828726 0.108227 0.126130
C157  C     C_R   0.499911 0.323774 0.000056 0.107902
C158  C     C_R   0.999910 0.823774 0.000056 0.107899
C159  C     C_R   0.499970 0.395963 0.000010 -0.033086
C160  C     C_R   0.999968 0.895964 0.000010 -0.032780
C161  C     C_R   0.485762 0.267588 0.965129 -0.180579
C162  C     C_R   0.514012 0.267568 0.035038 -0.180464
C163  C     C_R   0.985782 0.767588 0.965091 -0.180595
C164  C     C_R   0.013990 0.767569 0.035081 -0.180569
H73   H     H_    0.474239 0.280917 0.938657 0.128186
H74   H     H_    0.525544 0.280878 0.061498 0.128353
H75   H     H_    0.974276 0.780916 0.938586 0.128307
H76   H     H_    0.025506 0.780881 0.061572 0.128459
C165  C     C_R   0.985920 0.731853 0.964885 -0.176181
C166  C     C_R   0.013838 0.731836 0.035302 -0.176273
C167  C     C_R   0.485900 0.231853 0.964919 -0.176206
C168  C     C_R   0.513859 0.231834 0.035257 -0.176147
H77   H     H_    0.975035 0.718154 0.937567 0.132433
H78   H     H_    0.024725 0.718124 0.062613 0.132321
H79   H     H_    0.475000 0.218156 0.937630 0.132280
H80   H     H_    0.524762 0.218122 0.062537 0.132469
C169  C     C_R   0.999878 0.713889 0.000093 0.129927
C170  C     C_R   0.499879 0.213889 0.000086 0.129902
C171  C     C_R   0.499893 0.285837 0.000077 0.099841
C172  C     C_R   0.999892 0.785838 0.000077 0.099750
C173  C     C_R   0.030511 0.657997 0.956533 0.160146
C174  C     C_R   0.969311 0.658024 0.043557 0.160231
C175  C     C_R   0.530508 0.157996 0.956505 0.159995
C176  C     C_R   0.469313 0.158024 0.043567 0.160038
C177  C     C_R   0.030229 0.622111 0.957247 -0.189164
C178  C     C_R   0.969644 0.622137 0.042813 -0.190023
C179  C     C_R   0.530226 0.122111 0.957221 -0.189253
C180  C     C_R   0.469647 0.122137 0.042823 -0.189309
H81   H     H_    0.053677 0.608227 0.923758 0.160717
H82   H     H_    0.946216 0.608271 0.076289 0.160466
H83   H     H_    0.553672 0.108226 0.923719 0.160750
H84   H     H_    0.446221 0.108271 0.076312 0.160817
C181  C     C_R   0.999950 0.604023 0.000026 -0.123541
C182  C     C_R   0.499950 0.104022 0.000020 -0.123806
C183  C     C_R   0.999898 0.676133 0.000057 0.060739
C184  C     C_R   0.499899 0.176132 0.000048 0.060727
C185  C     C_3   0.944608 0.462392 0.864072 -0.795532
H85   H     H_    0.929235 0.449878 0.843276 0.212274
H86   H     H_    0.950754 0.442841 0.892980 0.227608
H87   H     H_    0.928656 0.483025 0.900440 0.241288
C186  C     C_3   0.051279 0.456670 0.138163 -0.801222
H88   H     H_    0.065366 0.442131 0.159533 0.213977
H89   H     H_    0.042076 0.438202 0.112598 0.225301
H90   H     H_    0.069522 0.474992 0.098708 0.241662
C187  C     C_3   0.444668 0.962311 0.864027 -0.792887
H91   H     H_    0.429315 0.949767 0.843217 0.213062
H92   H     H_    0.450853 0.942772 0.892895 0.226857
H93   H     H_    0.428680 0.982915 0.900437 0.241738
C188  C     C_3   0.555203 0.961924 0.135946 -0.795767
H94   H     H_    0.570515 0.949263 0.156744 0.212345
H95   H     H_    0.548884 0.942437 0.107197 0.227383
H96   H     H_    0.571284 0.982410 0.099428 0.241395
N1    N     N_2   0.283502 0.534371 0.115857 -0.436215
H97   H     H_    0.308229 0.542493 0.098970 0.260134
C189  C     C_3   0.278228 0.520723 0.060571 -0.711722
H98   H     H_    0.292393 0.536597 0.012680 0.230395
H99   H     H_    0.250643 0.521346 0.076003 0.231632
H100  H     H_    0.287812 0.493966 0.048081 0.218018
N2    N     N_2   0.716331 0.537579 0.881298 -0.436082
H101  H     H_    0.691552 0.545371 0.897595 0.260125
C190  C     C_3   0.721648 0.525482 0.937554 -0.711266
H102  H     H_    0.707431 0.542173 0.984215 0.230459
H103  H     H_    0.749232 0.526447 0.922061 0.231575
H104  H     H_    0.712146 0.498813 0.952061 0.218026
N3    N     N_2   0.783503 0.034379 0.115876 -0.436178
H105  H     H_    0.808229 0.042500 0.098993 0.260170
C191  C     C_3   0.778228 0.020741 0.060582 -0.711341
H106  H     H_    0.792393 0.036621 0.012699 0.230489
H107  H     H_    0.750642 0.021367 0.076015 0.231655
H108  H     H_    0.787812 0.993985 0.048078 0.218000
N4    N     N_2   0.215030 0.062131 0.813739 -0.436822
H109  H     H_    0.190276 0.064180 0.822631 0.260865
C192  C     C_3   0.219068 0.075220 0.870918 -0.704940
H110  H     H_    0.205511 0.100153 0.888787 0.229140
H111  H     H_    0.246564 0.079506 0.853862 0.233158
H112  H     H_    0.207955 0.057006 0.915607 0.219246
C193  C     C_3   0.103454 0.530122 0.501297 -0.899183
H113  H     H_    0.085821 0.510954 0.539492 0.223830
H114  H     H_    0.121588 0.538662 0.518926 0.228139
H115  H     H_    0.088503 0.552770 0.501211 0.246123
C194  C     C_3   0.896850 0.525499 0.494712 -0.903584
H116  H     H_    0.913874 0.505055 0.459420 0.221046
H117  H     H_    0.878780 0.533116 0.476250 0.228754
H118  H     H_    0.912517 0.548229 0.491035 0.247456
C195  C     C_3   0.603453 0.030110 0.501304 -0.899226
H119  H     H_    0.585819 0.010940 0.539494 0.223596
H120  H     H_    0.621587 0.038646 0.518937 0.228238
H121  H     H_    0.588502 0.052760 0.501225 0.246246
C196  C     C_3   0.394267 0.055454 0.539373 -0.858090
H122  H     H_    0.412577 0.044626 0.487293 0.224411
H123  H     H_    0.375467 0.071342 0.532859 0.218452
H124  H     H_    0.407914 0.072640 0.557722 0.251725
C197  C     C_3   0.560274 0.601053 0.981524 -0.831750
H125  H     H_    0.567997 0.582904 0.937214 0.212836
H126  H     H_    0.583198 0.616738 0.968392 0.235046
H127  H     H_    0.553931 0.586338 0.029678 0.242100
C198  C     C_3   0.439788 0.601267 0.018461 -0.832024
H128  H     H_    0.432042 0.583139 0.062767 0.212590
H129  H     H_    0.416886 0.617033 0.031600 0.235061
H130  H     H_    0.446111 0.586536 0.970306 0.242217
C199  C     C_3   0.060053 0.101017 0.983017 -0.836201
H131  H     H_    0.067945 0.082789 0.938776 0.214678
H132  H     H_    0.082950 0.116683 0.970192 0.234463
H133  H     H_    0.053472 0.086389 0.031391 0.240337
C200  C     C_3   0.940076 0.101346 0.017080 -0.831131
H134  H     H_    0.932149 0.083150 0.061341 0.212388
H135  H     H_    0.917224 0.117137 0.029934 0.234918
H136  H     H_    0.946593 0.086698 0.968731 0.242542
C201  C     C_3   0.558493 0.676898 0.993862 -0.859520
H137  H     H_    0.581801 0.673843 0.941760 0.229895
H138  H     H_    0.554002 0.704710 0.004317 0.238993
H139  H     H_    0.563386 0.666643 0.035293 0.236039
C202  C     C_3   0.441683 0.677105 0.006083 -0.859751
H140  H     H_    0.418370 0.674139 0.058187 0.229787
H141  H     H_    0.446218 0.704900 0.995601 0.238989
H142  H     H_    0.436774 0.666862 0.964660 0.236055
C203  C     C_3   0.058259 0.176853 0.995342 -0.860826
H143  H     H_    0.081736 0.173797 0.943509 0.230008
H144  H     H_    0.053747 0.204666 0.005763 0.239018
H145  H     H_    0.062870 0.166578 0.037136 0.235458
C204  C     C_3   0.942107 0.177174 0.004651 -0.859039
H146  H     H_    0.918627 0.174247 0.056502 0.229692
H147  H     H_    0.946715 0.204961 0.994157 0.239040
H148  H     H_    0.937451 0.166927 0.962894 0.236202
C205  C     C_3   0.063400 0.676532 0.908492 -0.872909
H149  H     H_    0.059425 0.693468 0.872485 0.238932
H150  H     H_    0.071584 0.692232 0.939777 0.235193
H151  H     H_    0.084527 0.658435 0.876150 0.226823
C206  C     C_3   0.936395 0.676591 0.091608 -0.872431
H152  H     H_    0.940342 0.693537 0.127645 0.238915
H153  H     H_    0.928198 0.692284 0.060331 0.235278
H154  H     H_    0.915290 0.658514 0.123917 0.226848
C207  C     C_3   0.563394 0.176530 0.908440 -0.872253
H155  H     H_    0.559408 0.193467 0.872448 0.238930
H156  H     H_    0.571590 0.192229 0.939708 0.235280
H157  H     H_    0.584517 0.158433 0.876083 0.226893
C208  C     C_3   0.436401 0.176590 0.091639 -0.872407
H158  H     H_    0.440358 0.193538 0.127661 0.238966
H159  H     H_    0.428193 0.192282 0.060378 0.235120
H160  H     H_    0.415300 0.158514 0.123964 0.226993
N5    N     N_2   0.997240 0.536209 0.713668 -0.412092
H161  H     H_    0.982772 0.541209 0.766559 0.267747
C209  C     C_3   0.030651 0.552456 0.678763 -0.683555
H162  H     H_    0.029583 0.577011 0.705353 0.221564
H163  H     H_    0.038443 0.558357 0.623535 0.252418
H164  H     H_    0.050334 0.535730 0.680111 0.212569
N6    N     N_2   0.008938 0.535944 0.280853 -0.418030
H165  H     H_    0.025906 0.540296 0.228522 0.266249
C210  C     C_3   0.977913 0.556430 0.311951 -0.660097
H166  H     H_    0.982801 0.580923 0.331160 0.240746
H167  H     H_    0.956273 0.543006 0.356420 0.223375
H168  H     H_    0.970296 0.562234 0.272006 0.206311
N7    N     N_2   0.497229 0.036207 0.713677 -0.412163
H169  H     H_    0.482758 0.041200 0.766571 0.268043
C211  C     C_3   0.530629 0.052477 0.678778 -0.684788
H170  H     H_    0.529547 0.077031 0.705384 0.221759
H171  H     H_    0.538416 0.058384 0.623554 0.252441
H172  H     H_    0.550326 0.035763 0.680109 0.212724
N8    N     N_2   0.503224 0.036209 0.285913 -0.411483
H173  H     H_    0.517774 0.041063 0.232993 0.267779
C212  C     C_3   0.469948 0.052806 0.320598 -0.684028
H174  H     H_    0.471162 0.077194 0.293406 0.221793
H175  H     H_    0.462313 0.059091 0.375602 0.247875
H176  H     H_    0.450081 0.036157 0.319869 0.210091

loop_
_geom_bond_atom_site_label_1
_geom_bond_atom_site_label_2
_geom_bond_distance
_ccdc_geom_bond_type
C174  C178  1.400549 A    
C23   N7    1.436639 S    
N3    H105  1.030185 S    
C27   H11   1.083119 S    
C207  H155  1.110405 S    
C150  C154  1.394670 A    
O46   C111  1.296431 A    
C187  H91   1.110734 S    
C186  H88   1.110724 S    
C143  H63   1.082880 S    
O30   C103  1.293560 A    
C129  H53   1.082916 S    
O21   Cu5   1.964485 S    
C162  H74   1.082620 S    
C200  H135  1.105588 S    
C24   N8    1.436734 S    
C51   H27   1.083414 S    
C174  C183  1.413892 A    
O33   Cu9   1.958576 S    
O34   C105  1.295826 A    
O19   Cu7   1.958470 S    
C9    C13   1.348109 D    
C30   C34   1.403034 A    
C125  H49   1.083173 S    
C195  H121  1.109484 S    
C82   C86   1.412959 A    
C125  C131  1.395786 A    
C143  C146  1.405165 A    
C88   C92   1.401190 A    
C98   C146  1.476592 S    
C180  C182  1.401588 A    
O4    C4    1.292716 A    
C175  C184  1.413886 A    
C193  H115  1.109483 S    
C34   C70   1.480662 S    
C50   C70   1.404907 A    
C156  C158  1.405105 A    
C204  H147  1.106820 S    
C131  C134  1.405732 A    
C176  C208  1.508069 S    
C10   C186  1.506674 S    
C74   H38   1.083268 S    
C116  C120  1.416686 A    
C37   C41   1.397165 A    
C190  H103  1.109479 S    
C139  H59   1.083032 S    
O17   C97   1.294689 A    
C60   C96   1.475614 S    
C179  H83   1.083539 S    
C63   C67   1.405117 A    
O17   Cu5   1.958470 S    
O18   Cu6   1.958904 S    
C194  H118  1.109857 S    
C49   C53   1.393069 A    
C10   C14   1.349116 D    
C210  H168  1.110552 S    
C163  H75   1.082621 S    
O16   Cu4   1.965470 S    
O13   C5    1.301752 A    
O27   Cu8   1.966975 S    
C103  C181  1.474161 S    
C89   C93   1.402290 A    
C8    C24   1.467172 S    
Cu8   O32   1.958511 S    
C212  H176  1.109495 S    
C168  C170  1.399549 A    
Cu5   Cu6   2.666691 S    
C211  H171  1.107531 S    
C179  C182  1.401592 A    
C165  H77   1.083256 S    
O9    C5    1.281339 A    
O40   Cu12  1.957183 S    
O28   C102  1.285666 A    
C73   H37   1.083283 S    
C139  C143  1.396036 A    
O43   Cu12  1.955153 S    
C140  C144  1.395960 A    
C25   C45   1.403874 A    
C196  H122  1.109399 S    
O8    Cu4   1.955700 S    
C207  H157  1.110760 S    
C113  C197  1.521403 S    
C202  H142  1.110480 S    
C74   C78   1.394657 A    
C187  H93   1.109678 S    
C115  C124  1.413970 A    
C85   C193  1.506142 S    
C186  H90   1.109633 S    
C137  C141  1.395962 A    
C130  C133  1.405752 A    
O3    Cu2   1.956091 S    
C44   H24   1.082845 S    
O25   C99   1.285720 A    
C90   H46   1.083859 S    
C15   C101  1.457822 S    
C43   C47   1.403724 A    
C199  H131  1.110797 S    
C166  H78   1.083256 S    
C21   N5    1.436637 S    
C202  H140  1.110126 S    
C142  C145  1.405142 A    
C45   C107  1.472353 S    
N7    H169  1.030536 S    
C4    C84   1.477470 S    
O3    C3    1.291750 A    
O34   Cu10  1.958704 S    
C29   H13   1.081538 S    
C170  C184  1.473412 S    
C50   C54   1.393067 A    
C191  H106  1.110491 S    
C176  C184  1.413899 A    
C55   H31   1.083293 S    
C149  C159  1.403988 A    
C203  H143  1.110126 S    
C192  H110  1.110466 S    
C68   N4    1.427237 S    
C65   N1    1.427905 S    
Cu5   O29   1.958946 S    
C20   C24   1.351279 D    
C126  C132  1.395818 A    
C197  H126  1.105576 S    
C206  H152  1.110400 S    
C113  C117  1.416738 A    
C48   C110  1.473055 S    
N2    H101  1.030212 S    
C39   C43   1.397162 A    
O24   C102  1.293155 A    
C201  H137  1.110126 S    
C58   C94   1.474913 S    
C208  H158  1.110401 S    
C164  C166  1.394479 A    
O23   Cu7   1.964485 S    
C11   C19   1.478945 S    
C32   H16   1.082729 S    
C26   C46   1.404147 A    
C151  C160  1.403990 A    
N6    C210  1.448869 S    
C18   C22   1.349611 D    
C115  C119  1.416754 A    
C189  H99   1.109465 S    
C138  C147  1.404113 A    
C127  C129  1.395771 A    
C85   C89   1.403555 A    
O5    Cu3   1.956131 S    
C79   H43   1.083642 S    
C162  C171  1.406595 A    
C27   C31   1.394964 A    
C198  H130  1.109747 S    
C28   C32   1.393441 A    
O43   C109  1.296210 A    
C151  C155  1.394727 A    
C58   C62   1.401217 A    
C141  C145  1.405171 A    
C67   N3    1.427905 S    
O8    C4    1.297253 A    
C74   C94   1.401780 A    
C89   H45   1.083908 S    
C185  H86   1.110783 S    
O21   C99   1.293096 A    
C127  C136  1.401032 A    
C128  C136  1.401019 A    
C12   C188  1.506422 S    
O39   C109  1.298363 A    
C205  H150  1.109612 S    
C51   C55   1.393067 A    
C5    C21   1.466796 S    
C139  C148  1.404107 A    
C188  H95   1.110789 S    
C155  C158  1.405129 A    
C199  H133  1.109739 S    
O20   Cu8   1.958904 S    
C30   H14   1.081600 S    
C91   H47   1.083910 S    
O13   Cu3   1.965342 S    
O42   C108  1.296442 A    
C92   H48   1.083925 S    
Cu12  O48   1.958840 S    
C192  H112  1.110676 S    
C56   C60   1.401049 A    
C152  C156  1.394670 A    
C91   C95   1.402293 A    
C117  C201  1.519422 S    
C64   H36   1.083178 S    
C83   C87   1.413775 A    
C65   C69   1.420740 A    
C51   C71   1.405151 A    
O36   Cu12  1.958704 S    
O44   C110  1.296391 A    
C67   C71   1.420738 A    
C163  C172  1.406602 A    
C76   H40   1.083103 S    
C73   C77   1.394666 A    
C173  C183  1.413882 A    
C203  H145  1.110488 S    
O15   Cu4   1.965342 S    
C121  C135  1.478307 S    
C2    C82   1.465778 S    
C61   H33   1.083049 S    
C119  C203  1.519432 S    
C18   H6    1.086476 S    
C206  H154  1.110765 S    
C63   H35   1.083047 S    
C46   C108  1.473100 S    
C9    C185  1.506449 S    
C49   H25   1.083416 S    
C60   C64   1.403630 A    
C201  H139  1.110482 S    
C198  H129  1.105578 S    
C208  H160  1.110762 S    
C177  C181  1.401595 A    
C37   H17   1.083160 S    
C9    C17   1.478947 S    
O14   C6    1.300412 A    
C90   C94   1.402825 A    
C84   C88   1.420314 A    
C111  C123  1.474366 S    
C118  C202  1.519422 S    
C126  C135  1.401065 A    
C173  C177  1.400492 A    
C87   C91   1.403556 A    
C163  C165  1.394527 A    
O10   C6    1.283583 A    
C7    C23   1.466804 S    
C152  H68   1.082968 S    
C200  H134  1.110860 S    
C189  H100  1.110300 S    
C19   C23   1.351287 D    
C78   C82   1.400972 A    
O27   C101  1.285644 A    
C140  H60   1.083033 S    
C166  C169  1.399551 A    
C191  H108  1.110300 S    
C66   N2    1.427899 S    
C195  H120  1.110729 S    
C75   C79   1.394662 A    
O23   C101  1.293124 A    
N8    H173  1.030567 S    
C137  H57   1.083028 S    
C168  H80   1.083261 S    
C173  C205  1.508088 S    
C138  C142  1.395972 A    
C87   C195  1.506151 S    
C44   C48   1.405481 A    
C209  H163  1.107528 S    
C41   H21   1.083053 S    
C193  H114  1.110730 S    
C22   N6    1.434013 S    
C157  C171  1.480426 S    
C43   H23   1.083054 S    
C158  C172  1.480430 S    
C204  H146  1.110124 S    
C13   C99   1.457908 S    
C192  H111  1.109989 S    
C14   C100  1.458167 S    
C47   C109  1.472364 S    
C40   C44   1.395466 A    
C120  C122  1.419267 A    
C190  H102  1.110490 S    
Cu11  Cu12  2.678917 S    
O47   C112  1.296399 A    
O5    C1    1.292340 A    
C130  H54   1.082913 S    
C180  H84   1.083537 S    
C77   C81   1.401454 A    
C194  H117  1.110729 S    
C210  H167  1.110561 S    
C50   H26   1.083433 S    
C53   C57   1.398926 A    
C52   C72   1.402081 A    
C55   C59   1.398925 A    
C126  H50   1.083172 S    
C17   H5    1.086657 S    
C212  H175  1.107454 S    
C174  C206  1.508066 S    
C27   C47   1.403878 A    
C105  C159  1.473367 S    
N5    C209  1.449155 S    
C106  C160  1.473363 S    
C144  C146  1.405163 A    
N4    H109  1.030565 S    
C33   C37   1.404604 A    
C161  C167  1.394519 A    
C162  C168  1.394479 A    
C11   C187  1.506455 S    
C68   C72   1.415004 A    
C41   C45   1.403720 A    
O22   C100  1.293400 A    
O20   C98   1.294755 A    
C33   C69   1.481025 S    
N3    C191  1.447972 S    
C14   H2    1.086629 S    
C153  H69   1.082724 S    
C207  H156  1.109612 S    
C35   C71   1.481030 S    
C38   C42   1.397122 A    
C187  H92   1.110786 S    
C186  H89   1.110857 S    
O12   Cu2   1.965566 S    
C178  H82   1.083537 S    
C155  H71   1.082727 S    
C211  H170  1.110526 S    
C40   H20   1.083300 S    
C156  H72   1.082729 S    
O1    C1    1.291752 A    
O36   C106  1.295816 A    
C78   H42   1.083658 S    
C200  H136  1.109727 S    
C189  H98   1.110490 S    
C25   H9    1.083117 S    
C26   C30   1.395034 A    
C42   H22   1.083019 S    
C117  C121  1.419312 A    
C28   H12   1.082867 S    
C15   H3    1.084693 S    
N6    H165  1.031274 S    
C76   C96   1.400300 A    
C141  H61   1.082880 S    
O45   C111  1.296442 A    
C140  C148  1.404074 A    
C114  C198  1.521391 S    
Cu9   Cu10  2.678917 S    
C75   C95   1.401297 A    
C129  C133  1.405737 A    
Cu7   O31   1.958946 S    
O39   Cu11  1.957183 S    
O38   C108  1.298505 A    
O44   Cu11  1.955159 S    
C6    C22   1.468744 S    
C204  H148  1.110486 S    
C131  H55   1.082918 S    
C11   C15   1.348038 D    
C54   C58   1.399294 A    
C16   C102  1.457913 S    
C169  C183  1.473411 S    
C12   C16   1.348168 D    
C56   H32   1.083071 S    
C190  H104  1.110306 S    
C125  C135  1.401047 A    
C13   H1    1.084701 S    
C197  H125  1.110847 S    
C77   H41   1.083642 S    
O32   C104  1.293557 A    
C64   C68   1.401343 A    
C127  H51   1.083174 S    
C80   H44   1.083346 S    
O6    C2    1.291890 A    
O4    Cu2   1.956529 S    
N2    C190  1.447950 S    
C76   C80   1.393905 A    
C175  C179  1.400488 A    
C42   C46   1.404030 A    
O48   C112  1.296555 A    
C176  C180  1.400545 A    
C149  C153  1.394720 A    
C202  H141  1.106814 S    
C211  H172  1.109468 S    
C17   C21   1.351251 D    
C19   H7    1.086657 S    
Cu7   Cu8   2.666691 S    
C137  C147  1.404086 A    
C73   C93   1.401300 A    
O42   Cu9   1.955159 S    
C1    C81   1.467008 S    
O2    Cu1   1.956529 S    
O10   Cu1   1.965566 S    
C161  H73   1.082622 S    
C149  H65   1.082968 S    
O35   Cu11  1.958576 S    
O7    Cu4   1.956131 S    
C161  C171  1.406604 A    
C177  H81   1.083536 S    
C164  H76   1.082620 S    
C38   H18   1.083173 S    
C196  H123  1.110887 S    
C114  C118  1.416734 A    
C10   C18   1.479754 S    
C116  C200  1.521410 S    
C175  C207  1.508089 S    
C120  C204  1.519453 S    
C81   C85   1.413776 A    
O25   Cu6   1.966975 S    
N8    C212  1.449231 S    
O26   Cu5   1.966973 S    
Cu9   O45   1.958966 S    
C97   C145  1.476566 S    
C185  H85   1.110750 S    
C133  C147  1.479051 S    
O15   C7    1.301735 A    
C134  C148  1.479039 S    
C36   C40   1.400626 A    
C80   C84   1.405255 A    
C205  H149  1.110401 S    
C210  H166  1.109502 S    
C188  H94   1.110742 S    
O7    C3    1.292332 A    
C199  H132  1.105598 S    
C79   C83   1.401459 A    
O38   Cu10  1.957183 S    
C132  C134  1.405725 A    
C36   C72   1.469258 S    
C75   H39   1.083283 S    
C116  C124  1.413841 A    
C115  C199  1.521536 S    
C138  H58   1.083028 S    
C52   H28   1.083548 S    
C128  C130  1.395784 A    
N7    C211  1.449169 S    
C34   C38   1.404329 A    
O28   Cu7   1.966973 S    
Cu10  O46   1.958840 S    
C164  C172  1.406598 A    
C86   C194  1.506124 S    
C151  H67   1.082971 S    
C203  H144  1.106818 S    
C150  C159  1.403993 A    
O29   C103  1.293659 A    
C57   C61   1.400845 A    
C209  H164  1.109472 S    
O11   C7    1.281348 A    
C165  C169  1.399562 A    
C206  H153  1.109618 S    
O1    Cu1   1.956091 S    
N4    C192  1.447150 S    
O9    Cu1   1.965689 S    
C88   C196  1.508023 S    
C25   C29   1.394961 A    
O40   C110  1.298587 A    
C122  C136  1.478219 S    
C201  H138  1.106813 S    
O19   C98   1.294646 A    
C208  H159  1.109616 S    
C53   H29   1.083292 S    
C31   H15   1.081536 S    
C112  C124  1.474482 S    
O16   C8    1.301938 A    
C16   H4    1.084698 S    
C59   C95   1.473976 S    
Cu11  O47   1.958966 S    
O11   Cu2   1.965689 S    
C167  H79   1.083253 S    
O41   C107  1.296208 A    
C3    C83   1.467001 S    
Cu6   O30   1.958511 S    
C178  C181  1.401591 A    
C152  C160  1.403987 A    
C66   C70   1.420442 A    
O31   C104  1.293655 A    
C104  C182  1.474157 S    
C196  H124  1.109436 S    
O22   Cu6   1.964483 S    
C154  C157  1.405105 A    
O6    Cu3   1.955700 S    
O26   C100  1.285260 A    
C144  H64   1.082879 S    
C132  H56   1.082917 S    
C113  C123  1.413787 A    
O37   C107  1.298362 A    
C12   C20   1.479137 S    
C61   C65   1.405115 A    
C191  H107  1.109467 S    
C195  H119  1.110611 S    
C62   H34   1.083025 S    
C167  C170  1.399564 A    
C49   C69   1.405145 A    
C114  C123  1.413751 A    
C154  H70   1.082729 S    
C185  H87   1.109681 S    
O41   Cu10  1.955153 S    
C39   H19   1.083159 S    
O2    C2    1.291505 A    
C205  H151  1.110763 S    
C193  H113  1.110610 S    
C26   H10   1.083076 S    
C188  H96   1.109676 S    
C29   C33   1.403167 A    
C150  H66   1.082969 S    
O14   Cu3   1.965470 S    
C31   C35   1.403170 A    
C142  H62   1.082881 S    
Cu1   Cu3   2.669622 S    
C118  C121  1.419329 A    
Cu2   Cu4   2.669622 S    
C197  H127  1.109746 S    
C52   C56   1.393122 A    
C57   C93   1.473977 S    
C194  H116  1.110554 S    
O24   Cu8   1.964483 S    
C35   C39   1.404600 A    
C20   H8    1.086644 S    
N1    C189  1.447973 S    
C198  H128  1.110857 S    
O33   C105  1.295782 A    
C54   H30   1.083266 S    
O37   Cu9   1.957183 S    
C32   C36   1.399860 A    
C212  H174  1.110582 S    
C209  H162  1.110528 S    
C62   C66   1.405135 A    
O35   C106  1.295787 A    
C28   C48   1.405869 A    
C119  C122  1.419273 A    
C92   C96   1.400810 A    
O18   C97   1.294682 A    
O12   C8    1.281323 A    
N5    H161  1.030536 S    
C86   C90   1.403582 A    
C128  H52   1.083173 S    
C59   C63   1.400845 A    
N1    H97   1.030186 S    
C153  C157  1.405129 A    
