data_mof_unit_52569.cif
_audit_creation_date              2013-03-05T15:51:35-0500
_audit_creation_method            fapswitch 2.2
_symmetry_space_group_name_H-M    P1
_symmetry_Int_Tables_number       1
_space_group_crystal_system       triclinic
_cell_length_a                    8.867798
_cell_length_b                    17.497993
_cell_length_c                    18.859013
_cell_angle_alpha                 96.098105
_cell_angle_beta                  93.81453
_cell_angle_gamma                 98.13836
_cell_volume                      2870.55883354

loop_
_atom_site_label
_atom_site_type_symbol
_atom_site_description
_atom_site_fract_x
_atom_site_fract_y
_atom_site_fract_z
_atom_type_partial_charge
P1    P     P_3+3 0.041170 0.434790 0.339740 0.589534
O1    O     O_2   0.870670 0.457200 0.328780 -0.309208
O2    O     O_3   0.123190 0.458470 0.416160 -0.423087
O3    O     O_3   0.645490 0.595990 0.371560 -0.370717
O4    O     O_2   0.673974 0.542302 0.240262 -0.302259
O5    O     O_3   0.013172 0.333333 0.327679 -0.525214
O6    O     O_3   0.681785 0.698056 0.257511 -0.566341
C1    C     C_3   0.728573 0.851158 0.275820 0.086932
P2    P     P_3+3 0.658290 0.675180 0.554960 0.538105
P3    P     P_3+3 0.113332 0.736320 0.401397 0.579710
O7    O     O_2   0.831760 0.686240 0.533840 -0.336712
O8    O     O_3   0.064740 0.635370 0.406810 -0.335896
O9    O     O_2   0.009513 0.770324 0.455470 -0.369336
O10   O     O_3   0.705745 0.698901 0.648077 -0.511404
O11   O     O_3   0.041804 0.768894 0.317042 -0.534766
C2    C     C_3   0.077219 0.727267 0.251477 0.760724
H1    H     H_    0.195036 0.730332 0.256591 0.159934
C3    C     C_3   0.059658 0.759629 0.175419 -0.246834
C4    C     C_3   0.249828 0.712628 0.636281 0.166393
H2    H     H_    0.342013 0.684583 0.612385 0.037890
C5    C     C_3   0.315564 0.796590 0.672876 0.254695
H3    H     H_    0.305194 0.838423 0.632709 0.027140
Ba1   Ba    Ba6+2 0.848080 0.535720 0.465810 1.659919
C6    C     C_3   0.931428 0.301867 0.380267 0.369853
H4    H     H_    0.816368 0.319656 0.378370 0.078420
H5    H     H_    0.995301 0.320905 0.433190 0.094561
C7    C     C_3   0.916110 0.213449 0.364598 -0.897449
H6    H     H_    0.906975 0.195163 0.306073 0.292770
H7    H     H_    0.811928 0.184901 0.385847 0.211679
H8    H     H_    0.018065 0.192644 0.388923 0.260310
C8    C     C_3   0.636525 0.646866 0.691904 0.222851
H9    H     H_    0.642211 0.585864 0.670074 0.081603
H10   H     H_    0.516430 0.655345 0.696039 0.097739
C9    C     C_3   0.721800 0.663921 0.768255 0.206087
P4    P     P_3+3 0.148540 0.565270 0.660270 0.460815
O12   O     O_2   0.319030 0.542820 0.671260 -0.390784
O13   O     O_3   0.066510 0.541590 0.583850 -0.422732
O14   O     O_3   0.544220 0.404070 0.628440 -0.360586
O15   O     O_3   0.179276 0.667210 0.685598 -0.550797
P5    P     P_3+3 0.071107 0.262050 0.574795 0.505468
O16   O     O_3   0.618730 0.408150 0.464380 -0.418311
O17   O     O_3   0.124970 0.364690 0.593190 -0.343430
O18   O     O_2   0.199733 0.222937 0.540981 -0.428688
O19   O     O_3   0.054290 0.222885 0.656093 -0.516776
Ba2   Ba    Ba6+2 0.341750 0.464340 0.534200 1.622593
P6    P     P_3+3 0.591907 0.603934 0.280998 0.579583
C10   C     C_3   0.658378 0.768307 0.301847 0.751134
H11   H     H_    0.636305 0.887396 0.270295 0.167148
O20   O     O_3   0.570980 0.591910 0.535630 -0.395454
C11   C     C_3   0.494593 0.312534 0.299694 0.060965
H12   H     H_    0.381887 0.332387 0.298237 0.106447
H13   H     H_    0.591633 0.360970 0.306616 0.120561
C12   C     C_3   0.497919 0.262135 0.227701 0.263101
H14   H     H_    0.401085 0.213405 0.223047 0.131693
P7    P     P_3+3 0.524713 0.311404 0.441968 0.433081
O21   O     O_2   0.357950 0.313790 0.466200 -0.336031
O22   O     O_3   0.504761 0.264402 0.353696 -0.613527
C13   C     C_3   0.185933 0.238856 0.703229 1.104698
H15   H     H_    0.283887 0.272332 0.680907 0.047798
C14   C     C_3   0.226056 0.160649 0.721599 -0.951380
H16   H     H_    0.273298 0.164536 0.777793 0.245473
H17   H     H_    0.122228 0.115934 0.715858 0.289673
H18   H     H_    0.308899 0.140164 0.685085 0.242875
P8    P     P_3+3 0.583558 0.414236 0.723197 0.529129
C15   C     C_3   0.639422 0.284747 0.774513 0.963620
H19   H     H_    0.738195 0.323502 0.803547 0.000423
O23   O     O_2   0.469122 0.466560 0.750123 -0.358254
O24   O     O_3   0.517480 0.325465 0.756618 -0.516524
H20   H     H_    0.696066 0.197644 0.842010 0.210730
C16   C     C_3   0.592622 0.221300 0.822771 -0.619706
H21   H     H_    0.517763 0.171614 0.791254 0.215178
N1    N     N_R   0.050821 0.561539 0.980750 -0.030952
N2    N     N_R   0.103347 0.559071 0.048337 -0.035322
C17   C     C_2   0.320926 0.490011 0.288746 -0.366517
C18   C     C_3   0.390227 0.558693 0.251418 0.456732
C19   C     C_2   0.348469 0.545987 0.171820 -0.251562
C20   C     C_2   0.222415 0.495711 0.144812 -0.058849
C21   C     C_2   0.133343 0.446995 0.195905 0.471061
C22   C     C_1   0.174674 0.458660 0.267529 0.206738
N3    N     N_R   0.185980 0.440591 0.015628 -0.023164
N4    N     N_R   0.132393 0.442657 0.947904 -0.013822
C23   C     C_R   0.061009 0.502495 0.929337 0.291492
C24   C     C_R   0.167980 0.497679 0.067888 0.298655
C25   C     C_R   0.086292 0.531009 0.803029 -0.140829
C26   C     C_R   0.034551 0.519574 0.729183 0.374224
C27   C     C_R   0.781784 0.461328 0.759806 0.020338
C28   C     C_R   0.835625 0.472304 0.834340 0.317182
C29   C     C_R   0.992162 0.502154 0.854425 -0.063055
C30   C     C_R   0.883438 0.484428 0.709124 -0.412929
H22   H     H_    0.410251 0.583719 0.137833 0.163527
H23   H     H_    0.841853 0.478185 0.653239 0.153361
H24   H     H_    0.451099 0.147192 0.465768 0.151453
H25   H     H_    0.281856 0.891535 0.446845 0.174144
C31   C     C_R   0.406510 0.720474 0.474587 -0.295930
C32   C     C_R   0.550858 0.749091 0.513357 0.039101
C33   C     C_R   0.596855 0.831984 0.526062 0.319481
C34   C     C_R   0.499603 0.882104 0.499366 -0.128783
C35   C     C_R   0.355411 0.852095 0.465222 -0.240818
C36   C     C_R   0.308224 0.772149 0.450117 0.351626
C37   C     C_R   0.567946 0.168065 0.487043 -0.196578
C38   C     C_R   0.625288 0.247313 0.491111 0.393939
C39   C     C_R   0.876909 0.222674 0.532614 0.297199
C40   C     C_R   0.818431 0.142959 0.530316 -0.069486
C41   C     C_R   0.662874 0.115694 0.508533 0.048503
C42   C     C_1   0.600292 0.034197 0.506608 0.113582
C43   C     C_1   0.550230 0.965611 0.503834 0.233248
C44   C     C_R   0.777656 0.274123 0.515232 -0.495543
H26   H     H_    0.892498 0.102949 0.547242 0.154758
H27   H     H_    0.821226 0.335508 0.518558 0.137932
N5    N     N_3   0.700194 0.762282 0.376719 -0.182427
H28   H     H_    0.728664 0.816557 0.406325 0.173438
H29   H     H_    0.793076 0.732690 0.379183 0.218410
N6    N     N_3   0.476254 0.802929 0.695801 -0.130136
H30   H     H_    0.533965 0.793333 0.650599 0.101934
H31   H     H_    0.515615 0.860962 0.715450 0.231707
S1    S     S_3+6 0.218033 0.830864 0.747955 0.042074
O25   O     O_2   0.058915 0.840572 0.723087 -0.211161
O26   O     O_2   0.213308 0.775420 0.803639 -0.240074
O27   O     O_3   0.311196 0.917969 0.784743 -0.507776
H32   H     H_    0.249316 0.934690 0.823748 0.385469
S2    S     S_3+6 0.854851 0.926020 0.334602 -0.039977
O28   O     O_2   0.758491 0.965869 0.384842 -0.285243
O29   O     O_2   0.928801 0.985669 0.290838 -0.299375
O30   O     O_3   0.992976 0.894962 0.383420 -0.458043
H33   H     H_    0.057499 0.942983 0.406919 0.368657
N7    N     N_3   0.882946 0.657032 0.762409 -0.224785
H34   H     H_    0.932104 0.700975 0.734181 0.251265
H35   H     H_    0.940993 0.666124 0.813399 0.160634
N8    N     N_3   0.656129 0.606222 0.812434 -0.225678
H36   H     H_    0.544403 0.614908 0.820497 0.139574
H37   H     H_    0.715608 0.616567 0.863046 0.182242
S3    S     S_3+6 0.709386 0.759325 0.813216 0.001675
O31   O     O_2   0.547439 0.764465 0.829722 -0.260159
O32   O     O_2   0.808509 0.771810 0.882536 -0.266015
O33   O     O_3   0.771316 0.829087 0.762935 -0.421547
H38   H     H_    0.774817 0.878572 0.794266 0.390369
S4    S     S_3+6 0.465102 0.770926 0.291971 -0.163442
O34   O     O_2   0.386829 0.704479 0.324836 -0.406842
O35   O     O_2   0.417531 0.845544 0.323451 -0.378820
O36   O     O_3   0.427426 0.759345 0.203291 -0.637137
H39   H     H_    0.438141 0.812704 0.189465 0.328426
S5    S     S_3+6 0.469862 0.314396 0.152309 0.000745
O37   O     O_2   0.512056 0.400281 0.173309 -0.267401
O38   O     O_2   0.566463 0.288857 0.094262 -0.239052
O39   O     O_3   0.285099 0.294595 0.121037 -0.498279
H40   H     H_    0.281405 0.313791 0.073515 0.388245
N9    N     N_3   0.639945 0.228980 0.223772 -0.161169
H41   H     H_    0.732224 0.272221 0.241541 0.194562
H42   H     H_    0.639029 0.186134 0.258458 0.122032
N10   N     N_3   0.776171 0.844362 0.203660 -0.230634
H43   H     H_    0.684184 0.815973 0.168819 0.112688
H44   H     H_    0.799629 0.899439 0.186566 0.169157
N11   N     N_3   0.162470 0.727582 0.125755 -0.163292
H45   H     H_    0.211110 0.680811 0.142248 0.195572
H46   H     H_    0.238427 0.768957 0.104790 0.169861
S6    S     S_3+6 0.137828 0.293547 0.781990 0.024296
O40   O     O_2   0.272473 0.315470 0.836120 -0.261221
O41   O     O_2   0.085218 0.365980 0.760881 -0.304283
O42   O     O_3   0.996990 0.241009 0.819050 -0.504573
H47   H     H_    0.975474 0.275518 0.861123 0.363530
S7    S     S_3+6 0.699593 0.240105 0.694961 -0.031691
O43   O     O_2   0.766909 0.167892 0.706908 -0.222311
O44   O     O_2   0.565512 0.219767 0.640019 -0.360262
O45   O     O_3   0.832469 0.306535 0.669101 -0.514614
H48   H     H_    0.775916 0.339302 0.641251 0.325861
S8    S     S_3+6 0.009475 0.629320 0.248262 -0.030956
O46   O     O_2   0.140757 0.600388 0.280513 -0.396474
O47   O     O_2   0.895406 0.619814 0.300700 -0.173241
O48   O     O_3   0.950101 0.579393 0.167776 -0.539570
H49   H     H_    0.845363 0.589609 0.155770 0.389259
N12   N     N_3   0.517317 0.251087 0.884166 -0.089239
H50   H     H_    0.437784 0.205889 0.897499 0.179477
H51   H     H_    0.598058 0.264801 0.928237 0.224869
S9    S     S_3+6 0.976859 0.374235 0.161358 0.041261
O49   O     O_2   0.000801 0.298334 0.187460 -0.277270
O50   O     O_2   0.833041 0.398198 0.188042 -0.197711
O51   O     O_3   0.953953 0.360264 0.071690 -0.490608
H52   H     H_    0.876858 0.313014 0.059958 0.404461
N13   N     N_3   0.232127 0.574574 0.828081 -0.209996
H53   H     H_    0.314478 0.544890 0.806771 0.184892
H54   H     H_    0.240949 0.629300 0.810251 0.194726
S10   S     S_3+6 0.716155 0.452869 0.905296 -0.034375
O52   O     O_2   0.772787 0.389602 0.942693 -0.274901
O53   O     O_2   0.732669 0.524340 0.958716 -0.303586
O54   O     O_3   0.529463 0.426127 0.880153 -0.440714
H55   H     H_    0.479452 0.471477 0.895866 0.364223
N14   N     N_3   0.394664 0.477374 0.355973 -0.159267
H56   H     H_    0.346682 0.425281 0.372604 0.156561
H57   H     H_    0.505760 0.468814 0.346956 0.161309
S11   S     S_3+6 0.769632 0.878606 0.576044 0.004040
O55   O     O_2   0.730565 0.936718 0.633955 -0.294072
O56   O     O_2   0.858412 0.824147 0.610004 -0.198092
O57   O     O_3   0.880935 0.926531 0.521528 -0.499517
H58   H     H_    0.969045 0.955249 0.553116 0.364711
N15   N     N_3   0.360521 0.637929 0.462073 -0.138060
H59   H     H_    0.332722 0.618552 0.408179 0.196238
H60   H     H_    0.269879 0.620784 0.491884 0.138853
N16   N     N_3   0.910250 0.734383 0.136408 -0.167782
H61   H     H_    0.882117 0.773541 0.101233 0.178033
H62   H     H_    0.824362 0.716939 0.167616 0.186850
N17   N     N_3   0.095516 0.845125 0.184525 -0.188095
H63   H     H_    0.213412 0.861776 0.194571 0.152860
H64   H     H_    0.051969 0.867763 0.230778 0.220985
N18   N     N_3   0.137670 0.721918 0.579831 -0.224639
H65   H     H_    0.094531 0.668225 0.551767 0.181897
H66   H     H_    0.049149 0.743102 0.605169 0.236689

loop_
_geom_bond_atom_site_label_1
_geom_bond_atom_site_label_2
_geom_bond_distance
_ccdc_geom_bond_type
C38   C44   1.395019 A    
N12   H50   1.045978 S    
N7    H34   1.042883 S    
Ba1   Ba2   4.850511 S    
N5    H29   1.034150 S    
C7    H7    1.106691 S    
C44   H27   1.082548 S    
O48   H49   0.986664 S    
O2    Ba1   3.102313 S    
C32   C33   1.439889 A    
C6    C7    1.528873 S    
C12   N9    1.462339 S    
O10   C8    1.399346 S    
P7    O21   1.581402 D    
C28   S10   1.792210 S    
C1    H11   1.109957 S    
C34   C35   1.397802 A    
O33   H38   0.990505 S    
O3    P6    1.767271 S    
C12   H14   1.113058 S    
N8    H37   1.044664 S    
S4    O35   1.503243 D    
O8    Ba1   2.778127 S    
S11   O55   1.503628 D    
C14   H18   1.109851 S    
C28   C29   1.423360 A    
P8    O24   1.775628 S    
C7    H6    1.110345 S    
O45   H48   0.983071 S    
N9    H42   1.045575 S    
C6    H5    1.108446 S    
N6    H30   1.033805 S    
P3    O11   1.848977 S    
N3    C24   1.360721 A    
P4    O15   1.774309 S    
S9    O49   1.502026 D    
C1    S2    1.819293 S    
Ba1   O20   3.094857 S    
C20   C24   1.503634 S    
C13   C14   1.530206 S    
C15   C16   1.538671 S    
C37   C41   1.401631 A    
S1    O25   1.495504 D    
C14   H17   1.111938 S    
P1    O1    1.620497 D    
N17   H63   1.043783 S    
S5    O37   1.499975 D    
C33   S11   1.786641 S    
N5    H28   1.038327 S    
P6    C18   1.873239 S    
S2    O30   1.669712 S    
S11   O57   1.678769 S    
S10   O52   1.500446 D    
C25   C26   1.421213 A    
P5    O18   1.549575 D    
O16   P7    1.772287 S    
P4    O12   1.620735 D    
Ba2   O21   2.831744 S    
O19   C13   1.395659 S    
S3    O31   1.502503 D    
O14   Ba2   2.829194 S    
C3    N16   1.458553 S    
C11   H13   1.109470 S    
C8    H10   1.102543 S    
C40   H26   1.083132 S    
N11   H46   1.045154 S    
P2    C32   1.913318 S    
N1    N2    1.334883 A    
H20   C16   1.113379 S    
P5    O17   1.782352 S    
C9    S3    1.811529 S    
C5    H3    1.116115 S    
C7    H8    1.110792 S    
S8    O47   1.466039 D    
N17   H64   1.040015 S    
S5    O39   1.679178 S    
P3    C36   1.893077 S    
C5    S1    1.800516 S    
P8    C27   1.884985 S    
C41   C42   1.450904 S    
S7    O44   1.500642 D    
O39   H40   0.990092 S    
O14   P8    1.782891 S    
C19   C20   1.354066 D    
S6    O42   1.679589 S    
S4    O36   1.668586 S    
C11   C12   1.542824 S    
N14   H57   1.039520 S    
C17   C18   1.531587 S    
N9    H41   1.043435 S    
C31   N15   1.433948 S    
P8    O23   1.535831 D    
C13   S6    1.789387 S    
P2    O20   1.544526 S    
C6    H4    1.107547 S    
C9    N8    1.459260 S    
C5    N6    1.446660 S    
C2    S8    1.727283 S    
O3    Ba1   2.829997 S    
C26   C30   1.402439 A    
C21   C22   1.361958 D    
P2    Ba1   3.504539 S    
N15   H59   1.038542 S    
C13   H15   1.109889 S    
C20   C21   1.537583 S    
O2    Ba2   2.836115 S    
N4    C23   1.362245 A    
P1    O5    1.745545 S    
C27   C30   1.408235 A    
C14   H16   1.104885 S    
P1    O2    1.557596 S    
S10   O54   1.677419 S    
O6    C10   1.459529 S    
C25   N13   1.428228 S    
C1    N10   1.449305 S    
C18   C19   1.507239 S    
O6    P6    1.836888 S    
N12   H51   1.044419 S    
O42   H47   0.990738 S    
Ba2   O20   2.794793 S    
C9    N7    1.461391 S    
C15   O24   1.418284 S    
O5    C6    1.382349 S    
C33   C34   1.420042 A    
C10   S4    1.719282 S    
C11   H12   1.103185 S    
C8    C9    1.560167 S    
O12   Ba2   2.828628 S    
C2    C3    1.603167 S    
O36   H39   0.989285 S    
P2    O7    1.605014 D    
S9    O51   1.677208 S    
S2    O28   1.500042 D    
N16   H61   1.046302 S    
C3    N11   1.473000 S    
P3    O8    1.773421 S    
O51   H52   0.990400 S    
C34   C43   1.458373 S    
S3    O32   1.503828 D    
N18   H66   1.037602 S    
C35   C36   1.395312 A    
C31   C32   1.428311 A    
C17   C22   1.351279 D    
P7    O22   1.762878 S    
S8    O46   1.455880 D    
P1    C22   1.904199 S    
N10   H44   1.046016 S    
C30   H23   1.082182 S    
O13   Ba2   3.103313 S    
P4    Ba2   3.494844 S    
C39   C44   1.393288 A    
O1    Ba1   2.828187 S    
S7    O45   1.669297 S    
H24   C37   1.083718 S    
N8    H36   1.041923 S    
S4    O34   1.483107 D    
P4    O13   1.557627 S    
S6    O40   1.496621 D    
N7    H35   1.045674 S    
C4    C5    1.569453 S    
C27   C28   1.438086 A    
C11   O22   1.395049 S    
S11   O56   1.487636 D    
C8    H9    1.111770 S    
C25   C29   1.408369 A    
N3    N4    1.338775 A    
P3    O9    1.546817 D    
N16   H62   1.025496 S    
O27   H32   0.990586 S    
O17   Ba2   2.778699 S    
P1    Ba1   3.494201 S    
C10   N5    1.454447 S    
C42   C43   1.213608 T    
P7    C38   1.818270 S    
Ba1   O16   2.795447 S    
S1    O27   1.682101 S    
C12   S5    1.792579 S    
C4    H2    1.108052 S    
S6    O41   1.494124 D    
C1    C10   1.632929 S    
N14   H56   1.038739 S    
Ba1   O13   2.835394 S    
P4    C26   1.875341 S    
O54   H55   0.990637 S    
C2    H1    1.036028 S    
N6    H31   1.045364 S    
S7    O43   1.503307 D    
C31   C36   1.431246 A    
S3    O33   1.678176 S    
C23   C29   1.500347 S    
O7    Ba1   2.831706 S    
C4    N18   1.445901 S    
S9    O50   1.499191 D    
S1    O26   1.502195 D    
P2    O10   1.769344 S    
C3    N17   1.473801 S    
S5    O38   1.503709 D    
C15   H19   1.102726 S    
C16   N12   1.459935 S    
C39   C40   1.412725 A    
S10   O53   1.503731 D    
S2    O29   1.503973 D    
C16   H21   1.106414 S    
C17   N14   1.440161 S    
P5    C39   1.854322 S    
N13   H53   1.032814 S    
P5    O19   1.751377 S    
N18   H65   1.036732 S    
S8    O48   1.681113 S    
C4    O15   1.407739 S    
O57   H58   0.990544 S    
C15   S7    1.766697 S    
C40   C41   1.412761 A    
C21   S9    1.781654 S    
O16   Ba2   3.093935 S    
N10   H43   1.043321 S    
C37   C38   1.399964 A    
N15   H60   1.039165 S    
N11   H45   1.043422 S    
O4    P6    1.550286 D    
H25   C35   1.081678 S    
N2    C24   1.359699 A    
N1    C23   1.356818 A    
O11   C2    1.443334 S    
C19   H22   1.086803 S    
O30   H33   0.990388 S    
N13   H54   1.042536 S    
