data_mof_unit_40531.cif
_audit_creation_date              2013-03-05T16:33:33-0500
_audit_creation_method            fapswitch 2.2
_symmetry_space_group_name_H-M    P1
_symmetry_Int_Tables_number       1
_space_group_crystal_system       triclinic
_cell_length_a                    10.819296
_cell_length_b                    10.729333
_cell_length_c                    9.606554
_cell_angle_alpha                 89.950444
_cell_angle_beta                  90.317759
_cell_angle_gamma                 89.747065
_cell_volume                      1115.13712069

loop_
_atom_site_label
_atom_site_type_symbol
_atom_site_description
_atom_site_fract_x
_atom_site_fract_y
_atom_site_fract_z
_atom_type_partial_charge
O1    O     O_R   0.500000 0.319640 0.618810 -0.536320
O2    O     O_R   0.500010 0.319680 0.381230 -0.572693
C1    C     C_R   0.500125 0.262776 0.499823 0.807507
O3    O     O_R   0.319650 0.499970 0.618810 -0.557478
O4    O     O_R   0.319660 0.500010 0.381230 -0.546243
C2    C     C_R   0.262550 0.496788 0.499640 0.818496
Cu1   Cu    Cu3+1 0.499990 0.499980 0.640670 1.093465
Cu2   Cu    Cu3+1 0.500010 0.500020 0.359330 1.028036
O5    O     O_R   0.499990 0.680320 0.618770 -0.558360
O6    O     O_R   0.500000 0.680360 0.381190 -0.576966
O7    O     O_R   0.680340 0.499990 0.618770 -0.524710
O8    O     O_R   0.680350 0.500030 0.381190 -0.597105
C3    C     C_R   0.497477 0.737254 0.499874 0.819267
C4    C     C_R   0.737591 0.496971 0.500115 0.808858
C5    C     C_R   0.064892 0.477762 0.624019 0.080599
C6    C     C_R   0.129577 0.482525 0.498918 -0.150061
C7    C     C_R   0.064037 0.468562 0.373193 -0.042387
C8    C     C_R   0.935114 0.468566 0.373549 -0.134095
C9    C     C_R   0.870918 0.482859 0.499627 -0.103907
C10   C     C_R   0.937464 0.478446 0.624362 0.089998
C11   C     C_3   0.931332 0.562844 0.747661 -0.391850
C12   C     C_3   0.071592 0.563150 0.747028 0.139363
H1    H     H_    0.112572 0.655279 0.722727 0.162719
C13   C     C_R   0.403277 0.065785 0.436773 0.039559
C14   C     C_R   0.501812 0.129458 0.497319 -0.108434
C15   C     C_R   0.605372 0.063752 0.546160 -0.070692
C16   C     C_R   0.604430 0.933833 0.545336 -0.092561
C17   C     C_R   0.499064 0.870629 0.498503 -0.104373
C18   C     C_R   0.400891 0.936740 0.438673 0.020251
C19   C     C_3   0.266694 0.935379 0.479461 0.064297
C20   C     C_3   0.269229 0.077697 0.472499 0.061015
C21   C     C_R   0.449808 0.596646 0.073559 0.204501
N1    N     N_R   0.500790 0.500930 0.147930 -0.212115
C22   C     C_R   0.544713 0.401207 0.075761 -0.054790
C23   C     C_R   0.546945 0.401051 0.927947 0.441199
N2    N     N_R   0.500790 0.500890 0.852020 -0.241054
C24   C     C_R   0.450702 0.597346 0.926452 0.151302
C25   C     C_3   0.491015 0.732371 0.927203 0.488361
C26   C     C_3   0.486980 0.729796 0.084793 -0.475780
H2    H     H_    0.111583 0.463975 0.274416 0.224192
H3    H     H_    0.251269 0.899005 0.586046 0.154872
N3    N     N_R   0.194990 0.131840 0.359296 0.180209
O9    O     O_R   0.077387 0.150479 0.377981 -0.292311
O10   O     O_R   0.246759 0.175211 0.247303 -0.281654
H4    H     H_    0.253401 0.124631 0.574164 0.123917
H5    H     H_    0.583950 0.323136 0.132228 0.180008
N4    N     N_R   0.605931 0.297999 0.861337 0.129727
O11   O     O_R   0.570303 0.185292 0.890230 -0.285620
O12   O     O_R   0.712535 0.313819 0.802348 -0.348191
N5    N     N_R   0.616631 0.754342 0.875821 0.112677
O13   O     O_R   0.653793 0.868217 0.857008 -0.283063
O14   O     O_R   0.699870 0.667117 0.887372 -0.403259
N6    N     N_R   0.399237 0.818037 0.866710 0.128579
O15   O     O_R   0.301741 0.775339 0.803410 -0.394995
O16   O     O_R   0.408961 0.937537 0.886663 -0.252322
H6    H     H_    0.578922 0.741403 0.135473 0.221629
H7    H     H_    0.413056 0.789067 0.129353 0.254703
H8    H     H_    0.886479 0.463986 0.274848 0.191210
H9    H     H_    0.890714 0.655366 0.721473 0.215644
H10   H     H_    0.890525 0.515486 0.839468 0.267333
N7    N     N_R   0.124637 0.504535 0.871568 0.165860
O17   O     O_R   0.179656 0.396477 0.865314 -0.303708
O18   O     O_R   0.122730 0.564438 0.989200 -0.312147
H11   H     H_    0.685264 0.112669 0.586555 0.192301
H12   H     H_    0.684316 0.882770 0.583470 0.181126
N8    N     N_R   0.185381 0.876564 0.376562 0.181838
O19   O     O_R   0.066449 0.880529 0.395193 -0.286241
O20   O     O_R   0.229768 0.800657 0.283814 -0.329134

loop_
_geom_bond_atom_site_label_1
_geom_bond_atom_site_label_2
_geom_bond_distance
_ccdc_geom_bond_type
O4    Cu2   1.963729 S    
N5    O14   1.300185 A    
C19   H3    1.109207 S    
C11   H9    1.111912 S    
C18   C19   1.506081 S    
C22   H5    1.081509 S    
C20   N3    1.466413 S    
C7    H2    1.082932 S    
Cu1   N2    2.030348 S    
N8    O20   1.300133 A    
C9    C10   1.395174 A    
C19   C20   1.528757 S    
Cu2   O8    1.961263 S    
C23   N4    1.427862 S    
C21   N1    1.363351 A    
N7    O17   1.302522 A    
C3    C17   1.431258 S    
C7    C8    1.394874 A    
C13   C20   1.497149 S    
Cu1   Cu2   2.702709 S    
N4    O12   1.299631 A    
C26   H6    1.112606 S    
C19   N8    1.464801 S    
N6    O15   1.299989 A    
C13   C14   1.393475 A    
C12   N7    1.464301 S    
Cu1   O7    1.963729 S    
C17   C18   1.395550 A    
C15   C16   1.394053 A    
C24   C25   1.514809 S    
C25   N6    1.467365 S    
N3    O10   1.302255 A    
O3    Cu1   1.961262 S    
C25   N5    1.468463 S    
O4    C2    1.298012 A    
Cu2   O6    1.946471 S    
N2    C24   1.369891 A    
O8    C4    1.296817 A    
N8    O19   1.300647 A    
O2    C1    1.292077 A    
Cu2   N1    2.030904 S    
N6    O16   1.301199 A    
C16   H12   1.083215 S    
C5    C10   1.378688 A    
O7    C4    1.300666 A    
C21   C24   1.413295 A    
N3    O9    1.300578 A    
C2    C6    1.447444 S    
C5    C6    1.395071 A    
C26   H7    1.107751 S    
Cu1   O5    1.946152 S    
C1    C14   1.430682 S    
N1    C22   1.360789 A    
C10   C11   1.493181 S    
C11   H10   1.111959 S    
O3    C2    1.298390 A    
C22   C23   1.420328 A    
C20   H4    1.112972 S    
C21   C26   1.489692 S    
C16   C17   1.401254 A    
N7    O18   1.300733 A    
O5    C3    1.294896 A    
C12   H1    1.110315 S    
C8    C9    1.407688 A    
O1    Cu1   1.946470 S    
C15   H11   1.083436 S    
C23   N2    1.385191 A    
N5    O13   1.300729 A    
C14   C15   1.399701 A    
C11   C12   1.517575 S    
C4    C9    1.449802 S    
C13   C18   1.385032 A    
C5    C12   1.497500 S    
O2    Cu2   1.946150 S    
N4    O11   1.301026 A    
C6    C7    1.405618 A    
C8    H8    1.083096 S    
O1    C1    1.296160 A    
O6    C3    1.294107 A    
C25   C26   1.515003 S    
