data_mof_unit_62379.cif
_audit_creation_date              2012-12-10T16:55:25-0500
_audit_creation_method            fapswitch 2.2
_symmetry_space_group_name_H-M    P1
_symmetry_Int_Tables_number       1
_space_group_crystal_system       triclinic
_cell_length_a                    21.850664
_cell_length_b                    21.732792
_cell_length_c                    22.2958
_cell_angle_alpha                 119.44595
_cell_angle_beta                  120.353306
_cell_angle_gamma                 88.932153
_cell_volume                      7575.08238568

loop_
_atom_site_label
_atom_site_type_symbol
_atom_type_description
_atom_site_fract_x
_atom_site_fract_y
_atom_site_fract_z
_atom_type_partial_charge
C1    C     C_R   0.001976 0.382488 0.503170 0.946003
C2    C     C_R   0.997770 0.617461 0.496771 0.947523
C3    C     C_3   0.293645 0.841243 0.047863 0.163129
C4    C     C_3   0.710497 0.157766 0.952268 0.163263
C5    C     C_3   0.238306 0.791865 0.949502 -0.367951
C6    C     C_3   0.765768 0.207569 0.050619 -0.368275
C7    C     C_1   0.335135 0.838726 0.174130 -0.085174
C8    C     C_1   0.664998 0.161396 0.825874 -0.085324
C9    C     C_1   0.161838 0.664231 0.825731 0.019575
C10   C     C_1   0.838216 0.336020 0.174271 0.019672
C11   C     C_1   0.125788 0.626043 0.750873 -0.117561
C12   C     C_1   0.874227 0.374077 0.249128 -0.117570
C13   C     C_2   0.071386 0.240437 0.549018 0.219721
C14   C     C_2   0.017399 0.756204 0.448172 0.207636
C15   C     C_2   0.008592 0.182969 0.496459 -0.335319
C16   C     C_2   0.011323 0.816417 0.503193 -0.342397
C17   C     C_2   0.069177 0.302346 0.538746 -0.157444
C18   C     C_2   0.025173 0.694187 0.458148 -0.150554
C19   C     C_2   0.007009 0.322152 0.514082 -0.372022
C20   C     C_2   0.989865 0.677437 0.485256 -0.378986
C21   C     C_R   0.617392 0.997305 0.496373 0.935062
C22   C     C_R   0.382600 0.002701 0.503636 0.934408
C23   C     C_R   0.081286 0.581056 0.662134 0.898451
C24   C     C_R   0.918717 0.418952 0.337868 0.898093
C25   C     C_R   0.418770 0.919064 0.337741 0.911093
C26   C     C_R   0.581236 0.080938 0.662260 0.911241
C27   C     C_R   0.880974 0.005588 0.499515 0.955108
C28   C     C_R   0.119016 0.994391 0.500476 0.939206
C29   C     C_R   0.002862 0.118816 0.499538 0.942692
C30   C     C_R   0.003114 0.881050 0.500457 0.942119
C31   C     C_2   0.747659 0.999114 0.431368 0.212783
C32   C     C_2   0.252298 0.000764 0.568612 0.216048
C33   C     C_2   0.817042 0.023239 0.500072 -0.376830
C34   C     C_2   0.182892 0.976625 0.499874 -0.382264
C35   C     C_2   0.688564 0.013773 0.444993 0.169824
C36   C     C_2   0.311365 0.986099 0.554939 0.168342
C37   C     C_2   0.676715 0.986396 0.482977 -0.010416
C38   C     C_2   0.323270 0.013636 0.517062 -0.009764
C39   C     C_3   0.270999 0.682328 0.952889 -0.466315
C40   C     C_3   0.726482 0.315095 0.047052 -0.464940
C41   C     C_3   0.154343 0.709811 0.949401 -0.020673
C42   C     C_3   0.844552 0.294533 0.050558 -0.019245
C43   C     C_3   0.203859 0.765539 0.048539 -0.121165
C44   C     C_3   0.795436 0.238749 0.951431 -0.121835
C45   C     C_1   0.373681 0.875285 0.249027 -0.197350
C46   C     C_1   0.626387 0.124743 0.750976 -0.197438
C47   C     C_3   0.204427 0.710962 0.917233 0.154369
C48   C     C_3   0.795694 0.289458 0.082772 0.154168
C49   C     C_3   0.313874 0.725610 0.049012 -0.432335
C50   C     C_3   0.683323 0.272054 0.950916 -0.432531
C51   C     C_3   0.287504 0.794325 0.082369 0.261948
C52   C     C_3   0.712707 0.205965 0.917638 0.262266
H1    H     H_    0.305404 0.688311 0.066493 0.186621
H2    H     H_    0.688977 0.310304 0.933345 0.186342
H3    H     H_    0.309502 0.689727 0.936507 0.226810
H4    H     H_    0.689053 0.304952 0.063484 0.227358
H5    H     H_    0.374688 0.742639 0.077713 0.189023
H6    H     H_    0.622812 0.252239 0.922233 0.189288
H7    H     H_    0.960274 0.179411 0.443064 0.131242
H8    H     H_    0.018758 0.821176 0.557492 0.136184
H9    H     H_    0.119123 0.333076 0.554026 0.173793
H10   H     H_    0.058349 0.660989 0.440999 0.180956
H11   H     H_    0.959363 0.296343 0.506611 0.161267
H12   H     H_    0.950900 0.705667 0.494757 0.160692
H13   H     H_    0.827396 0.058908 0.561715 0.140930
H14   H     H_    0.172487 0.940899 0.438171 0.140443
H15   H     H_    0.252343 0.621860 0.924580 0.168827
H16   H     H_    0.742338 0.375779 0.075272 0.169066
H17   H     H_    0.184367 0.815124 0.065576 0.162629
H18   H     H_    0.817330 0.190894 0.934472 0.162544
H19   H     H_    0.265508 0.790976 0.918456 0.209577
H20   H     H_    0.739542 0.205926 0.081679 0.209123
H21   H     H_    0.192864 0.815719 0.927695 0.209227
H22   H     H_    0.813194 0.185844 0.072492 0.209503
O1    O     O_R   0.051090 0.409550 0.500010 -0.618543
O2    O     O_R   0.948910 0.590450 0.499990 -0.618974
O3    O     O_R   0.874830 0.965310 0.430660 -0.614711
O4    O     O_R   0.125170 0.034690 0.569340 -0.618649
O5    O     O_R   0.034670 0.125130 0.569340 -0.613667
O6    O     O_R   0.965330 0.874870 0.430660 -0.613803
O7    O     O_R   0.965310 0.055770 0.430620 -0.624770
O8    O     O_R   0.034690 0.944230 0.569380 -0.624280
O9    O     O_R   0.948930 0.409540 0.500030 -0.618048
O10   O     O_R   0.051070 0.590460 0.499970 -0.618195
O11   O     O_R   0.112510 0.561440 0.622850 -0.630256
O12   O     O_R   0.887490 0.438560 0.377150 -0.628623
O13   O     O_R   0.010350 0.561430 0.622870 -0.587157
O14   O     O_R   0.989650 0.438570 0.377130 -0.589276
O15   O     O_R   0.590290 0.948920 0.499990 -0.619680
O16   O     O_R   0.409710 0.051080 0.500010 -0.619586
O17   O     O_R   0.590320 0.051050 0.499970 -0.630480
O18   O     O_R   0.409680 0.948950 0.500030 -0.630519
O19   O     O_R   0.438380 0.887500 0.377150 -0.612107
O20   O     O_R   0.561620 0.112500 0.622850 -0.612036
O21   O     O_R   0.438400 0.989630 0.377130 -0.622446
O22   O     O_R   0.561600 0.010370 0.622870 -0.622605
O23   O     O_R   0.944190 0.034670 0.569380 -0.622864
O24   O     O_R   0.055810 0.965330 0.430620 -0.626914
Zn1   Zn    Zn3+2 0.068220 0.500010 0.499990 0.991950
Zn2   Zn    Zn3+2 0.931780 0.499990 0.500010 1.000833
Zn3   Zn    Zn3+2 0.499800 0.931810 0.500010 0.958186
Zn4   Zn    Zn3+2 0.500200 0.068190 0.499990 0.958401
Zn5   Zn    Zn3+2 0.046310 0.046310 0.592620 0.955026
Zn6   Zn    Zn3+2 0.953690 0.953690 0.407380 0.954020
C53   C     C_3   0.273909 0.914407 0.082368 -0.993803
H23   H     H_    0.214167 0.904430 0.058427 0.247913
H24   H     H_    0.307700 0.948733 0.151940 0.250621
H25   H     H_    0.285288 0.947980 0.062243 0.261175
C54   C     C_3   0.733521 0.086884 0.917874 -0.994379
H26   H     H_    0.793246 0.099747 0.941834 0.248113
H27   H     H_    0.724809 0.052095 0.938067 0.261049
H28   H     H_    0.699742 0.052583 0.848303 0.250650
C55   C     C_3   0.144411 0.241678 0.614092 -0.838447
H29   H     H_    0.190164 0.290894 0.645289 0.221576
H30   H     H_    0.140577 0.244644 0.663128 0.255077
H31   H     H_    0.158972 0.191132 0.584259 0.230406
C56   C     C_3   0.021707 0.751827 0.380750 -0.820079
H32   H     H_    0.034030 0.700524 0.348177 0.229611
H33   H     H_    0.967639 0.750547 0.332998 0.254050
H34   H     H_    0.066691 0.800193 0.408745 0.227843
C57   C     C_3   0.726350 0.953636 0.342394 -0.819376
H35   H     H_    0.665797 0.940458 0.296866 0.231663
H36   H     H_    0.757123 0.985071 0.333747 0.244508
H37   H     H_    0.738236 0.899974 0.327527 0.246398
C58   C     C_3   0.273670 0.046271 0.657695 -0.818434
H38   H     H_    0.334237 0.059310 0.703295 0.231104
H39   H     H_    0.261954 0.100077 0.672651 0.244263
H40   H     H_    0.242744 0.014806 0.666246 0.245667
C59   C     C_3   0.642602 0.056879 0.413001 -0.877444
H41   H     H_    0.659461 0.069473 0.379858 0.241570
H42   H     H_    0.582657 0.023990 0.368037 0.240510
H43   H     H_    0.651358 0.110935 0.466200 0.256478
C60   C     C_3   0.357213 0.942764 0.586752 -0.877385
H44   H     H_    0.340316 0.930075 0.619839 0.241926
H45   H     H_    0.348340 0.888689 0.533395 0.255771
H46   H     H_    0.417219 0.975597 0.631794 0.240917
C61   C     C_3   0.718093 0.934365 0.503065 -0.922706
H47   H     H_    0.692903 0.904745 0.517818 0.263715
H48   H     H_    0.717989 0.890876 0.448647 0.254009
H49   H     H_    0.776116 0.965963 0.559118 0.239116
C62   C     C_3   0.281923 0.065838 0.497118 -0.922855
H50   H     H_    0.306983 0.095399 0.482173 0.263634
H51   H     H_    0.223793 0.034302 0.441131 0.239676
H52   H     H_    0.282243 0.109437 0.551725 0.251765
C63   C     C_2   0.085835 0.734859 0.914561 0.439809
H53   H     H_    0.053275 0.744684 0.940629 0.078406
O25   O     O_2   0.065291 0.742647 0.857288 -0.574781
C64   C     C_2   0.915472 0.272651 0.085469 0.439442
H54   H     H_    0.947756 0.265656 0.059466 0.078340
O26   O     O_2   0.938177 0.264340 0.142715 -0.574021
C65   C     C_2   0.126261 0.630162 0.921412 0.386850
H55   H     H_    0.165080 0.604673 0.948038 0.079422
O27   O     O_2   0.060511 0.593499 0.868928 -0.558359
C66   C     C_2   0.868610 0.374947 0.078422 0.384415
H56   H     H_    0.827538 0.398799 0.051659 0.079715
O28   O     O_2   0.933579 0.414041 0.130975 -0.562986
C67   C     C_3   0.193443 0.736212 0.094768 -0.918948
H57   H     H_    0.133200 0.715597 0.066277 0.248739
H58   H     H_    0.218186 0.690841 0.092662 0.247033
H59   H     H_    0.219415 0.781528 0.161516 0.259402
C68   C     C_3   0.802605 0.269969 0.905090 -0.917404
H60   H     H_    0.862325 0.293350 0.933563 0.248765
H61   H     H_    0.777351 0.225066 0.838365 0.259759
H62   H     H_    0.775259 0.313729 0.907107 0.246880
C69   C     C_2   0.374385 0.865029 0.077030 0.423788
H63   H     H_    0.417122 0.903621 0.143466 0.069198
O29   O     O_2   0.392969 0.841837 0.028444 -0.588082
C70   C     C_2   0.630517 0.130020 0.923144 0.423024
H64   H     H_    0.588279 0.090439 0.856788 0.070167
O30   O     O_2   0.611961 0.151168 0.971673 -0.588170

loop_
_geom_bond_atom_site_label_1
_geom_bond_atom_site_label_2
_ccdc_geom_bond_type
C26   O20   A    
C4    C54   S    
C49   H1    S    
C25   O19   A    
C69   H63   S    
C25   C45   S    
C40   H4    S    
C14   C18   S    
C53   H23   S    
C2    O10   A    
C2    O2    A    
C42   C64   S    
C36   C60   S    
C34   H14   S    
C63   H53   S    
C33   H13   S    
C21   O15   A    
C3    C53   S    
C6    H20   S    
C5    C47   S    
C50   H2    S    
C6    C48   S    
O6    Zn6   S    
C32   C36   S    
C42   C66   S    
C64   O26   D    
O13   Zn2   S    
C54   H27   S    
C17   H9    S    
C16   C30   S    
C22   C38   S    
C23   O11   A    
C49   H5    S    
C18   C20   D    
C16   H8    S    
C11   C23   S    
O16   Zn4   S    
C57   H37   S    
C63   O25   D    
C62   H50   S    
C67   H57   S    
C39   H3    S    
C19   H11   S    
C49   C51   S    
C58   H40   S    
C50   C52   S    
C65   H55   S    
C31   C33   D    
C15   C29   S    
O12   Zn2   S    
C35   C59   S    
C66   O28   D    
O21   Zn4   S    
C3    C5    S    
C55   H31   S    
C30   O6    A    
C44   C52   S    
C70   O30   D    
C28   C34   S    
C67   H58   S    
C23   O13   A    
O22   Zn3   S    
C41   C43   S    
O5    Zn5   S    
C42   C44   S    
C68   H61   S    
C6    H22   S    
C26   O22   A    
C61   H49   S    
C1    C19   S    
C2    C20   S    
C50   H6    S    
C41   C47   S    
C64   H54   S    
C31   C57   S    
C4    C6    S    
C56   H34   S    
O19   Zn3   S    
C3    C51   S    
C18   H10   S    
C43   C67   S    
C27   C33   S    
C4    C70   S    
C62   H51   S    
C1    O1    A    
C32   C58   S    
C30   O8    A    
C29   O7    A    
O11   Zn1   S    
C58   H39   S    
C60   H46   S    
C53   H24   S    
C29   O5    A    
O8    Zn5   S    
C14   C56   S    
O1    Zn1   S    
C22   O16   A    
C41   C63   S    
C40   C50   S    
C42   C48   S    
C53   H25   S    
C44   H18   S    
C9    C11   T    
C66   H56   S    
C57   H35   S    
O23   Zn5   S    
C10   C12   T    
O18   Zn3   S    
C41   C65   S    
C70   H64   S    
C39   C49   S    
C4    C52   S    
C25   O21   A    
C67   H59   S    
O9    Zn2   S    
C13   C15   D    
C10   C48   S    
C58   H38   S    
C38   C62   S    
C14   C16   D    
C54   H28   S    
C1    O9    A    
C44   C68   S    
O17   Zn4   S    
C7    C45   T    
C68   H62   S    
C28   O4    A    
C3    C69   S    
C39   C47   S    
C55   H29   S    
C21   O17   A    
C28   O24   A    
C40   C48   S    
C8    C52   S    
C27   O23   A    
O15   Zn3   S    
O4    Zn5   S    
C61   H48   S    
O10   Zn1   S    
C15   H7    S    
C24   O14   A    
C27   O3    A    
C9    C47   S    
C62   H52   S    
O2    Zn2   S    
C39   H15   S    
C61   H47   S    
C12   C24   S    
C13   C17   S    
C59   H43   S    
C56   H33   S    
C59   H41   S    
C7    C51   S    
C35   C37   D    
C5    H19   S    
C68   H60   S    
C56   H32   S    
C20   H12   S    
C43   C51   S    
C60   H44   S    
O24   Zn6   S    
C36   C38   D    
C17   C19   D    
C31   C35   S    
C65   O27   D    
C5    H21   S    
C8    C46   T    
C57   H36   S    
O14   Zn1   S    
C26   C46   S    
C21   C37   S    
O20   Zn4   S    
C69   O29   D    
C40   H16   S    
C54   H26   S    
C60   H45   S    
C22   O18   A    
O3    Zn6   S    
C37   C61   S    
C59   H42   S    
C43   H17   S    
C24   O12   A    
C13   C55   S    
C32   C34   D    
C55   H30   S    
O7    Zn6   S    
