data_mof_unit_27170.cif
_audit_creation_date              2012-12-11T16:08:29-0500
_audit_creation_method            fapswitch 2.2
_symmetry_space_group_name_H-M    P1
_symmetry_Int_Tables_number       1
_space_group_crystal_system       triclinic
_cell_length_a                    12.870201
_cell_length_b                    13.354808
_cell_length_c                    27.711849
_cell_angle_alpha                 94.706222
_cell_angle_beta                  90.414211
_cell_angle_gamma                 119.431511
_cell_volume                      4128.18694479

loop_
_atom_site_label
_atom_site_type_symbol
_atom_type_description
_atom_site_fract_x
_atom_site_fract_y
_atom_site_fract_z
_atom_type_partial_charge
C1    C     C_R   0.602268 0.927698 0.422590 0.535847
C2    C     C_R   0.168018 0.743840 0.299405 -0.029126
C3    C     C_2   0.387935 0.020080 0.718629 0.200900
C4    C     C_2   0.432350 0.743964 0.810530 0.205896
C5    C     C_2   0.419263 0.764043 0.704895 0.239729
C6    C     C_2   0.199534 0.566798 0.194276 0.320672
C7    C     C_R   0.177866 0.748560 0.197988 0.081437
C8    C     C_R   0.601643 0.222882 0.440803 0.530175
C9    C     C_R   0.184401 0.659805 0.220548 0.031361
C10   C     C_R   0.171334 0.655031 0.270206 -0.113079
C11   C     C_R   0.178228 0.751651 0.147168 0.262261
C12   C     C_R   0.134203 0.816662 0.126118 -0.006791
C13   C     C_R   0.175628 0.929877 0.358487 0.170870
C14   C     C_R   0.152665 0.920428 0.307559 -0.023584
C15   C     C_R   0.160898 0.832562 0.278028 -0.043122
C16   C     C_R   0.608964 0.235527 0.218110 0.303618
C17   C     C_R   0.125368 0.997455 0.284967 0.072707
C18   C     C_R   0.114963 0.990593 0.234058 0.256378
C19   C     C_R   0.136130 0.910750 0.205173 0.003684
C20   C     C_R   0.266604 0.874989 0.425797 0.551208
C21   C     C_R   0.158821 0.831019 0.227077 -0.004298
C22   C     C_R   0.125552 0.903158 0.154584 -0.134765
C23   C     C_R   0.197218 0.847427 0.378805 0.039195
C24   C     C_R   0.694539 0.001208 0.344217 0.227235
C25   C     C_R   0.695390 0.985114 0.293452 0.076956
C26   C     C_R   0.705374 0.946392 0.193096 -0.050132
C27   C     C_R   0.593821 0.219997 0.267375 0.322367
C28   C     C_R   0.767509 0.060727 0.215668 0.020450
C29   C     C_R   0.768780 0.078472 0.266539 0.288365
C30   C     C_R   0.726947 0.921822 0.145642 -0.174993
C31   C     C_R   0.666860 0.809697 0.122956 -0.001774
C32   C     C_R   0.627328 0.899600 0.565272 0.563981
C33   C     C_R   0.532370 0.803677 0.344782 -0.127076
C34   C     C_R   0.541013 0.782118 0.295297 0.020785
C35   C     C_R   0.620814 0.873729 0.269273 -0.057301
C36   C     C_R   0.473811 0.669156 0.272390 0.220664
C37   C     C_R   0.492117 0.645259 0.223527 -0.003224
C38   C     C_R   0.664348 0.312839 0.303052 0.022797
C39   C     C_R   0.562974 0.738990 0.196019 -0.008715
C40   C     C_R   0.628740 0.853181 0.219428 -0.012514
C41   C     C_R   0.572147 0.721920 0.145678 0.208272
C42   C     C_R   0.610383 0.910772 0.369846 -0.040785
C43   C     C_R   0.744596 0.299303 0.651518 0.229902
C44   C     C_R   0.605057 0.228635 0.578183 0.559218
C45   C     C_R   0.777108 0.355110 0.698957 0.002864
C46   C     C_R   0.808335 0.428160 0.798767 0.001749
C47   C     C_R   0.881606 0.387017 0.777093 0.228789
C48   C     C_R   0.871245 0.358219 0.726743 0.293359
C49   C     C_R   0.692747 0.344459 0.203659 0.005026
C50   C     C_R   0.822628 0.467236 0.848495 0.234807
C51   C     C_R   0.728365 0.473437 0.871639 -0.006679
C52   C     C_R   0.609671 0.376684 0.640739 0.223731
C53   C     C_R   0.631348 0.421482 0.689961 0.041698
C54   C     C_R   0.709568 0.403315 0.719614 -0.099628
C55   C     C_R   0.574739 0.481427 0.710906 0.034169
C56   C     C_R   0.272034 0.879615 0.563396 0.550848
C57   C     C_R   0.571162 0.494232 0.761784 0.222785
C58   C     C_R   0.640919 0.465628 0.791552 0.081315
C59   C     C_R   0.720542 0.433513 0.769928 -0.052168
C60   C     C_1   0.696456 0.365145 0.153070 0.010075
C61   C     C_R   0.634403 0.469470 0.842591 -0.014135
C62   C     C_R   0.657277 0.306294 0.623241 0.010493
C63   C     C_1   0.223513 0.864362 0.610271 0.061862
C64   C     C_R   0.063408 0.779937 0.719670 0.010648
C65   C     C_R   0.048984 0.773431 0.770137 0.197757
C66   C     C_R   0.260014 0.918835 0.787222 0.000032
C67   C     C_R   0.273103 0.931271 0.736899 -0.044320
C68   C     C_1   0.632690 0.268888 0.394923 0.039823
C69   C     C_R   0.176245 0.857940 0.703289 -0.021432
C70   C     C_R   0.147607 0.838942 0.803249 0.070509
C71   C     C_1   0.650334 0.293806 0.353825 0.053667
C72   C     C_1   0.129154 0.820621 0.853954 0.107249
C73   C     C_1   0.196621 0.859157 0.651914 0.035681
C74   C     C_1   0.103509 0.799610 0.895058 0.072050
C75   C     C_1   0.640411 0.870381 0.612593 0.072694
C76   C     C_R   0.749827 0.867081 0.729474 -0.117995
C77   C     C_R   0.756389 0.861331 0.779521 0.250294
C78   C     C_R   0.540723 0.788328 0.781535 -0.038634
C79   C     C_R   0.534863 0.794840 0.730594 0.007700
C80   C     C_R   0.751137 0.421299 0.288974 -0.022965
C81   C     C_R   0.641247 0.834737 0.705054 0.010943
C82   C     C_1   0.702886 0.392166 0.112319 0.042050
C83   C     C_R   0.652153 0.821719 0.805407 0.065775
C84   C     C_1   0.661509 0.806514 0.855995 0.031519
C85   C     C_1   0.643343 0.852100 0.654274 0.065142
C86   C     C_1   0.679142 0.792913 0.897047 0.011992
C87   C     C_R   0.067455 0.773974 0.078694 0.541005
C88   C     C_R   0.716405 0.440021 0.066902 0.567185
C89   C     C_R   0.717512 0.783139 0.079806 0.543541
C90   C     C_R   0.056847 0.766344 0.941418 0.540079
C91   C     C_R   0.733407 0.491494 0.925550 0.565554
C92   C     C_R   0.765392 0.437312 0.238977 -0.013259
C93   C     C_R   0.175439 0.746602 0.349901 0.193192
C94   C     C_R   0.714998 0.776477 0.943384 0.530897
C95   C     C_2   0.830374 0.517627 0.326075 0.260903
C96   C     C_2   0.092840 0.076649 0.313274 0.361802
C97   C     C_2   0.822270 0.160857 0.185556 0.267933
C98   C     C_2   0.458288 0.524549 0.204380 0.316377
C99   C     C_2   0.852611 0.553510 0.224165 0.224406
C100  C     C_2   0.526509 0.462751 0.864560 0.355669
C101  C     C_2   0.529666 0.541053 0.681065 0.330703
C102  C     C_2   0.961732 0.700842 0.684732 0.243808
C103  C     C_2   0.365755 0.983897 0.822164 0.281393
Cr1   Cr    Cr6+3 0.416430 0.829200 0.492370 1.106549
Cr2   Cr    Cr6+3 0.674630 0.087020 0.504170 1.109497
Cr3   Cr    Cr6+3 0.408920 0.083740 0.503490 1.085317
Cr4   Cr    Cr6+3 0.914010 0.832750 0.013970 1.061536
Cr5   Cr    Cr6+3 0.922310 0.578600 0.003000 1.120372
Cr6   Cr    Cr6+3 0.656280 0.574630 0.003870 1.057041
H1    H     H_    0.797617 0.988519 0.127122 0.136293
H2    H     H_    0.737431 0.133772 0.388630 0.342406
H3    H     H_    0.794365 0.149276 0.147551 0.097499
H4    H     H_    0.919790 0.214685 0.281922 0.396739
H5    H     H_    0.475411 0.640302 0.086869 0.346434
H6    H     H_    0.515360 0.510044 0.179489 0.152148
H7    H     H_    0.324635 0.532553 0.280820 0.377814
H8    H     H_    0.873331 0.631313 0.247273 0.080848
H9    H     H_    0.995065 0.539522 0.852920 0.367616
H10   H     H_    0.778583 0.176210 0.659610 0.346372
H11   H     H_    0.914629 0.329825 0.833737 0.365443
H12   H     H_    0.468158 0.734758 0.364546 0.201892
H13   H     H_    0.019601 0.350466 0.726625 0.388987
H14   H     H_    0.534146 0.527949 0.892393 0.133396
H15   H     H_    0.435358 0.519532 0.764121 0.351598
H16   H     H_    0.444070 0.535804 0.686944 0.141827
H17   H     H_    0.563617 0.403817 0.578884 0.353742
H18   H     H_    0.896791 0.615780 0.694015 0.117628
H19   H     H_    0.566282 0.156305 0.152253 0.309326
H20   H     H_    0.874565 0.691233 0.765784 0.327287
H21   H     H_    0.454418 0.006593 0.810646 0.130504
H22   H     H_    0.417841 0.003100 0.683978 0.104825
H23   H     H_    0.830308 0.898254 0.709456 0.135769
H24   H     H_    0.928294 0.920308 0.780795 0.336848
H25   H     H_    0.439787 0.777439 0.848181 0.116070
H26   H     H_    0.350862 0.772628 0.724165 0.138798
H27   H     H_    0.502937 0.108167 0.313973 0.309647
H28   H     H_    0.243955 0.724064 0.088085 0.333953
H29   H     H_    0.237587 0.645250 0.360623 0.337690
H30   H     H_    0.267995 0.586493 0.168412 0.190022
H31   H     H_    0.169862 0.583152 0.286151 0.176668
H32   H     H_    0.101852 0.958879 0.136848 0.163734
H33   H     H_    0.920971 0.578777 0.318045 0.127066
H34   H     H_    0.010816 0.010100 0.190189 0.307448
H35   H     H_    0.037084 0.047899 0.343956 0.140420
H36   H     H_    0.149665 0.996294 0.418420 0.340892
O1    O     O_R   0.296680 0.802170 0.437540 -0.471115
O2    O     O_R   0.637200 0.461990 0.052510 -0.485730
O3    O     O_R   0.664790 0.681920 0.057970 -0.479575
O4    O     O_R   0.525380 0.838530 0.443500 -0.495922
O5    O     O_R   0.815840 0.852920 0.961840 -0.476826
O6    O     O_R   0.012100 0.822630 0.963670 -0.488919
O7    O     O_R   0.037010 0.668460 0.953040 -0.477198
O8    O     O_R   0.813390 0.478970 0.949660 -0.421963
O9    O     O_R   0.632250 0.456930 0.945520 -0.523130
O10   O     O_R   0.660200 0.677230 0.958780 -0.548219
O11   O     O_3   0.830870 0.661990 0.006950 -0.290693
O12   O     O_R   0.662610 0.183990 0.557860 -0.437878
O13   O     O_R   0.702130 0.995190 0.446810 -0.460006
O14   O     O_R   0.661770 0.181390 0.458760 -0.533550
O15   O     O_R   0.499820 0.198480 0.455280 -0.472139
O16   O     O_R   0.311660 0.976250 0.449080 -0.491213
O17   O     O_R   0.297580 0.804960 0.544440 -0.469915
O18   O     O_R   0.526220 0.841130 0.542590 -0.467221
O19   O     O_R   0.703030 0.997990 0.553710 -0.478342
O20   O     O_2   0.794974 0.531290 0.365494 -0.464237
O21   O     O_3   0.079442 0.060365 0.213393 -0.620131
O22   O     O_2   0.127077 0.174349 0.302280 -0.380889
O23   O     O_R   0.500730 0.201280 0.562180 -0.488228
O24   O     O_3   0.185541 0.023684 0.387280 -0.683130
O25   O     O_3   0.780176 0.103553 0.368386 -0.610327
O26   O     O_2   0.896047 0.257958 0.202522 -0.411522
O27   O     O_3   0.835765 0.187833 0.289945 -0.612239
O28   O     O_3   0.487526 0.621329 0.119539 -0.701322
O29   O     O_2   0.368496 0.440420 0.215899 -0.418484
O30   O     O_3   0.400763 0.582039 0.299987 -0.669007
O31   O     O_2   0.903980 0.563768 0.186503 -0.477392
O32   O     O_3   0.928484 0.502529 0.874714 -0.653095
O33   O     O_3   0.787438 0.227459 0.634109 -0.607143
O34   O     O_R   0.312500 0.978850 0.548170 -0.497008
O35   O     O_3   0.955912 0.363353 0.804265 -0.679555
O36   O     O_3   0.951282 0.331612 0.703939 -0.639193
O37   O     O_2   0.427351 0.383237 0.851120 -0.415081
O38   O     O_3   0.511442 0.546890 0.783092 -0.694940
O39   O     O_2   0.590712 0.600044 0.650022 -0.445453
O40   O     O_3   0.531452 0.390928 0.611602 -0.626742
O41   O     O_2   0.947979 0.730351 0.645731 -0.472224
O42   O     O_3   0.537732 0.141217 0.185318 -0.641344
O43   O     O_3   0.939756 0.702890 0.788683 -0.709702
O44   O     O_2   0.355626 0.014128 0.863826 -0.480561
O45   O     O_3   0.499990 0.999990 0.500010 -0.310926
O46   O     O_2   0.447961 0.114863 0.741164 -0.491431
O47   O     O_3   0.863860 0.893565 0.804015 -0.659296
O48   O     O_2   0.335410 0.666347 0.793681 -0.490320
O49   O     O_2   0.397934 0.726805 0.662151 -0.484148
O50   O     O_3   0.508936 0.111075 0.278559 -0.641616
O51   O     O_3   0.214107 0.686322 0.118258 -0.703028
O52   O     O_3   0.169120 0.654312 0.371433 -0.641261
O53   O     O_2   0.138089 0.466564 0.202970 -0.393700
O54   O     O_R   0.820790 0.857990 0.068830 -0.519046
O55   O     O_R   0.016700 0.827330 0.062850 -0.508219
O56   O     O_R   0.041970 0.673520 0.060040 -0.463477
O57   O     O_R   0.817980 0.483660 0.048840 -0.468971

loop_
_geom_bond_atom_site_label_1
_geom_bond_atom_site_label_2
_ccdc_geom_bond_type
C28   C97   S    
C89   O3    A    
C43   O33   S    
C56   O17   A    
C46   C59   A    
H19   O42   S    
C24   C42   A    
C93   O52   S    
C51   C61   A    
C6    C9    S    
C18   O21   S    
C39   C41   A    
Cr2   O14   S    
C53   C54   A    
C64   C102  S    
C102  O41   D    
C49   C60   S    
C30   H1    S    
C3    H22   S    
C33   C42   A    
C4    H25   S    
C28   C29   A    
C19   C21   A    
C84   C86   T    
C55   C101  S    
C91   O8    A    
Cr1   O17   S    
C48   O36   S    
C98   O29   D    
Cr3   O15   S    
C96   H35   S    
C77   C83   A    
C27   C38   A    
C65   C70   A    
C32   O18   A    
C12   C22   A    
C13   C23   A    
C5    H26   S    
C18   C19   A    
C44   O23   A    
Cr3   O16   S    
C6    H30   S    
Cr6   O11   S    
Cr5   O57   S    
C86   C94   S    
C51   C91   S    
Cr5   O7    S    
Cr4   O5    S    
C60   C82   T    
C78   C83   A    
C75   C85   T    
H13   O36   S    
Cr2   O12   S    
C99   O31   D    
C47   C48   A    
C94   O10   A    
C31   C89   S    
C101  H16   S    
C69   C73   S    
C103  O44   D    
H10   O33   S    
C5    C79   S    
C100  O37   D    
C9    C10   A    
Cr4   O11   S    
C12   C87   S    
Cr4   O6    S    
C58   C61   A    
C13   O24   S    
C66   C67   A    
C65   O43   S    
C13   C14   A    
C33   H12   S    
C44   O12   A    
C14   C17   A    
Cr6   O2    S    
C10   H31   S    
C87   O55   A    
Cr1   O18   S    
C34   C35   A    
Cr4   O55   S    
C95   O20   D    
C37   C98   S    
C33   C34   A    
H4    O27   S    
C57   C58   A    
C54   C59   A    
C53   C55   A    
C25   C29   A    
C4    O48   D    
C89   O54   A    
H36   O24   S    
C96   O22   D    
Cr5   O8    S    
Cr1   O1    S    
C50   O32   S    
C16   C49   A    
H15   O38   S    
C90   O7    A    
C102  H18   S    
C39   C40   A    
C6    O53   D    
C97   H3    S    
C78   C79   A    
C63   C73   T    
C44   C62   S    
C91   O9    A    
C7    C21   A    
C23   C93   A    
C67   C69   A    
Cr3   O23   S    
Cr1   O4    S    
C80   C92   A    
C7    C11   A    
H29   O52   S    
H34   O21   S    
C4    C78   S    
C47   O35   S    
Cr6   O9    S    
C32   C75   S    
C3    O46   D    
C99   H8    S    
C83   C84   S    
Cr5   O11   S    
C20   C23   S    
C30   C31   A    
Cr1   O45   S    
C19   C22   A    
C17   C18   A    
C95   H33   S    
C56   C63   S    
C50   C51   A    
C17   C96   S    
C64   C69   A    
C24   C25   A    
C80   C95   S    
C1    O4    A    
C2    C15   A    
C43   C45   A    
C101  O39   D    
H27   O50   S    
C72   C74   T    
C25   C35   A    
C45   C54   A    
C26   C30   A    
C55   C57   A    
C20   O1    A    
H5    O28   S    
Cr6   O3    S    
C27   O50   S    
C52   O40   S    
Cr3   O45   S    
C49   C92   A    
C8    O15   A    
Cr3   O34   S    
C57   O38   S    
C24   O25   S    
C52   C53   A    
C79   C81   A    
C45   C48   A    
C7    C9    A    
C41   O28   S    
C46   C47   A    
C1    O13   A    
C31   C41   A    
H7    O30   S    
C92   C99   S    
C77   O47   S    
Cr2   O45   S    
H17   O40   S    
C3    C67   S    
C90   O6    A    
C16   O42   S    
C76   C81   A    
C11   C12   A    
C8    C68   S    
Cr2   O19   S    
C94   O5    A    
C46   C50   A    
C26   C28   A    
C97   O26   D    
H2    O25   S    
C64   C65   A    
C100  H14   S    
C2    C93   A    
C35   C40   A    
C58   C59   A    
C37   C39   A    
Cr2   O13   S    
C52   C62   A    
C66   C103  S    
Cr4   O54   S    
C76   C77   A    
C76   H23   S    
C26   C40   A    
C98   H6    S    
C66   C70   A    
C38   C80   A    
C16   C27   A    
C68   C71   T    
C82   C88   S    
C74   C90   S    
C32   O19   A    
C22   H32   S    
C88   O2    A    
C34   C36   A    
C29   O27   S    
H11   O35   S    
Cr6   O10   S    
C103  H21   S    
H28   O51   S    
Cr5   O56   S    
C20   O16   A    
C61   C100  S    
H9    O32   S    
C1    C42   S    
C15   C21   A    
C43   C62   A    
C36   O30   S    
C36   C37   A    
H20   O43   S    
C14   C15   A    
C70   C72   S    
C88   O57   A    
C8    O14   A    
C11   O51   S    
C87   O56   A    
C81   C85   S    
C38   C71   S    
H24   O47   S    
C5    O49   D    
C56   O34   A    
C2    C10   A    
