data_mof_unit_64929.cif
_audit_creation_date              2012-10-26T19:12:51-0400
_audit_creation_method            fapswitch 2.2
_symmetry_space_group_name_H-M    P1
_symmetry_Int_Tables_number       1
_space_group_crystal_system       triclinic
_cell_length_a                    16.105362
_cell_length_b                    17.210416
_cell_length_c                    23.535275
_cell_angle_alpha                 91.11149
_cell_angle_beta                  93.498977
_cell_angle_gamma                 97.251428
_cell_volume                      6456.84747599

loop_
_atom_site_label
_atom_site_type_symbol
_atom_type_description
_atom_site_fract_x
_atom_site_fract_y
_atom_site_fract_z
_atom_type_partial_charge
C1    C     C_R   0.488871 0.349415 0.498010 0.556492
C2    C     C_R   0.426500 0.503195 0.698953 -0.138819
C3    C     C_R   0.573197 0.496337 0.241709 0.024708
C4    C     C_R   0.426800 0.503637 0.758292 0.024711
C5    C     C_R   0.497576 0.498554 0.208940 0.209884
C6    C     C_R   0.502425 0.501437 0.791060 0.209887
C7    C     C_R   0.483471 0.264150 0.491690 0.010407
C8    C     C_R   0.516529 0.735850 0.508310 0.010406
C9    C     C_R   0.553655 0.230809 0.475019 -0.103898
C10   C     C_R   0.446343 0.769192 0.524977 -0.103898
C11   C     C_R   0.550309 0.150189 0.469054 -0.081411
C12   C     C_R   0.511129 0.650585 0.501990 0.556494
C13   C     C_R   0.449689 0.849811 0.530943 -0.081411
C14   C     C_R   0.477283 0.101625 0.480395 0.048592
C15   C     C_R   0.522717 0.898375 0.519605 0.048592
C16   C     C_R   0.499564 0.499834 0.391034 0.561953
C17   C     C_R   0.500436 0.500165 0.608966 0.561952
C18   C     C_R   0.405683 0.134313 0.495792 0.015053
C19   C     C_R   0.594318 0.865687 0.504211 0.015052
C20   C     C_R   0.409041 0.215711 0.501115 -0.105256
C21   C     C_R   0.590960 0.784289 0.498888 -0.105256
C22   C     C_2   0.479293 0.016979 0.478876 0.066799
C23   C     C_R   0.422482 0.501055 0.236072 0.025136
C24   C     C_2   0.520707 0.983021 0.521123 0.066800
C25   C     C_R   0.743255 0.458321 0.472917 0.044255
C26   C     C_R   0.256745 0.541680 0.527083 0.044252
C27   C     C_R   0.828448 0.449853 0.476911 0.048961
C28   C     C_R   0.171552 0.550148 0.523088 0.048961
C29   C     C_R   0.883307 0.496289 0.516733 0.006437
C30   C     C_R   0.116693 0.503711 0.483266 0.006436
C31   C     C_R   0.848913 0.546707 0.554202 0.080992
C32   C     C_R   0.151087 0.453292 0.445798 0.080990
C33   C     C_R   0.762782 0.555179 0.547349 0.239733
C34   C     C_R   0.577522 0.498956 0.763929 0.025133
C35   C     C_R   0.237218 0.444820 0.452651 0.239734
C36   C     C_2   0.975149 0.490694 0.521519 -0.060679
C37   C     C_2   0.024851 0.509305 0.478480 -0.060679
C38   C     C_R   0.514629 0.571474 0.881879 0.428669
C39   C     C_R   0.485365 0.428515 0.118121 0.428672
C40   C     C_R   0.490322 0.431665 0.878663 0.418762
C41   C     C_R   0.509696 0.568324 0.121338 0.418762
C42   C     C_R   0.489029 0.429936 0.938018 0.012954
C43   C     C_R   0.510988 0.570052 0.061983 0.012954
C44   C     C_R   0.500779 0.500910 0.969973 -0.051020
C45   C     C_R   0.423339 0.501526 0.295467 -0.126381
C46   C     C_R   0.499232 0.499078 0.030028 -0.051019
C47   C     C_R   0.513998 0.573446 0.941962 0.036550
C48   C     C_R   0.486009 0.426542 0.058039 0.036552
C49   C     C_R   0.476000 0.358569 0.965664 -0.084415
C50   C     C_R   0.524024 0.641419 0.034338 -0.084416
C51   C     C_R   0.474298 0.355795 0.024730 0.108942
C52   C     C_R   0.525720 0.644193 0.975271 0.108943
C53   C     C_1   0.329571 0.085461 0.507996 0.246404
C54   C     C_1   0.670432 0.914538 0.492010 0.246405
C55   C     C_1   0.344175 0.503228 0.203309 0.267997
C56   C     C_R   0.576664 0.498487 0.704533 -0.126381
C57   C     C_1   0.655833 0.496799 0.796690 0.267994
C58   C     C_1   0.650926 0.493556 0.214795 0.259562
C59   C     C_1   0.349066 0.506396 0.785206 0.259564
C60   C     C_R   0.498723 0.499397 0.328383 -0.010953
C61   C     C_R   0.501277 0.500600 0.671617 -0.010957
C62   C     C_R   0.573497 0.496782 0.301047 -0.138817
Cu1   Cu    Cu3+1 0.415410 0.495980 0.497100 1.001150
Cu2   Cu    Cu3+1 0.584590 0.504020 0.502900 1.001151
H1    H     H_    0.466902 0.303864 0.941194 0.193497
H2    H     H_    0.634871 0.496199 0.684109 0.162654
H3    H     H_    0.632205 0.494908 0.325800 0.145770
H4    H     H_    0.367788 0.505055 0.674201 0.145772
H5    H     H_    0.611380 0.267016 0.466542 0.149389
H6    H     H_    0.388617 0.732984 0.533452 0.149391
H7    H     H_    0.645594 0.758916 0.486349 0.153438
H8    H     H_    0.354408 0.241084 0.513656 0.153435
H9    H     H_    0.533129 0.696124 0.058808 0.193499
H10   H     H_    0.394549 0.874665 0.543051 0.159922
H11   H     H_    0.605449 0.125336 0.456944 0.159921
H12   H     H_    0.700998 0.420805 0.443627 0.152258
H13   H     H_    0.299001 0.579195 0.556372 0.152261
H14   H     H_    0.996622 0.524277 0.437706 0.174311
H15   H     H_    0.003378 0.475722 0.562293 0.174310
H16   H     H_    0.365135 0.503829 0.315891 0.162648
I1    I     I_    0.285411 0.360643 0.399933 -0.217997
I2    I     I_    0.420297 0.954002 0.405365 -0.255937
I3    I     I_    0.714590 0.639357 0.600067 -0.218011
I4    I     I_    0.924410 0.603804 0.624520 -0.192200
I5    I     I_    0.075591 0.396194 0.375480 -0.192199
I6    I     I_    0.136584 0.644813 0.570594 -0.271889
I7    I     I_    0.863415 0.355189 0.429403 -0.271892
I8    I     I_    0.453296 0.239758 0.055856 -0.123214
I9    I     I_    0.546746 0.760230 0.944148 -0.123214
I10   I     I_    0.579703 0.045999 0.594634 -0.255933
N1    N     N_R   0.502800 0.501522 0.852121 -0.406746
N2    N     N_1   0.286769 0.508614 0.806857 -0.218317
N3    N     N_R   0.497203 0.498468 0.147879 -0.406748
N4    N     N_R   0.711660 0.510070 0.507250 -0.259939
N5    N     N_R   0.288340 0.489930 0.492750 -0.259941
N6    N     N_1   0.268600 0.046247 0.517786 -0.214200
N7    N     N_1   0.731404 0.953753 0.482223 -0.214197
N8    N     N_1   0.281399 0.504958 0.176974 -0.212018
N9    N     N_1   0.718614 0.495082 0.823024 -0.212016
N10   N     N_1   0.713219 0.491318 0.193142 -0.218317
O1    O     O_R   0.420280 0.382610 0.497280 -0.478487
O2    O     O_2   0.473309 0.361885 0.147177 -0.425757
O3    O     O_2   0.479026 0.364075 0.847466 -0.463214
O4    O     O_2   0.521005 0.635914 0.152535 -0.463216
O5    O     O_R   0.579720 0.617390 0.502720 -0.478486
O6    O     O_R   0.563150 0.389410 0.502170 -0.514783
O7    O     O_R   0.436850 0.610590 0.497830 -0.514784
O8    O     O_R   0.428550 0.496580 0.415430 -0.479777
O9    O     O_R   0.571450 0.503420 0.584570 -0.479777
O10   O     O_R   0.571420 0.503370 0.420330 -0.514320
O11   O     O_R   0.428580 0.496630 0.579670 -0.514319
O12   O     O_2   0.526659 0.638106 0.852823 -0.425759

loop_
_geom_bond_atom_site_label_1
_geom_bond_atom_site_label_2
_ccdc_geom_bond_type
C45   C60   A    
C34   C56   A    
C23   C45   A    
C27   C29   A    
C14   C18   A    
Cu1   O1    S    
C33   N4    A    
C35   I1    S    
C16   O10   A    
Cu2   O5    S    
C15   C19   A    
C29   C36   S    
C49   H1    S    
C62   H3    S    
C21   H7    S    
C22   I2    S    
C36   C37   D    
C19   C21   A    
C9    H5    S    
C2    H4    S    
C12   O5    A    
C11   C14   A    
C6    N1    S    
C57   N9    T    
Cu1   N5    S    
C4    C59   S    
C60   C62   A    
C16   C60   S    
C39   N3    A    
C18   C53   S    
C17   C61   S    
C48   C51   A    
C41   N3    A    
C49   C51   A    
C34   C57   S    
C50   C52   A    
C31   C33   A    
C54   N7    T    
C44   C47   A    
C1    O6    A    
C40   C42   A    
C25   N4    A    
C53   N6    T    
C41   C43   A    
C52   I9    S    
C42   C44   A    
C17   O11   A    
C44   C46   A    
C46   C48   A    
C26   H13   S    
C32   C35   A    
C58   N10   T    
C4    C6    A    
C50   H9    S    
Cu2   O6    S    
C38   N1    A    
C10   C13   A    
C31   I4    S    
C6    C34   A    
C30   C37   S    
C17   O9    A    
C2    C4    A    
C33   I3    S    
Cu2   O10   S    
C5    C23   A    
C8    C12   S    
C8    C21   A    
C27   I7    S    
C9    C11   A    
C38   C47   A    
C10   H6    S    
C19   C54   S    
C15   C24   S    
C13   C15   A    
C28   I6    S    
C22   C24   D    
Cu1   O7    S    
C1    O1    A    
C39   O2    S    
C3    C62   A    
C26   N5    A    
C7    C9    A    
C1    C7    S    
C3    C5    A    
C36   H15   S    
C24   I10   S    
C51   I8    S    
C12   O7    A    
C5    N3    S    
C2    C61   A    
C43   C50   A    
C23   C55   S    
C47   C52   A    
C35   N5    A    
C25   C27   A    
C37   H14   S    
C26   C28   A    
C41   O4    S    
C25   H12   S    
C14   C22   S    
C28   C30   A    
Cu2   N4    S    
C29   C31   A    
C11   H11   S    
C40   O3    S    
C30   C32   A    
Cu2   O9    S    
C56   H2    S    
C32   I5    S    
C55   N8    T    
C45   H16   S    
C18   C20   A    
C59   N2    T    
C40   N1    A    
Cu1   O11   S    
C43   C46   A    
C16   O8    A    
C42   C49   A    
Cu1   Cu2   S    
C3    C58   S    
C13   H10   S    
C8    C10   A    
C7    C20   A    
C56   C61   A    
C20   H8    S    
Cu1   O8    S    
C38   O12   S    
C39   C48   A    
