data_mof_unit_46334.cif
_audit_creation_date              2013-03-05T15:49:05-0500
_audit_creation_method            fapswitch 2.2
_symmetry_space_group_name_H-M    P1
_symmetry_Int_Tables_number       1
_space_group_crystal_system       triclinic
_cell_length_a                    22.289938
_cell_length_b                    7.222355
_cell_length_c                    19.505406
_cell_angle_alpha                 89.999973
_cell_angle_beta                  98.283907
_cell_angle_gamma                 90.000081
_cell_volume                      3107.33145667

loop_
_atom_site_label
_atom_site_type_symbol
_atom_site_description
_atom_site_fract_x
_atom_site_fract_y
_atom_site_fract_z
_atom_type_partial_charge
O1    O     O_R   0.448470 0.506130 0.415700 -0.593371
O2    O     O_R   0.551530 0.006130 0.584300 -0.593359
O3    O     O_R   0.436320 0.174490 0.555800 -0.568884
O4    O     O_R   0.563680 0.674490 0.444200 -0.568890
C1    C     C_R   0.422705 0.343948 0.577047 1.031494
C2    C     C_R   0.577295 0.843949 0.422953 1.031498
O5    O     O_R   0.441350 0.176340 0.414480 -0.575580
O6    O     O_R   0.558650 0.676340 0.585520 -0.575590
O7    O     O_R   0.556600 0.007100 0.441970 -0.576080
O8    O     O_R   0.443400 0.507100 0.558030 -0.576092
C3    C     C_R   0.426179 0.344904 0.390438 0.971676
C4    C     C_R   0.573821 0.844904 0.609563 0.971671
O9    O     O_3   0.537810 0.339550 0.509190 -0.275647
O10   O     O_3   0.462190 0.839550 0.490810 -0.275655
V1    V     V_3+5 0.492990 0.064280 0.498300 1.257274
V2    V     V_3+5 0.507010 0.564280 0.501700 1.257263
C5    C     C_R   0.865350 0.037718 0.705230 -0.125164
C6    C     C_R   0.134649 0.537713 0.294770 -0.125165
H1    H     H_    0.949658 0.072436 0.770581 0.137380
H2    H     H_    0.050341 0.572433 0.229420 0.137380
H3    H     H_    0.790471 0.024535 0.589765 0.168008
H4    H     H_    0.209527 0.524517 0.410236 0.168016
H5    H     H_    0.883787 0.090519 0.660587 0.128052
H6    H     H_    0.116212 0.590511 0.339413 0.128052
C7    C     C_R   0.882697 0.947784 0.825656 -0.239388
C8    C     C_R   0.117303 0.447784 0.174344 -0.239389
C9    C     C_R   0.588739 0.820240 0.735320 -0.154154
C10   C     C_R   0.411261 0.320248 0.264680 -0.154159
C11   C     C_R   0.622288 0.833304 0.800627 -0.087827
C12   C     C_R   0.377711 0.333316 0.199373 -0.087825
C13   C     C_R   0.684023 0.870428 0.808258 -0.070770
C14   C     C_R   0.315977 0.370437 0.191743 -0.070771
C15   C     C_R   0.715220 0.888326 0.750536 0.096778
C16   C     C_R   0.284780 0.388327 0.249465 0.096777
C17   C     C_R   0.679813 0.886894 0.682653 -0.075011
C18   C     C_R   0.320186 0.386889 0.317348 -0.075005
C19   C     C_R   0.779792 0.920208 0.758498 -0.063508
C20   C     C_R   0.220207 0.420207 0.241502 -0.063506
C21   C     C_R   0.804675 0.983536 0.699815 0.058544
C22   C     C_R   0.195324 0.483531 0.300185 0.058543
C23   C     C_R   0.769731 0.986508 0.634801 -0.251971
C24   C     C_R   0.230268 0.486496 0.365200 -0.251974
C25   C     C_R   0.709683 0.928013 0.625043 0.335583
C26   C     C_R   0.290316 0.427998 0.374958 0.335576
C27   C     C_R   0.820749 0.890223 0.821642 0.536424
C28   C     C_R   0.179251 0.390224 0.178358 0.536423
C29   C     C_R   0.903168 0.025439 0.767778 -0.220511
C30   C     C_R   0.096832 0.525436 0.232222 -0.220510
C31   C     C_R   0.615714 0.850666 0.675924 -0.160175
C32   C     C_R   0.384286 0.350666 0.324076 -0.160171
H7    H     H_    0.540541 0.792495 0.731130 0.120601
H8    H     H_    0.459459 0.292507 0.268870 0.120601
H9    H     H_    0.705394 0.895513 0.860136 0.159784
H10   H     H_    0.294606 0.395527 0.139864 0.159783
H11   H     H_    0.599908 0.818601 0.846052 0.150071
H12   H     H_    0.400092 0.318619 0.153948 0.150071
C33   C     C_3   0.775654 0.854754 0.312255 -0.118649
C34   C     C_3   0.224347 0.354753 0.687746 -0.118645
C35   C     C_3   0.787766 0.032848 0.271415 -0.143546
C36   C     C_3   0.212234 0.532848 0.728586 -0.143545
H13   H     H_    0.820427 0.143684 0.290590 0.137186
H14   H     H_    0.179574 0.643684 0.709410 0.137186
H15   H     H_    0.797940 0.819954 0.365294 0.150282
H16   H     H_    0.202060 0.319953 0.634707 0.150283
H17   H     H_    0.693098 0.192545 0.252034 0.182192
H18   H     H_    0.306903 0.692544 0.747967 0.182192
C37   C     C_1   0.875357 0.941094 0.121162 -0.281218
C38   C     C_1   0.124643 0.441095 0.878838 -0.281218
C39   C     C_1   0.622511 0.853035 0.376387 -0.166676
C40   C     C_1   0.377489 0.353034 0.623613 -0.166675
C41   C     C_3   0.778542 0.735756 0.246221 -0.376996
C42   C     C_3   0.221459 0.235755 0.753780 -0.376998
C43   C     C_3   0.789967 0.914403 0.205681 0.023927
C44   C     C_3   0.210033 0.414403 0.794319 0.023926
C45   C     C_3   0.709563 0.765318 0.225133 0.553945
C46   C     C_3   0.290437 0.265318 0.774868 0.553944
C47   C     C_3   0.706690 0.881631 0.290457 0.060015
C48   C     C_3   0.293310 0.381630 0.709544 0.060014
C49   C     C_3   0.721306 0.941237 0.185536 0.256273
C50   C     C_3   0.278695 0.441237 0.814464 0.256274
C51   C     C_3   0.718145 0.060152 0.250459 -0.316475
C52   C     C_3   0.281856 0.560151 0.749541 -0.316474
C53   C     C_1   0.836809 0.930502 0.159143 0.099462
C54   C     C_1   0.163191 0.430503 0.840857 0.099462
C55   C     C_1   0.660410 0.864239 0.337611 0.106085
C56   C     C_1   0.339590 0.364238 0.662390 0.106092
H19   H     H_    0.803618 0.603297 0.244943 0.154165
H20   H     H_    0.196382 0.103296 0.755058 0.154166
O11   O     O_R   0.056650 0.288730 0.942060 -0.592351
O12   O     O_R   0.943350 0.788730 0.057940 -0.592351
O13   O     O_R   0.058660 0.616870 0.085540 -0.592378
O14   O     O_R   0.941340 0.116870 0.914460 -0.592378
C57   C     C_R   0.073618 0.448830 0.109646 0.936311
C58   C     C_R   0.926382 0.948830 0.890354 0.936310
O15   O     O_R   0.063700 0.618520 0.944220 -0.581031
O16   O     O_R   0.936300 0.118520 0.055780 -0.581031
O17   O     O_R   0.948460 0.787610 0.915680 -0.573263
O18   O     O_R   0.051540 0.287610 0.084320 -0.573263
C59   C     C_R   0.078348 0.450329 0.923983 0.927081
C60   C     C_R   0.921652 0.950328 0.076017 0.927080
O19   O     O_3   0.962230 0.453430 0.990860 -0.277804
O20   O     O_3   0.037770 0.953430 0.009140 -0.277804
V3    V     V_3+5 0.007010 0.728750 0.001700 1.184914
V4    V     V_3+5 0.992990 0.228750 0.998300 1.184914
N1    N     N_R   0.689904 0.989126 0.117092 0.229455
O21   O     O_R   0.631196 0.005286 0.107271 -0.373011
O22   O     O_R   0.720193 0.020735 0.066115 -0.446409
N2    N     N_R   0.310097 0.489126 0.882909 0.229455
O23   O     O_R   0.368804 0.505286 0.892730 -0.373010
O24   O     O_R   0.279807 0.520737 0.933885 -0.446410
O25   O     O_3   0.665629 0.629392 0.202548 -0.618533
C61   C     C_3   0.685010 0.523695 0.149115 -0.089878
H21   H     H_    0.725387 0.438879 0.168998 0.112366
H22   H     H_    0.694630 0.611946 0.105257 0.147127
H23   H     H_    0.648147 0.426706 0.128691 0.202389
O26   O     O_3   0.334371 0.129391 0.797453 -0.618533
C62   C     C_3   0.314989 0.023694 0.850886 -0.089877
H24   H     H_    0.274612 0.938878 0.831003 0.112366
H25   H     H_    0.305369 0.111945 0.894743 0.147126
H26   H     H_    0.351852 0.926706 0.871310 0.202389
O27   O     O_3   0.802974 0.773893 0.871761 -0.628012
C63   C     C_3   0.808330 0.860393 0.937314 -0.230813
H27   H     H_    0.810855 0.014576 0.935662 0.117862
H28   H     H_    0.847902 0.802237 0.970700 0.164662
H29   H     H_    0.768301 0.823171 0.962242 0.202139
O28   O     O_3   0.197026 0.273897 0.128238 -0.628012
C64   C     C_3   0.191670 0.360399 0.062686 -0.230811
H30   H     H_    0.189145 0.514581 0.064338 0.117861
H31   H     H_    0.152098 0.302242 0.029300 0.164661
H32   H     H_    0.231700 0.323178 0.037758 0.202142
N3    N     N_R   0.681635 0.902570 0.555392 0.196927
O29   O     O_R   0.676857 0.734499 0.531304 -0.429494
O30   O     O_R   0.681110 0.040069 0.512211 -0.421844
N4    N     N_R   0.318362 0.402534 0.444609 0.196931
O31   O     O_R   0.318873 0.540004 0.487801 -0.421869
O32   O     O_R   0.323153 0.234454 0.468685 -0.429479

loop_
_geom_bond_atom_site_label_1
_geom_bond_atom_site_label_2
_geom_bond_distance
_ccdc_geom_bond_type
C2    C39   1.452195 S    
C41   C45   1.548076 S    
C37   C53   1.215070 T    
O28   C64   1.412598 S    
C9    C11   1.384310 A    
C5    C29   1.382220 A    
O25   C61   1.409028 S    
O1    C3    1.332304 A    
C42   C46   1.548076 S    
O2    C4    1.332304 A    
C2    O7    1.337224 A    
C61   H22   1.112165 S    
C4    C31   1.483545 S    
O3    V1    1.973656 S    
C21   C23   1.389483 A    
O26   C62   1.409028 S    
O5    C3    1.330679 A    
N1    O22   1.300018 A    
C5    H5    1.084289 S    
O11   C59   1.330244 A    
C6    H6    1.084287 S    
C20   C22   1.417721 A    
C46   C48   1.535187 S    
C62   H25   1.112165 S    
O15   C59   1.332346 A    
C33   C35   1.556888 S    
O13   C57   1.326656 A    
C34   C36   1.556887 S    
N2    O23   1.300181 A    
C49   N1    1.456916 S    
C36   H14   1.110051 S    
C5    C21   1.397228 A    
O12   C60   1.330245 A    
C6    C22   1.397229 A    
C46   O26   1.411569 S    
C36   C52   1.559304 S    
O15   V3    1.973779 S    
C17   C31   1.439789 A    
C13   C15   1.411908 A    
C17   C25   1.417683 A    
C7    C29   1.394881 A    
C16   C18   1.440499 A    
C8    C30   1.394882 A    
O3    C1    1.340895 A    
C48   C56   1.483013 S    
C8    C57   1.478728 S    
C22   C24   1.389484 A    
C47   C55   1.483011 S    
C7    C58   1.478729 S    
O6    V2    2.027485 S    
C44   C50   1.536543 S    
C34   H16   1.110020 S    
C23   C25   1.390241 A    
C24   C26   1.390243 A    
C14   H10   1.069954 S    
C61   H21   1.111336 S    
C42   H20   1.110082 S    
C9    H7    1.084303 S    
C33   H15   1.110021 S    
C26   N4    1.423237 S    
C35   H13   1.110052 S    
C38   C54   1.215073 T    
C33   C47   1.546953 S    
C42   C44   1.553355 S    
C62   H26   1.109146 S    
O13   V3    2.027355 S    
C49   C51   1.540103 S    
C10   C32   1.397415 A    
N4    O32   1.300434 A    
O5    V1    2.027487 S    
C11   H11   1.082852 S    
C58   O17   1.331153 A    
C27   O27   1.389318 S    
C12   H12   1.082850 S    
C15   C19   1.443731 A    
C14   C16   1.411911 A    
O4    V2    1.973654 S    
C64   H31   1.101373 S    
C1    C40   1.452197 S    
C39   C55   1.215052 T    
H18   C52   1.109895 S    
C48   C52   1.547142 S    
O14   V4    2.027350 S    
H17   C51   1.109894 S    
C47   C51   1.547141 S    
O6    C4    1.330679 A    
O14   C58   1.326656 A    
C43   C49   1.536544 S    
O1    V2    2.015487 S    
O17   V3    2.016965 S    
C33   C41   1.557455 S    
O2    V1    2.015489 S    
C45   C47   1.535189 S    
O27   C63   1.412600 S    
H2    C30   1.084311 S    
C37   C60   1.451396 S    
H3    C23   1.085296 S    
C50   C52   1.540103 S    
C64   H32   1.108969 S    
O19   V4    1.759461 S    
O16   V4    1.973776 S    
O11   V4    1.962926 S    
C41   H19   1.110081 S    
C13   H9    1.069955 S    
O4    C2    1.340895 A    
C46   C50   1.528907 S    
C19   C27   1.439889 A    
C64   H30   1.115680 S    
C40   C56   1.215048 T    
C7    C27   1.433325 A    
C18   C32   1.439790 A    
C41   C43   1.553353 S    
C35   C43   1.547986 S    
C16   C20   1.443728 A    
C28   O28   1.389319 S    
C35   C51   1.559304 S    
C44   C54   1.483503 S    
N3    O30   1.301116 A    
C6    C30   1.382220 A    
N4    O31   1.301108 A    
N1    O21   1.300182 A    
C50   N2    1.456915 S    
C45   O25   1.411569 S    
C63   H29   1.108970 S    
C25   N3    1.423232 S    
O7    V1    1.958830 S    
C38   C59   1.451396 S    
C10   C12   1.384310 A    
C19   C21   1.417721 A    
C3    C32   1.483543 S    
O8    V2    1.958831 S    
C62   H24   1.111335 S    
C12   C14   1.388728 A    
C10   H8    1.084305 S    
C34   C42   1.557454 S    
H4    C24   1.085294 S    
C45   C49   1.528905 S    
O18   V4    2.016966 S    
O16   C60   1.332346 A    
C36   C44   1.547986 S    
C15   C17   1.440499 A    
N2    O24   1.300018 A    
H1    C29   1.084310 S    
O20   V3    1.759460 S    
O12   V3    1.962925 S    
C20   C28   1.439887 A    
C18   C26   1.417685 A    
C34   C48   1.546953 S    
C9    C31   1.397413 A    
C1    O8    1.337224 A    
C11   C13   1.388729 A    
O9    V2    1.760157 S    
O10   V1    1.760155 S    
C63   H27   1.115680 S    
C8    C28   1.433325 A    
C63   H28   1.101373 S    
C57   O18   1.331154 A    
C43   C53   1.483505 S    
C61   H23   1.109146 S    
N3    O29   1.300441 A    
