data_mof_unit_63813.cif
_audit_creation_date              2012-12-10T16:56:42-0500
_audit_creation_method            fapswitch 2.2
_symmetry_space_group_name_H-M    P1
_symmetry_Int_Tables_number       1
_space_group_crystal_system       triclinic
_cell_length_a                    21.727295
_cell_length_b                    21.730007
_cell_length_c                    22.266923
_cell_angle_alpha                 119.270804
_cell_angle_beta                  119.355105
_cell_angle_gamma                 90.457221
_cell_volume                      7557.17094492

loop_
_atom_site_label
_atom_site_type_symbol
_atom_type_description
_atom_site_fract_x
_atom_site_fract_y
_atom_site_fract_z
_atom_type_partial_charge
C1    C     C_R   0.498535 0.117009 0.496518 0.782763
C2    C     C_R   0.501543 0.882919 0.503285 0.782068
C3    C     C_1   0.876056 0.374657 0.250357 -0.147225
C4    C     C_1   0.124040 0.625333 0.749640 -0.146899
C5    C     C_3   0.710596 0.208551 0.917399 0.279297
C6    C     C_3   0.289556 0.791381 0.082594 0.278637
C7    C     C_3   0.710421 0.284533 0.048104 -0.432980
C8    C     C_3   0.289935 0.716487 0.951915 -0.432065
C9    C     C_3   0.793683 0.291113 0.082708 0.267175
C10   C     C_3   0.206489 0.708825 0.917285 0.267003
C11   C     C_3   0.798760 0.211024 0.047970 -0.352985
C12   C     C_3   0.200385 0.788522 0.952008 -0.354351
C13   C     C_3   0.750393 0.162769 0.950977 -0.374376
C14   C     C_3   0.248772 0.836777 0.048998 -0.371875
C15   C     C_1   0.838975 0.336942 0.174955 -0.064350
C16   C     C_1   0.161177 0.663026 0.825041 -0.064261
C17   C     C_1   0.664014 0.162398 0.825154 -0.094812
C18   C     C_1   0.336101 0.837543 0.174841 -0.094445
C19   C     C_1   0.625756 0.124718 0.749717 -0.169516
C20   C     C_1   0.374301 0.875243 0.250279 -0.168644
C21   C     C_R   0.519101 0.126569 0.379673 -0.170383
C22   C     C_R   0.638464 0.877548 0.625035 -0.170824
C23   C     C_R   0.580212 0.079921 0.659920 0.814850
C24   C     C_R   0.419798 0.920070 0.340078 0.815148
C25   C     C_R   0.538074 0.134926 0.332047 -0.140924
C26   C     C_R   0.705509 0.871451 0.675330 -0.139294
C27   C     C_R   0.550336 0.203340 0.342388 -0.130523
C28   C     C_R   0.708137 0.803474 0.665593 -0.132554
C29   C     C_R   0.541009 0.263028 0.398180 -0.171951
C30   C     C_R   0.643210 0.741879 0.607584 -0.169980
C31   C     C_R   0.519161 0.255112 0.445016 0.093369
C32   C     C_R   0.573915 0.747428 0.558016 0.094677
C33   C     C_R   0.512225 0.187193 0.439150 0.099348
C34   C     C_R   0.572350 0.815118 0.563627 0.097092
C35   C     C_R   0.497399 0.181692 0.492007 -0.098200
C36   C     C_R   0.504454 0.818630 0.508413 -0.097586
C37   C     C_R   0.485503 0.240882 0.545610 -0.198719
C38   C     C_R   0.438895 0.757749 0.452753 -0.196424
C39   C     C_R   0.489133 0.306027 0.548674 -0.198878
C40   C     C_R   0.439785 0.692617 0.449677 -0.202732
C41   C     C_R   0.505114 0.313476 0.498518 -0.102419
C42   C     C_R   0.506321 0.686972 0.501962 -0.098548
C43   C     C_R   0.758572 0.513139 0.453178 -0.200110
C44   C     C_R   0.242070 0.488522 0.548176 -0.198363
C45   C     C_R   0.739258 0.462545 0.605277 -0.175057
C46   C     C_R   0.258853 0.534076 0.391582 -0.174293
C47   C     C_R   0.818477 0.502714 0.507953 -0.094726
C48   C     C_R   0.181535 0.497346 0.492209 -0.092663
C49   C     C_R   0.883080 0.501423 0.503336 0.782728
C50   C     C_R   0.116981 0.498651 0.496826 0.783105
C51   C     C_R   0.920349 0.419873 0.340096 0.815203
C52   C     C_R   0.079674 0.580125 0.659902 0.815263
C53   C     C_R   0.619216 0.497653 0.500353 0.768811
C54   C     C_R   0.380754 0.502480 0.499616 0.801378
C55   C     C_R   0.502327 0.380899 0.499730 0.784968
C56   C     C_R   0.502560 0.619233 0.500378 0.785135
C57   C     C_R   0.746097 0.482723 0.556739 0.095225
C58   C     C_R   0.252982 0.515631 0.441771 0.100422
C59   C     C_R   0.875378 0.484494 0.622981 -0.155726
C60   C     C_R   0.123255 0.512575 0.375010 -0.155137
C61   C     C_R   0.868099 0.467401 0.672393 -0.103818
C62   C     C_R   0.129658 0.528018 0.324108 -0.099090
C63   C     C_R   0.799866 0.455100 0.662472 -0.127570
C64   C     C_R   0.197614 0.540054 0.333401 -0.134966
C65   C     C_R   0.693506 0.509571 0.450309 -0.204173
C66   C     C_R   0.307080 0.492135 0.550940 -0.199668
C67   C     C_R   0.686833 0.495090 0.501820 -0.100954
C68   C     C_R   0.313024 0.504960 0.498031 -0.100832
C69   C     C_R   0.813901 0.489639 0.562315 0.090508
C70   C     C_R   0.185347 0.508838 0.436554 0.090341
C71   C     C_3   0.661789 0.236527 0.951134 -0.376717
C72   C     C_3   0.338561 0.764468 0.048890 -0.378020
C73   C     C_3   0.771152 0.277322 0.952077 -0.380484
C74   C     C_3   0.229808 0.721933 0.047898 -0.380817
C75   C     C_3   0.819244 0.326929 0.049324 0.020477
C76   C     C_3   0.181770 0.672326 0.950654 0.020809
Cu1   Cu    Cu3+1 0.438180 0.999990 0.500010 0.957313
Cu2   Cu    Cu3+1 0.561820 0.000010 0.499990 0.950915
Cu3   Cu    Cu3+1 0.000200 0.561800 0.499990 0.956527
Cu4   Cu    Cu3+1 0.999800 0.438200 0.500010 0.956659
Cu5   Cu    Cu3+1 0.541330 0.541310 0.582630 0.947297
Cu6   Cu    Cu3+1 0.458670 0.458690 0.417370 0.951158
H1    H     H_    0.793999 0.440287 0.699720 0.143619
H2    H     H_    0.202809 0.553594 0.294971 0.138961
H3    H     H_    0.786503 0.142587 0.928344 0.176482
H4    H     H_    0.212526 0.856218 0.071628 0.179387
H5    H     H_    0.779061 0.184393 0.070017 0.161516
H6    H     H_    0.219455 0.815637 0.929945 0.161795
H7    H     H_    0.617697 0.188145 0.927016 0.172720
H8    H     H_    0.382092 0.813355 0.073039 0.170754
H9    H     H_    0.689892 0.258749 0.070280 0.177232
H10   H     H_    0.309878 0.742799 0.929767 0.177578
H11   H     H_    0.857696 0.212795 0.071829 0.199112
H12   H     H_    0.141281 0.785977 0.928155 0.198757
H13   H     H_    0.474278 0.237016 0.586229 0.155038
H14   H     H_    0.386897 0.760229 0.410394 0.154297
H15   H     H_    0.508914 0.071967 0.368271 0.147764
H16   H     H_    0.639048 0.931786 0.635745 0.146875
H17   H     H_    0.543770 0.088219 0.287313 0.133637
H18   H     H_    0.755758 0.919554 0.721606 0.138120
H19   H     H_    0.566509 0.210034 0.306489 0.136147
H20   H     H_    0.760623 0.798545 0.703560 0.142951
H21   H     H_    0.552052 0.315325 0.404784 0.143995
H22   H     H_    0.648408 0.690025 0.601455 0.153365
H23   H     H_    0.687138 0.451344 0.598981 0.147912
H24   H     H_    0.310683 0.545110 0.397319 0.143832
H25   H     H_    0.478391 0.350621 0.589698 0.152286
H26   H     H_    0.387964 0.646563 0.406817 0.145153
H27   H     H_    0.648336 0.519143 0.408300 0.155974
H28   H     H_    0.352774 0.483852 0.593967 0.152755
H29   H     H_    0.761831 0.523148 0.411506 0.154319
H30   H     H_    0.239332 0.479747 0.590843 0.152369
H31   H     H_    0.929795 0.494587 0.633862 0.156084
H32   H     H_    0.069052 0.502706 0.364678 0.154776
H33   H     H_    0.915483 0.463126 0.718137 0.158437
H34   H     H_    0.081816 0.531240 0.277703 0.158737
H35   H     H_    0.704351 0.340998 0.071911 0.165786
H36   H     H_    0.296734 0.660330 0.928100 0.165716
H37   H     H_    0.806985 0.258194 0.928844 0.198098
H38   H     H_    0.193824 0.740297 0.071082 0.198250
H39   H     H_    0.744193 0.310937 0.928262 0.151927
H40   H     H_    0.257486 0.688583 0.071745 0.151716
H41   H     H_    0.811238 0.382535 0.070542 0.133521
H42   H     H_    0.190548 0.617055 0.929474 0.133756
O1    O     O_R   0.447780 0.090160 0.499990 -0.581847
O2    O     O_R   0.552220 0.909840 0.500010 -0.585974
O3    O     O_R   0.555310 0.465120 0.430190 -0.590263
O4    O     O_R   0.444690 0.534880 0.569810 -0.581951
O5    O     O_R   0.534910 0.444720 0.569790 -0.591425
O6    O     O_R   0.465090 0.555280 0.430210 -0.590170
O7    O     O_R   0.465120 0.374940 0.430230 -0.580879
O8    O     O_R   0.534880 0.625060 0.569770 -0.585429
O9    O     O_R   0.552200 0.090180 0.499980 -0.587253
O10   O     O_R   0.447800 0.909820 0.500020 -0.582110
O11   O     O_R   0.508070 0.060270 0.620570 -0.579094
O12   O     O_R   0.491930 0.939730 0.379430 -0.586506
O13   O     O_R   0.612490 0.060290 0.620560 -0.583696
O14   O     O_R   0.387510 0.939710 0.379440 -0.576223
O15   O     O_R   0.910000 0.552200 0.500000 -0.579919
O16   O     O_R   0.090000 0.447800 0.500000 -0.579384
O17   O     O_R   0.909970 0.447830 0.500020 -0.590108
O18   O     O_R   0.090030 0.552170 0.499980 -0.589543
O19   O     O_R   0.939920 0.491910 0.379430 -0.586804
O20   O     O_R   0.060080 0.508090 0.620570 -0.586745
O21   O     O_R   0.939890 0.387530 0.379440 -0.575113
O22   O     O_R   0.060110 0.612470 0.620560 -0.575400
O23   O     O_R   0.625100 0.534890 0.569750 -0.592062
O24   O     O_R   0.374900 0.465110 0.430250 -0.582110
H43   H     H_    0.633113 0.270292 0.928610 0.167037
H44   H     H_    0.367937 0.730978 0.071407 0.168088
I1    I     I_    0.936909 0.349309 0.099255 -0.454679
I2    I     I_    0.064031 0.648345 0.900622 -0.455660
H45   H     H_    0.708290 0.112722 0.926837 0.165401
H46   H     H_    0.290285 0.887274 0.073122 0.164562

loop_
_geom_bond_atom_site_label_1
_geom_bond_atom_site_label_2
_ccdc_geom_bond_type
C66   C68   A    
C73   H37   S    
C27   C29   A    
C7    H35   S    
C60   H32   S    
C29   H21   S    
Cu5   Cu6   S    
C8    H36   S    
C47   C49   S    
Cu1   Cu2   S    
C39   H25   S    
C45   C57   A    
C52   O20   A    
C74   C76   S    
C4    C52   S    
C75   H41   S    
C35   C37   A    
C1    O1    A    
C7    C71   S    
C50   O16   A    
Cu3   O18   S    
C54   C68   S    
C51   O21   A    
C53   O23   A    
C21   H15   S    
C37   H13   S    
C18   C20   T    
C60   C62   A    
C61   C63   A    
C47   C69   A    
C41   C55   S    
C62   C64   A    
C53   O3    A    
C42   C56   S    
C10   C76   S    
C25   H17   S    
Cu3   O19   S    
C20   C24   S    
C75   I1    S    
Cu4   O20   S    
C49   O17   A    
C61   H33   S    
C31   C33   A    
C8    H10   S    
C21   C33   A    
C9    C75   S    
Cu6   O6    S    
C5    C13   S    
C59   H31   S    
C40   H26   S    
C24   O12   A    
C48   C50   S    
C46   C58   A    
C29   C31   A    
C73   C75   S    
C12   H12   S    
C43   H29   S    
C57   C67   A    
C6    C18   S    
C45   H23   S    
C6    C74   S    
Cu3   O22   S    
C32   C42   A    
C22   C34   A    
C1    O9    A    
C59   C61   A    
C12   H6    S    
C76   H42   S    
Cu1   O14   S    
C14   H4    S    
C39   C41   A    
Cu3   O15   S    
C11   H5    S    
C22   H16   S    
C3    C51   S    
C58   C70   A    
Cu5   O8    S    
C13   H3    S    
C24   O14   A    
C11   H11   S    
Cu4   O16   S    
C54   O4    A    
C27   H19   S    
C63   H1    S    
C32   C34   A    
C4    C16   T    
C19   C23   S    
C62   H34   S    
C30   C32   A    
C6    C14   S    
C72   H8    S    
Cu5   O5    S    
C71   H7    S    
C60   C70   A    
C43   C65   A    
C7    H9    S    
C5    C71   S    
C23   O11   A    
C6    C72   S    
C2    O10   A    
C66   H28   S    
C9    C11   S    
C65   H27   S    
C44   C66   A    
C56   O8    A    
C10   C12   S    
C59   C69   A    
C44   H30   S    
C58   C68   A    
Cu4   O21   S    
C74   H40   S    
C12   C14   S    
C55   O7    A    
C49   O15   A    
Cu5   O4    S    
Cu1   O10   S    
C13   H45   S    
C38   H14   S    
Cu2   O2    S    
Cu2   O13   S    
C2    O2    A    
Cu1   O1    S    
C1    C35   S    
C54   O24   A    
C2    C36   S    
C7    C9    S    
C21   C25   A    
C55   O5    A    
C52   O22   A    
C31   C41   A    
C8    C72   S    
C26   C28   A    
C23   O13   A    
C48   C70   A    
C40   C42   A    
Cu6   O24   S    
C51   O19   A    
C25   C27   A    
C74   H38   S    
C73   H39   S    
C65   C67   A    
C64   H2    S    
C36   C38   A    
C9    C15   S    
C37   C39   A    
C44   C48   A    
C10   C16   S    
C38   C40   A    
C11   C13   S    
Cu5   O23   S    
C71   H43   S    
C43   C47   A    
C46   H24   S    
C72   H44   S    
C28   C30   A    
C33   C35   A    
C45   C63   A    
C34   C36   A    
C5    C73   S    
C53   C67   S    
Cu2   O9    S    
C56   O6    A    
Cu6   O3    S    
Cu3   Cu4   S    
C17   C19   T    
C28   H20   S    
C5    C17   S    
C8    C10   S    
Cu4   O17   S    
C22   C26   A    
C30   H22   S    
C76   I2    S    
C3    C15   T    
Cu1   O11   S    
C46   C64   A    
C57   C69   A    
Cu6   O7    S    
Cu2   O12   S    
C14   H46   S    
C50   O18   A    
C26   H18   S    
