data_mof_unit_36066.cif
_audit_creation_date              2012-12-10T16:49:26-0500
_audit_creation_method            fapswitch 2.2
_symmetry_space_group_name_H-M    P1
_symmetry_Int_Tables_number       1
_space_group_crystal_system       triclinic
_cell_length_a                    7.743016
_cell_length_b                    8.752631
_cell_length_c                    12.795911
_cell_angle_alpha                 90.184784
_cell_angle_beta                  86.708292
_cell_angle_gamma                 93.940502
_cell_volume                      863.72371836

loop_
_atom_site_label
_atom_site_type_symbol
_atom_type_description
_atom_site_fract_x
_atom_site_fract_y
_atom_site_fract_z
_atom_type_partial_charge
C1    C     C_R   0.455197 0.206018 0.496391 0.887894
C2    C     C_R   0.674515 0.386304 0.137372 -0.058657
C3    C     C_R   0.544636 0.425883 0.868394 -0.206510
C4    C     C_R   0.455429 0.574204 0.131611 -0.206507
C5    C     C_R   0.552500 0.447066 0.974553 0.158541
C6    C     C_R   0.447565 0.553027 0.025450 0.158574
C7    C     C_2   0.432122 0.044093 0.491630 -0.270483
C8    C     C_2   0.567683 0.955892 0.508938 -0.270100
C9    C     C_2   0.793841 0.294627 0.193200 0.961715
C10   C     C_2   0.206010 0.705254 0.806823 0.961938
C11   C     C_2   0.254495 0.984513 0.467708 0.971176
C12   C     C_R   0.544752 0.793979 0.503788 0.887997
C13   C     C_2   0.745165 0.015454 0.533175 0.970834
C14   C     C_R   0.463607 0.504974 0.699955 0.887637
C15   C     C_R   0.536394 0.495034 0.300047 0.887929
C16   C     C_R   0.563208 0.488521 0.188180 -0.124522
C17   C     C_R   0.436807 0.511511 0.811826 -0.124393
C18   C     C_R   0.333578 0.634349 0.970081 -0.220920
C19   C     C_R   0.666451 0.365708 0.029924 -0.220920
C20   C     C_R   0.325465 0.613695 0.862638 -0.058771
H1    H     H_    0.372495 0.654038 0.171272 0.178774
H2    H     H_    0.961349 0.139726 0.481549 0.346534
H3    H     H_    0.627584 0.346063 0.828734 0.178855
H4    H     H_    0.251425 0.714033 0.010399 0.172182
H5    H     H_    0.748571 0.286001 0.989606 0.172187
H6    H     H_    0.998942 0.611863 0.420793 0.216693
H7    H     H_    0.001060 0.388165 0.579224 0.216500
H8    H     H_    0.002208 0.292905 0.280845 0.370571
H9    H     H_    0.997741 0.706785 0.719096 0.370468
H10   H     H_    0.038547 0.860162 0.519681 0.346596
N1    N     N_2   0.054030 0.541640 0.471970 -0.157933
N2    N     N_2   0.945970 0.458360 0.528030 -0.157966
O1    O     O_R   0.609680 0.261530 0.506880 -0.594671
O2    O     O_R   0.928039 0.367841 0.247132 -0.772652
O3    O     O_2   0.220240 0.845027 0.812030 -0.581649
O4    O     O_R   0.071972 0.631914 0.752822 -0.772706
O5    O     O_2   0.207703 0.990911 0.378262 -0.602084
O6    O     O_R   0.144685 0.916659 0.547552 -0.745411
O7    O     O_2   0.791497 0.009102 0.622725 -0.602412
O8    O     O_R   0.855415 0.083159 0.453485 -0.745109
O9    O     O_R   0.390320 0.738470 0.493120 -0.594812
O10   O     O_R   0.323330 0.288220 0.488910 -0.635171
O11   O     O_R   0.676670 0.711780 0.511090 -0.635278
O12   O     O_R   0.619510 0.488830 0.661140 -0.606731
O13   O     O_R   0.380490 0.511170 0.338860 -0.606569
O14   O     O_R   0.333160 0.515520 0.643180 -0.590905
O15   O     O_R   0.666840 0.484480 0.356820 -0.590845
O16   O     O_2   0.779354 0.154853 0.188071 -0.581917
Zn1   Zn    Zn3+2 0.691200 0.482180 0.511990 1.016482
Zn2   Zn    Zn3+2 0.308800 0.517820 0.488010 1.016528

loop_
_geom_bond_atom_site_label_1
_geom_bond_atom_site_label_2
_ccdc_geom_bond_type
O12   Zn1   S    
C4    C16   A    
C11   O6    S    
C8    C13   S    
C5    C19   A    
C2    C16   A    
O14   Zn2   S    
C3    H3    S    
N1    N2    D    
H9    O4    S    
C15   O15   A    
C8    C12   S    
H2    O8    S    
C2    C19   A    
H8    O2    S    
C7    C8    D    
O15   Zn1   S    
C7    C11   S    
C4    H1    S    
C14   C17   S    
C12   O9    A    
O13   Zn2   S    
O10   Zn2   S    
C18   H4    S    
C4    C6    A    
C9    O2    S    
C3    C17   A    
C12   O11   A    
C18   C20   A    
C5    C6    A    
C19   H5    S    
C6    C18   A    
N2    Zn1   S    
C13   O7    D    
C15   O13   A    
N1    Zn2   S    
O1    Zn1   S    
C15   C16   S    
C10   O3    D    
C1    O10   A    
H6    N1    S    
C17   C20   A    
H10   O6    S    
C9    O16   D    
C14   O12   A    
C11   O5    D    
O9    Zn2   S    
O11   Zn1   S    
C13   O8    S    
C10   O4    S    
C3    C5    A    
H7    N2    S    
C1    C7    S    
C2    C9    S    
C1    O1    A    
C10   C20   S    
C14   O14   A    
