data_mof_unit_9664.cif
_audit_creation_date              2012-12-11T17:09:38-0500
_audit_creation_method            fapswitch 2.2
_symmetry_space_group_name_H-M    P1
_symmetry_Int_Tables_number       1
_space_group_crystal_system       triclinic
_cell_length_a                    14.81899
_cell_length_b                    6.913709
_cell_length_c                    13.519546
_cell_angle_alpha                 90.032597
_cell_angle_beta                  99.877975
_cell_angle_gamma                 89.962804
_cell_volume                      1364.59949059

loop_
_atom_site_label
_atom_site_type_symbol
_atom_type_description
_atom_site_fract_x
_atom_site_fract_y
_atom_site_fract_z
_atom_type_partial_charge
O1    O     O_R   0.586930 0.505770 0.416350 -0.536123
O2    O     O_R   0.413070 0.005770 0.583650 -0.536452
O3    O     O_R   0.397900 0.173100 0.389630 -0.536958
O4    O     O_R   0.602100 0.673100 0.610370 -0.540138
C1    C     C_R   0.364202 0.345440 0.362835 0.723617
C2    C     C_R   0.635756 0.845431 0.637214 0.732061
O5    O     O_R   0.585280 0.175870 0.404330 -0.547346
O6    O     O_R   0.414720 0.675870 0.595670 -0.542007
O7    O     O_R   0.601790 0.008380 0.598460 -0.530974
O8    O     O_R   0.398210 0.508380 0.401540 -0.534339
C3    C     C_R   0.616084 0.344179 0.384317 0.751781
C4    C     C_R   0.387047 0.845072 0.619060 0.711380
O9    O     O_3   0.505200 0.340120 0.563670 -0.367591
O10   O     O_3   0.494800 0.840120 0.436330 -0.371421
V1    V     V_3+5 0.499040 0.064180 0.488190 1.459980
V2    V     V_3+5 0.500960 0.564180 0.511810 1.463068
C5    C     C_R   0.241117 0.964319 0.665420 0.008357
C6    C     C_R   0.700950 0.520239 0.267328 0.010724
C7    C     C_R   0.320754 0.853279 0.689597 -0.220578
C8    C     C_R   0.689475 0.352880 0.321949 -0.221225
C9    C     C_R   0.330433 0.739244 0.778892 0.323638
C10   C     C_R   0.756632 0.204790 0.323152 0.307939
C11   C     C_R   0.263526 0.750526 0.842445 0.287612
C12   C     C_R   0.825026 0.219461 0.261806 0.206101
C13   C     C_R   0.186767 0.875793 0.819365 -0.209022
C14   C     C_R   0.825809 0.378754 0.195411 -0.202040
C15   C     C_R   0.176341 0.975309 0.728123 -0.036176
C16   C     C_R   0.766503 0.532268 0.205710 0.122322
C17   C     C_3   0.156361 0.183406 0.701552 0.234124
C18   C     C_3   0.705473 0.650203 0.129199 0.182291
C19   C     C_3   0.227552 0.170025 0.632346 -0.417111
C20   C     C_3   0.632998 0.635237 0.196484 -0.404025
H1    H     H_    0.085300 0.207486 0.661408 0.126733
H2    H     H_    0.731949 0.798952 0.120736 0.111538
H3    H     H_    0.289548 0.260576 0.656005 0.197104
H4    H     H_    0.571796 0.548773 0.163809 0.201051
H5    H     H_    0.197013 0.181404 0.551527 0.153936
H6    H     H_    0.617405 0.776593 0.228811 0.142681
C21   C     C_1   0.783411 0.877093 0.782923 -0.160842
C22   C     C_1   0.216448 0.377054 0.217250 -0.128462
C23   C     C_1   0.716160 0.860123 0.716876 -0.157507
C24   C     C_1   0.283735 0.360133 0.283253 -0.156131
O11   O     O_R   0.101720 0.231700 0.098560 -0.535623
O12   O     O_R   0.898280 0.731700 0.901440 -0.540499
O13   O     O_R   0.914700 0.558980 0.095690 -0.537869
O14   O     O_R   0.085300 0.058980 0.904310 -0.527787
C25   C     C_R   0.887891 0.389357 0.120179 0.786284
C26   C     C_R   0.116390 0.889833 0.884927 0.776059
O15   O     O_R   0.102080 0.561590 0.110390 -0.530003
O16   O     O_R   0.897920 0.061590 0.889610 -0.543447
O17   O     O_R   0.086950 0.728940 0.916330 -0.519167
O18   O     O_R   0.913050 0.228940 0.083670 -0.528413
C27   C     C_R   0.136020 0.391855 0.137634 0.782295
C28   C     C_R   0.863845 0.891902 0.862540 0.716342
O19   O     O_3   0.994770 0.394510 0.936380 -0.365338
O20   O     O_3   0.005230 0.894510 0.063620 -0.355501
V3    V     V_3+5 0.000970 0.670520 0.011800 1.563182
V4    V     V_3+5 0.999030 0.170520 0.988200 1.551869
O21   O     O_3   0.406265 0.624282 0.810268 -0.615540
H7    H     H_    0.457766 0.668546 0.778218 0.284676
O22   O     O_3   0.758961 0.047319 0.385633 -0.613303
H8    H     H_    0.701879 0.973996 0.362716 0.297332
Br1   Br    Br    0.287236 0.613495 0.968400 -0.521352
Br2   Br    Br    0.915523 0.016750 0.272535 -0.522975
O23   O     O_3   0.181398 0.311370 0.782641 -0.610288
H9    H     H_    0.244065 0.277347 0.817215 0.336378
O24   O     O_3   0.680750 0.549629 0.038573 -0.635151
H10   H     H_    0.640252 0.638397 0.993389 0.306271

loop_
_geom_bond_atom_site_label_1
_geom_bond_atom_site_label_2
_ccdc_geom_bond_type
O4    V2    S    
O15   V3    S    
C18   C20   S    
C1    C24   S    
C22   C27   S    
O9    V2    S    
C25   O18   A    
O17   V3    S    
C20   H6    S    
O20   V4    S    
C15   C17   S    
C17   O23   S    
C14   C16   A    
C18   O24   S    
O1    C3    A    
O12   C28   A    
O12   V3    S    
O6    C4    A    
O2    C4    A    
C2    O7    A    
O5    V1    S    
O7    V1    S    
O3    V1    S    
O21   H7    S    
C17   C19   S    
O19   V3    S    
O8    V2    S    
O14   V4    S    
C10   O22   S    
O5    C3    A    
O2    V1    S    
C13   C26   S    
O13   V3    S    
O16   C28   A    
C6    C20   S    
O18   V4    S    
C14   C25   S    
O13   C25   A    
O15   C27   A    
C20   H4    S    
C4    C7    S    
C16   C18   S    
C7    C9    A    
C8    C10   A    
C9    O21   S    
C6    C8    A    
O9    V1    S    
C9    C11   A    
O22   H8    S    
C5    C19   S    
O10   V2    S    
C11   Br1   S    
O19   V4    S    
C21   C28   S    
C13   C15   A    
C18   H2    S    
O4    C2    A    
O24   H10   S    
O16   V4    S    
O14   C26   A    
C17   H1    S    
C1    O8    A    
C11   C13   A    
C6    C16   A    
O20   V3    S    
C21   C23   T    
C12   Br2   S    
O23   H9    S    
O6    V2    S    
C10   C12   A    
O1    V2    S    
O10   V1    S    
C19   H3    S    
O11   V4    S    
C5    C7    A    
C3    C8    S    
O11   C27   A    
C26   O17   A    
C19   H5    S    
C12   C14   A    
C22   C24   T    
O3    C1    A    
C2    C23   S    
C5    C15   A    
