data_mof_unit_13242.cif
_audit_creation_date              2013-03-05T15:40:18-0500
_audit_creation_method            fapswitch 2.2
_symmetry_space_group_name_H-M    P1
_symmetry_Int_Tables_number       1
_space_group_crystal_system       triclinic
_cell_length_a                    7.80301
_cell_length_b                    8.564965
_cell_length_c                    12.778892
_cell_angle_alpha                 90.489985
_cell_angle_beta                  86.947636
_cell_angle_gamma                 93.609348
_cell_volume                      851.130545356

loop_
_atom_site_label
_atom_site_type_symbol
_atom_site_description
_atom_site_fract_x
_atom_site_fract_y
_atom_site_fract_z
_atom_type_partial_charge
O1    O     O_R   0.609680 0.261530 0.506880 -0.595768
O2    O     O_R   0.390320 0.738470 0.493120 -0.595721
O3    O     O_R   0.323330 0.288220 0.488910 -0.587410
O4    O     O_R   0.676670 0.711780 0.511090 -0.587492
C1    C     C_R   0.454894 0.205523 0.497196 0.930662
C2    C     C_R   0.545102 0.794476 0.502813 0.930567
O5    O     O_R   0.619510 0.488830 0.661140 -0.609260
O6    O     O_R   0.380490 0.511170 0.338860 -0.609199
O7    O     O_R   0.333160 0.515520 0.643180 -0.559366
O8    O     O_R   0.666840 0.484480 0.356820 -0.559653
C3    C     C_R   0.463925 0.503270 0.699548 0.921753
C4    C     C_R   0.536075 0.496730 0.300452 0.921651
Zn1   Zn    Zn3+2 0.691200 0.482180 0.511990 1.133088
Zn2   Zn    Zn3+2 0.308800 0.517820 0.488010 1.133263
N1    N     N_2   0.054030 0.541640 0.471970 0.043006
N2    N     N_2   0.945970 0.458360 0.528030 0.043047
C5    C     C_R   0.563795 0.493261 0.188742 -0.283399
C6    C     C_R   0.436204 0.506740 0.811258 -0.283314
C7    C     C_R   0.334193 0.639563 0.966925 0.416137
C8    C     C_R   0.665810 0.360442 0.033074 0.416155
C9    C     C_R   0.337916 0.622276 0.858087 0.362223
C10   C     C_R   0.662088 0.377728 0.141912 0.362211
C11   C     C_R   0.524757 0.404492 0.870514 0.383464
C12   C     C_R   0.475240 0.595508 0.129486 0.383444
C13   C     C_R   0.548875 0.441064 0.975385 -0.166495
C14   C     C_R   0.451124 0.558939 0.024614 -0.166500
C15   C     C_2   0.431550 0.041851 0.494922 -0.300780
C16   C     C_2   0.568435 0.958146 0.505106 -0.300895
H1    H     H_    0.302464 0.990862 0.484425 0.247396
H2    H     H_    0.697515 0.009133 0.515611 0.247424
O9    O     O_3   0.413346 0.731433 0.172393 -0.678289
H3    H     H_    0.477327 0.762304 0.235032 0.338839
O10   O     O_3   0.586646 0.268564 0.827608 -0.678353
H4    H     H_    0.522664 0.237695 0.764969 0.338845
O11   O     O_3   0.753076 0.284875 0.204504 -0.698388
H5    H     H_    0.805383 0.201492 0.161853 0.397844
O12   O     O_3   0.246932 0.715133 0.795494 -0.698309
H6    H     H_    0.194650 0.798532 0.838143 0.397859
O13   O     O_3   0.214794 0.733250 0.014226 -0.692171
H7    H     H_    0.163514 0.677098 0.077018 0.387183
O14   O     O_3   0.785209 0.266756 0.985771 -0.692178
H8    H     H_    0.836484 0.322907 0.922978 0.387196
N3    N     N_R   0.008415 0.693577 0.459239 0.303754
O15   O     O_R   0.022801 0.792639 0.536517 -0.341967
O16   O     O_R   0.993766 0.746007 0.365165 -0.351858
N4    N     N_R   0.991711 0.306498 0.540904 0.303801
O17   O     O_R   0.976756 0.207079 0.463858 -0.342128
O18   O     O_R   0.007530 0.254546 0.635001 -0.351919

loop_
_geom_bond_atom_site_label_1
_geom_bond_atom_site_label_2
_geom_bond_distance
_ccdc_geom_bond_type
C4    C5    1.432730 S    
O7    Zn2   2.002422 S    
C3    C6    1.432727 S    
O12   H6    0.989972 S    
C15   H1    1.086870 S    
C6    C9    1.400754 A    
O7    C3    1.289981 A    
O14   H8    0.991691 S    
C5    C10   1.400757 A    
Zn2   N1    2.032448 S    
O6    C4    1.297871 A    
C16   H2    1.086843 S    
O10   H4    0.991064 S    
C12   O9    1.385965 S    
N1    N3    1.383739 S    
O5    C3    1.297871 A    
C10   O11   1.385204 S    
N3    O16   1.300088 A    
O2    C2    1.283009 A    
O3    Zn2   1.977062 S    
C7    O13   1.379536 S    
O1    C1    1.283023 A    
N1    N2    1.265563 D    
O8    C4    1.289982 A    
C7    C9    1.396378 A    
C8    C10   1.396380 A    
C8    O14   1.379538 S    
C11   C13   1.393468 A    
N3    O15   1.301224 A    
O2    Zn2   1.957400 S    
N4    O18   1.300393 A    
C5    C12   1.400376 A    
O1    Zn1   1.957400 S    
C8    C13   1.418625 A    
C6    C11   1.400375 A    
O13   H7    0.991691 S    
O5    Zn1   1.958955 S    
C9    O12   1.385205 S    
O4    C2    1.292756 A    
Zn1   N2    2.032450 S    
N2    N4    1.383700 S    
C15   C16   1.335895 D    
C7    C14   1.418626 A    
N4    O17   1.301328 A    
O6    Zn2   1.958955 S    
C11   O10   1.385965 S    
C13   C14   1.425418 A    
C1    C15   1.402463 S    
O9    H3    0.991065 S    
C2    C16   1.402447 S    
O11   H5    0.989975 S    
O4    Zn1   1.977060 S    
C12   C14   1.393469 A    
O3    C1    1.292749 A    
O8    Zn1   2.002421 S    
