data_mof_unit_61926.cif
_audit_creation_date              2013-03-05T16:08:24-0500
_audit_creation_method            fapswitch 2.2
_symmetry_space_group_name_H-M    P1
_symmetry_Int_Tables_number       1
_space_group_crystal_system       triclinic
_cell_length_a                    23.695329
_cell_length_b                    14.430474
_cell_length_c                    13.124339
_cell_angle_alpha                 90.002596
_cell_angle_beta                  89.99615
_cell_angle_gamma                 90.011939
_cell_volume                      4487.66850027

loop_
_atom_site_label
_atom_site_type_symbol
_atom_site_description
_atom_site_fract_x
_atom_site_fract_y
_atom_site_fract_z
_atom_type_partial_charge
O1    O     O_R   0.500000 0.376050 0.578280 -0.539481
O2    O     O_R   0.500000 0.623950 0.421720 -0.568257
O3    O     O_R   0.500000 0.623950 0.578280 -0.539451
O4    O     O_R   0.500000 0.376050 0.421720 -0.568434
C1    C     C_R   0.500010 0.328678 0.499998 0.862542
C2    C     C_R   0.499989 0.671322 0.500002 0.861606
O5    O     O_R   0.417880 0.500000 0.578280 -0.553048
O6    O     O_R   0.582120 0.500000 0.421720 -0.579415
O7    O     O_R   0.582120 0.500000 0.578280 -0.552897
O8    O     O_R   0.417880 0.500000 0.421720 -0.579137
C3    C     C_R   0.389399 0.499641 0.499948 0.895629
C4    C     C_R   0.610615 0.500391 0.499940 0.894889
Cu1   Cu    Cu3+1 0.500000 0.500000 0.592680 1.031261
Cu2   Cu    Cu3+1 0.500000 0.500000 0.407320 1.004860
C5    C     C_R   0.879919 0.579000 0.488821 0.640952
C6    C     C_R   0.120134 0.421282 0.487398 0.640920
C7    C     C_R   0.882281 0.414496 0.504470 0.632329
C8    C     C_R   0.117774 0.585545 0.505850 0.632243
N1    N     N_R   0.852994 0.495808 0.499187 -0.464607
N2    N     N_R   0.147061 0.504317 0.499173 -0.464602
C9    C     C_R   0.941316 0.413620 0.491156 -0.130192
C10   C     C_R   0.058737 0.586608 0.492594 -0.130194
C11   C     C_R   0.939430 0.583471 0.488739 -0.114610
C12   C     C_R   0.060623 0.416813 0.487263 -0.114584
C13   C     C_R   0.970224 0.499356 0.489231 -0.132464
C14   C     C_R   0.029829 0.500909 0.489222 -0.132463
C15   C     C_R   0.972138 0.329747 0.482446 0.319327
C16   C     C_R   0.027913 0.670594 0.485356 0.319343
C17   C     C_R   0.968406 0.669256 0.486896 0.426789
C18   C     C_R   0.031646 0.331064 0.483960 0.426779
O9    O     O_2   0.848780 0.656794 0.479266 -0.413495
O10   O     O_2   0.151273 0.343633 0.476509 -0.413658
O11   O     O_2   0.854137 0.335402 0.525182 -0.487441
O12   O     O_2   0.145920 0.664339 0.527891 -0.487450
C19   C     C_R   0.237243 0.547704 0.421721 0.439686
C20   C     C_R   0.762836 0.453462 0.420971 0.439428
C21   C     C_R   0.237268 0.464651 0.584125 0.326440
C22   C     C_R   0.762760 0.534329 0.584707 0.326537
C23   C     C_R   0.296947 0.546087 0.420133 -0.172641
C24   C     C_R   0.703130 0.455044 0.419398 -0.172093
C25   C     C_R   0.296311 0.457667 0.580329 -0.076492
C26   C     C_R   0.703721 0.541396 0.580959 -0.076892
C27   C     C_R   0.326781 0.500800 0.499915 -0.267639
C28   C     C_R   0.673255 0.499270 0.499883 -0.267789
C29   C     C_R   0.207825 0.506285 0.502506 0.168570
C30   C     C_R   0.792227 0.493783 0.502451 0.168656
C31   C     C_1   0.499995 0.227115 0.500002 -0.169304
C32   C     C_1   0.499999 0.772884 0.500010 -0.169624
C33   C     C_1   0.499990 0.142305 0.500008 0.026848
C34   C     C_1   0.500002 0.857695 0.500016 0.026900
C35   C     C_1   0.499993 0.042406 0.500015 0.037666
C36   C     C_1   0.499998 0.957594 0.500019 0.037698
N3    N     N_1   0.500000 0.500000 0.268070 -0.127138
N4    N     N_1   0.500000 0.500000 0.731930 -0.119169
C37   C     C_1   0.500001 0.500000 0.173583 0.195461
C38   C     C_1   0.500000 0.500000 0.826418 0.173207
C39   C     C_1   0.500001 0.500000 0.050687 -0.022241
C40   C     C_1   0.500001 0.500000 0.949315 -0.036556
O13   O     O_3   0.945402 0.245843 0.468183 -0.675678
H1    H     H_    0.916434 0.255009 0.414601 0.370820
O14   O     O_3   0.054645 0.754691 0.472521 -0.675649
H2    H     H_    0.083604 0.746289 0.418765 0.370856
O15   O     O_3   0.937679 0.750909 0.485203 -0.632536
H3    H     H_    0.962915 0.805185 0.491966 0.384257
O16   O     O_3   0.062373 0.249445 0.480830 -0.632624
H4    H     H_    0.037137 0.195079 0.486670 0.384221
O17   O     O_3   0.205738 0.589459 0.345876 -0.669443
H5    H     H_    0.226916 0.643053 0.318529 0.356744
O18   O     O_3   0.794377 0.412828 0.344423 -0.669773
H6    H     H_    0.773170 0.359797 0.315865 0.356602
O19   O     O_3   0.209388 0.427059 0.667106 -0.702588
H7    H     H_    0.170279 0.450965 0.669773 0.343983
O20   O     O_3   0.790615 0.570804 0.668314 -0.702383
H8    H     H_    0.829717 0.546833 0.670643 0.343945
C41   C     C_2   0.327930 0.591433 0.335176 0.418193
H9    H     H_    0.364357 0.634692 0.350988 0.064622
O21   O     O_2   0.313847 0.578941 0.246731 -0.494438
C42   C     C_2   0.672210 0.410793 0.333690 0.418011
H10   H     H_    0.636002 0.366838 0.348809 0.065091
O22   O     O_2   0.686111 0.424942 0.245450 -0.494650
C43   C     C_2   0.324323 0.400839 0.660204 0.498922
H11   H     H_    0.308616 0.402051 0.737878 0.116659
O23   O     O_2   0.362867 0.348095 0.639007 -0.536642
C44   C     C_2   0.675719 0.597274 0.661650 0.500024
H12   H     H_    0.691244 0.594755 0.739401 0.116075
O24   O     O_2   0.637414 0.650691 0.641110 -0.535727

loop_
_geom_bond_atom_site_label_1
_geom_bond_atom_site_label_2
_geom_bond_distance
_ccdc_geom_bond_type
O5    Cu1   1.955032 S    
C17   O15   1.385417 S    
O20   H8    0.989541 S    
C19   C23   1.415051 A    
O3    C2    1.234024 A    
C43   H11   1.085349 S    
N1    C30   1.440802 S    
C31   C33   1.223848 T    
O5    C3    1.229823 A    
C1    C31   1.465595 S    
C2    C32   1.465594 S    
O1    C1    1.234013 A    
C11   C17   1.415660 A    
C16   C17   1.410309 A    
C44   O24   1.221085 D    
C22   C26   1.403538 A    
C42   O22   1.221198 D    
O7    Cu1   1.955004 S    
C33   C35   1.441601 S    
C34   C36   1.441601 S    
C20   C30   1.402496 A    
C23   C41   1.486658 S    
N2    C29   1.440769 S    
O3    Cu1   1.798622 S    
C6    N2    1.366168 A    
C16   O14   1.379140 S    
O14   H2    0.991602 S    
C32   C34   1.223850 T    
C9    C15   1.418338 A    
O13   H1    0.991608 S    
C6    C12   1.411606 A    
C10   C16   1.418345 A    
Cu1   Cu2   2.432729 S    
C15   C18   1.410332 A    
O4    Cu2   1.798622 S    
C25   C27   1.422067 A    
O2    C2    1.234017 A    
C7    O11   1.349451 S    
C43   O23   1.221082 D    
N3    C37   1.240083 T    
N4    C38   1.240094 T    
O17   H5    0.989243 S    
C20   C24   1.415092 A    
C26   C44   1.487274 S    
C44   H12   1.085348 S    
O8    Cu2   1.955006 S    
C42   H10   1.085154 S    
C23   C27   1.422531 A    
C13   C14   1.412540 A    
C7    C9    1.409770 A    
C35   C36   1.223867 T    
C5    N1    1.366189 A    
C41   H9    1.085164 S    
C41   O21   1.221187 D    
C19   O17   1.382574 S    
O6    C4    1.228773 A    
C25   C43   1.487429 S    
C3    C27   1.483835 S    
C8    O12   1.349437 S    
C37   C39   1.612925 S    
C24   C42   1.486509 S    
O1    Cu1   1.798605 S    
C21   C29   1.412629 A    
C19   C29   1.402516 A    
C20   O18   1.382656 S    
Cu1   N4    1.827564 S    
C9    C13   1.414276 A    
O6    Cu2   1.955029 S    
C8    C10   1.409781 A    
C12   C14   1.416377 A    
O4    C1    1.234030 A    
C5    O9    1.349361 S    
C6    O10   1.349344 S    
C21   O19   1.384403 S    
C26   C28   1.422240 A    
O19   H7    0.989529 S    
C4    C28   1.484379 S    
C15   O13   1.379145 S    
C39   C40   1.330438 T    
C5    C11   1.411587 A    
C7    N1    1.365123 A    
C38   C40   1.612942 S    
C8    N2    1.365106 A    
C11   C13   1.416384 A    
C21   C25   1.403561 A    
O18   H6    0.989180 S    
O2    Cu2   1.798605 S    
O7    C4    1.230024 A    
C12   C18   1.415668 A    
C22   C30   1.412569 A    
C18   O16   1.385405 S    
O8    C3    1.228616 A    
O15   H3    0.989306 S    
C24   C28   1.422760 A    
Cu2   N3    1.827564 S    
O16   H4    0.989307 S    
C10   C14   1.414277 A    
C22   O20   1.384426 S    
