data_mof_unit_53157.cif
_audit_creation_date              2012-12-10T18:32:00-0500
_audit_creation_method            fapswitch 2.2
_symmetry_space_group_name_H-M    P1
_symmetry_Int_Tables_number       1
_space_group_crystal_system       triclinic
_cell_length_a                    10.645478
_cell_length_b                    14.984142
_cell_length_c                    15.245071
_cell_angle_alpha                 82.369397
_cell_angle_beta                  89.648603
_cell_angle_gamma                 104.344651
_cell_volume                      2333.18372182

loop_
_atom_site_label
_atom_site_type_symbol
_atom_type_description
_atom_site_fract_x
_atom_site_fract_y
_atom_site_fract_z
_atom_type_partial_charge
C1    C     C_R   0.486082 0.442081 0.662890 0.916411
C2    C     C_R   0.593316 0.451278 0.895320 0.003671
C3    C     C_R   0.577702 0.355843 0.927590 0.135198
C4    C     C_R   0.741592 0.499611 0.503109 0.931627
C5    C     C_R   0.637379 0.519985 0.951254 -0.041245
C6    C     C_R   0.626944 0.491127 0.043489 0.060198
C7    C     C_R   0.618833 0.396544 0.074768 -0.236602
C8    C     C_R   0.599422 0.330467 0.016771 -0.159160
C9    C     C_R   0.682551 0.616802 0.919445 0.417938
C10   C     C_R   0.681450 0.681659 0.976705 -0.187946
C11   C     C_R   0.641779 0.652490 0.065456 -0.029871
C12   C     C_3   0.120774 0.498195 0.505582 -0.082863
C13   C     C_R   0.617753 0.557179 0.100140 0.091491
C14   C     C_R   0.623021 0.717370 0.119258 -0.160020
C15   C     C_R   0.573771 0.688666 0.206323 0.458439
C16   C     C_R   0.519794 0.558292 0.336759 0.834424
C17   C     C_R   0.573465 0.529663 0.188397 -0.282797
C18   C     C_R   0.716550 0.848902 0.620342 -0.289747
C19   C     C_R   0.673686 0.756898 0.606417 0.045206
C20   C     C_R   0.510198 0.792566 0.512817 -0.014897
C21   C     C_R   0.548799 0.887181 0.524130 -0.004285
C22   C     C_R   0.655554 0.914682 0.578412 0.167284
C23   C     C_3   0.075241 0.507314 0.408509 0.122954
C24   C     C_R   0.487053 0.955008 0.482949 0.090617
C25   C     C_R   0.528865 0.048425 0.501305 0.079399
C26   C     C_R   0.643521 0.074049 0.547914 -0.238940
C27   C     C_R   0.703609 0.007949 0.587704 -0.205745
C28   C     C_R   0.257667 0.498441 0.503068 0.895621
C29   C     C_R   0.387985 0.933509 0.422137 -0.210171
C30   C     C_R   0.333083 0.001636 0.379990 -0.164898
C31   C     C_R   0.368105 0.091741 0.401390 0.130600
C32   C     C_R   0.459758 0.114686 0.467124 -0.121601
C33   C     C_R   0.311873 0.159315 0.357644 -0.310559
C34   C     C_3   0.100088 0.583313 0.549394 0.295652
C35   C     C_R   0.345711 0.248673 0.379934 -0.086195
C36   C     C_R   0.477295 0.203891 0.494671 0.519311
C37   C     C_3   0.894877 0.409381 0.562418 -0.349644
C38   C     C_3   0.037215 0.404336 0.556046 0.179511
C39   C     C_3   0.929983 0.505138 0.409820 -0.495276
C40   C     C_3   0.956437 0.585676 0.547376 0.206091
C41   C     C_3   0.878204 0.499997 0.506186 -0.066375
C42   C     C_R   0.507051 0.408926 0.755203 -0.104832
C43   C     C_R   0.552038 0.593575 0.242318 -0.192831
C44   C     C_R   0.535148 0.287698 0.871242 0.444081
C45   C     C_R   0.501564 0.315307 0.784444 -0.290443
C46   C     C_R   0.549244 0.475109 0.811718 -0.241374
H1    H     H_    0.832639 0.346719 0.538461 0.169279
H2    H     H_    0.789458 0.030237 0.625001 0.154679
H3    H     H_    0.261148 0.983247 0.331062 0.152379
H4    H     H_    0.722006 0.705617 0.636390 0.171823
H5    H     H_    0.691333 0.145730 0.552068 0.193366
H6    H     H_    0.040737 0.346826 0.516995 0.105715
H7    H     H_    0.875605 0.443549 0.380141 0.173725
H8    H     H_    0.087914 0.446995 0.376492 0.118895
H9    H     H_    0.226099 0.578587 0.334596 0.323443
H10   H     H_    0.591834 0.258549 0.043459 0.200393
H11   H     H_    0.551042 0.457234 0.215724 0.178169
H12   H     H_    0.155159 0.648637 0.508392 0.148244
H13   H     H_    0.468179 0.725316 0.291467 0.336735
H14   H     H_    0.494181 0.157158 0.854672 0.336954
H15   H     H_    0.768224 0.601663 0.812094 0.353768
H16   H     H_    0.509277 0.170576 0.617040 0.308119
H17   H     H_    0.305376 0.302269 0.345208 0.154087
H18   H     H_    0.798152 0.868778 0.661967 0.161690
H19   H     H_    0.431969 0.765014 0.471962 0.128433
H20   H     H_    0.151369 0.351387 0.635079 0.344257
H21   H     H_    0.353933 0.865410 0.402705 0.148010
H22   H     H_    0.243796 0.143486 0.305924 0.163912
H23   H     H_    0.913456 0.567873 0.368233 0.222338
H24   H     H_    0.949150 0.650238 0.503750 0.095125
H25   H     H_    0.937024 0.650766 0.646811 0.349495
H26   H     H_    0.094169 0.535187 0.676462 0.417052
H27   H     H_    0.709280 0.755139 0.951020 0.173537
H28   H     H_    0.470691 0.263841 0.740272 0.177586
H29   H     H_    0.544644 0.545945 0.790665 0.217833
H30   H     H_    0.863268 0.407322 0.632564 0.247688
H31   H     H_    0.628046 0.372038 0.143688 0.148979
H32   H     H_    0.640410 0.790248 0.092251 0.166094
N1    N     N_R   0.573860 0.731700 0.552730 -0.107182
N2    N     N_R   0.426060 0.268290 0.447230 -0.102903
O1    O     O_R   0.462770 0.383110 0.605620 -0.570372
O2    O     O_3   0.546163 0.755025 0.252530 -0.754338
O3    O     O_3   0.525480 0.195219 0.902356 -0.777080
O4    O     O_3   0.734633 0.650613 0.834896 -0.785608
O5    O     O_3   0.535157 0.226527 0.571852 -0.772556
O6    O     O_3   0.081386 0.383536 0.641297 -0.753684
O7    O     O_3   0.904856 0.586462 0.632553 -0.764275
O8    O     O_3   0.150284 0.585845 0.634805 -0.722817
O9    O     O_R   0.510160 0.531900 0.639510 -0.604023
O10   O     O_R   0.661510 0.425600 0.483070 -0.598029
O11   O     O_R   0.708900 0.574390 0.516960 -0.606222
O12   O     O_R   0.489840 0.468100 0.360490 -0.623210
O13   O     O_R   0.537230 0.616890 0.394380 -0.602156
O14   O     O_R   0.291100 0.425610 0.483040 -0.662859
O15   O     O_R   0.338490 0.574400 0.516930 -0.582213
O16   O     O_3   0.145869 0.590743 0.358452 -0.767922
Zn1   Zn    Zn3+2 0.468350 0.400660 0.477370 0.966909
Zn2   Zn    Zn3+2 0.531650 0.599340 0.522630 0.991329

loop_
_geom_bond_atom_site_label_1
_geom_bond_atom_site_label_2
_ccdc_geom_bond_type
C27   H2    S    
N2    Zn1   S    
N1    Zn2   S    
H13   O2    S    
C44   O3    S    
C8    H10   S    
O15   Zn2   S    
C7    C8    A    
C39   C41   S    
C39   H7    S    
C2    C46   A    
C12   C23   S    
C26   C27   A    
C37   C38   S    
C40   H24   S    
C12   C28   S    
C28   O15   A    
C34   C40   S    
C32   C36   A    
C40   O7    S    
C30   C31   A    
C10   H27   S    
C38   H6    S    
C4    C41   S    
C1    O1    A    
C35   N2    A    
C23   O16   S    
C28   O14   A    
C18   C19   A    
C42   C46   A    
C24   C29   A    
C29   H21   S    
C31   C33   A    
C37   H1    S    
C9    C10   A    
O10   Zn1   S    
C16   O13   A    
C7    H31   S    
C4    O11   A    
C25   C32   A    
C21   C22   A    
C12   C38   S    
C46   H29   S    
H26   O8    S    
O12   Zn1   S    
C15   O2    S    
C4    O10   A    
H16   O5    S    
C3    C44   A    
H14   O3    S    
C20   H19   S    
C24   C25   A    
C3    C8    A    
C36   N2    A    
C11   C14   A    
O14   Zn1   S    
C25   C26   A    
C45   H28   S    
C42   C45   A    
C17   C43   A    
C5    C9    A    
C29   C30   A    
C31   C32   A    
C39   H23   S    
C34   O8    S    
C19   N1    A    
C16   C43   S    
H25   O7    S    
C40   C41   S    
C37   H30   S    
C38   O6    S    
C16   O12   A    
C22   C27   A    
C2    C5    A    
C12   C34   S    
C44   C45   A    
C23   H8    S    
C1    O9    A    
C20   N1    A    
C18   C22   A    
C30   H3    S    
H9    O16   S    
H15   O4    S    
H20   O6    S    
C6    C7    A    
C36   O5    S    
C13   C17   A    
O9    Zn2   S    
C2    C3    A    
C15   C43   A    
C26   H5    S    
C6    C13   A    
C11   C13   A    
C19   H4    S    
C18   H18   S    
C5    C6    A    
O1    Zn1   S    
C23   C39   S    
C33   C35   A    
C14   H32   S    
O11   Zn2   S    
C37   C41   S    
C10   C11   A    
C9    O4    S    
C1    C42   S    
C20   C21   A    
C21   C24   A    
C34   H12   S    
C14   C15   A    
C35   H17   S    
O13   Zn2   S    
C33   H22   S    
C17   H11   S    
