data_mof_unit_64081.cif
_audit_creation_date              2012-10-26T18:20:24-0400
_audit_creation_method            fapswitch 2.2
_symmetry_space_group_name_H-M    P1
_symmetry_Int_Tables_number       1
_space_group_crystal_system       triclinic
_cell_length_a                    18.365378
_cell_length_b                    18.36538
_cell_length_c                    30.2907
_cell_angle_alpha                 90.000083
_cell_angle_beta                  90.000103
_cell_angle_gamma                 89.999941
_cell_volume                      10216.6637477

loop_
_atom_site_label
_atom_site_type_symbol
_atom_type_description
_atom_site_fract_x
_atom_site_fract_y
_atom_site_fract_z
_atom_type_partial_charge
Br1   Br    Br    0.910377 0.371943 0.376909 -0.470685
Br2   Br    Br    0.887533 0.610779 0.872335 -0.457401
Br3   Br    Br    0.389242 0.887515 0.872337 -0.457407
Br4   Br    Br    0.112460 0.389217 0.872333 -0.457396
Br5   Br    Br    0.610763 0.887520 0.127664 -0.457404
Br6   Br    Br    0.887513 0.389245 0.127662 -0.457406
Br7   Br    Br    0.389238 0.112480 0.127664 -0.457402
Br8   Br    Br    0.112483 0.610758 0.127664 -0.457403
Br9   Br    Br    0.628064 0.910385 0.376911 -0.470686
Br10  Br    Br    0.089621 0.628058 0.376910 -0.470684
Br11  Br    Br    0.371938 0.089616 0.376909 -0.470688
Br12  Br    Br    0.910401 0.628073 0.623087 -0.470692
Br13  Br    Br    0.628058 0.089623 0.623090 -0.470685
Br14  Br    Br    0.089603 0.371930 0.623089 -0.470679
Br15  Br    Br    0.371942 0.910378 0.623089 -0.470683
Br16  Br    Br    0.610757 0.112485 0.872337 -0.457408
C1    C     C_R   0.139896 0.500000 1.000000 0.574215
C2    C     C_1   0.500000 0.217451 1.000000 -0.000608
C3    C     C_R   0.957150 0.625992 0.773665 0.177800
C4    C     C_R   0.374013 0.042864 0.226335 0.177802
C5    C     C_R   0.042869 0.625984 0.226335 0.177801
C6    C     C_R   0.625987 0.957135 0.226335 0.177801
C7    C     C_R   0.957125 0.374017 0.226335 0.177797
C8    C     C_3   0.980404 0.732225 0.305802 -0.270019
C9    C     C_3   0.267785 0.980383 0.305809 -0.270015
C10   C     C_3   0.019600 0.267779 0.305802 -0.270017
C11   C     C_3   0.732224 0.019608 0.305803 -0.270016
C12   C     C_3   0.980384 0.267774 0.694183 -0.270013
C13   C     C_1   0.782549 0.500000 0.000000 -0.000611
C14   C     C_3   0.267769 0.019586 0.694200 -0.270020
C15   C     C_3   0.019618 0.732234 0.694205 -0.270021
C16   C     C_3   0.732227 0.980408 0.694200 -0.270020
C17   C     C_3   0.277665 0.016257 0.815179 -0.266426
C18   C     C_3   0.983664 0.277683 0.815180 -0.266429
C19   C     C_3   0.722335 0.983743 0.815179 -0.266427
C20   C     C_3   0.016300 0.722329 0.815179 -0.266427
C21   C     C_3   0.277663 0.983730 0.184823 -0.266426
C22   C     C_3   0.983738 0.722334 0.184821 -0.266429
C23   C     C_3   0.722335 0.016268 0.184821 -0.266428
C24   C     C_1   0.500000 0.782549 0.000000 -0.000608
C25   C     C_3   0.016245 0.277660 0.184823 -0.266429
C26   C     C_1   0.717451 0.000000 0.500000 0.002749
C27   C     C_1   1.000000 0.717451 0.500000 0.002755
C28   C     C_1   0.282549 1.000000 0.500000 0.002748
C29   C     C_1   1.000000 0.282549 0.500000 0.002751
C30   C     C_R   1.000000 0.500000 0.085782 0.596385
C31   C     C_R   0.500000 1.000000 0.085782 0.596382
C32   C     C_R   0.999999 0.500000 0.914218 0.596373
C33   C     C_R   0.500000 0.139896 1.000000 0.574221
C34   C     C_R   0.500000 0.000000 0.914218 0.596385
C35   C     C_R   0.500000 0.000000 0.585638 0.601670
C36   C     C_R   0.000000 0.500000 0.585638 0.601680
C37   C     C_R   0.500000 1.000000 0.414362 0.601672
C38   C     C_R   1.000000 0.500000 0.414362 0.601669
C39   C     C_1   0.282767 0.500000 1.000000 -0.012633
C40   C     C_1   0.500000 0.282767 1.000000 -0.012630
C41   C     C_1   0.717233 0.500000 0.000000 -0.012632
C42   C     C_1   0.500000 0.717233 0.000000 -0.012630
C43   C     C_1   0.782766 0.000000 0.500000 -0.017375
C44   C     C_R   0.860104 0.500000 0.000000 0.574217
C45   C     C_1   1.000000 0.782766 0.500000 -0.017372
C46   C     C_1   0.217234 1.000000 0.500000 -0.017377
C47   C     C_1   1.000000 0.217234 0.500000 -0.017376
C48   C     C_R   0.500000 0.360335 1.000000 0.552656
C49   C     C_R   0.639665 0.500000 0.000000 0.552656
C50   C     C_R   0.500000 0.639665 0.000000 0.552656
C51   C     C_R   0.360335 0.500000 1.000000 0.552656
C52   C     C_R   1.000000 0.860334 0.500000 0.560009
C53   C     C_R   0.139666 1.000000 0.500000 0.560009
C54   C     C_R   1.000000 0.139666 0.500000 0.560009
C55   C     C_R   0.500000 0.860104 0.000000 0.574221
C56   C     C_R   0.860334 0.000000 0.500000 0.560009
C57   C     C_R   0.967681 0.441729 0.343272 0.134847
C58   C     C_R   0.558274 0.967684 0.343272 0.134848
C59   C     C_R   0.032318 0.558272 0.343272 0.134849
C60   C     C_R   0.441727 0.032315 0.343272 0.134844
C61   C     C_R   0.967690 0.558277 0.656727 0.134851
C62   C     C_R   0.558271 0.032319 0.656728 0.134850
C63   C     C_R   0.032309 0.441723 0.656728 0.134845
C64   C     C_R   0.441728 0.967681 0.656728 0.134851
C65   C     C_R   0.554331 0.037897 0.842461 0.132490
C66   C     C_R   0.639898 1.000000 0.500000 0.578900
C67   C     C_R   0.962111 0.554338 0.842461 0.132489
C68   C     C_R   0.445669 0.962103 0.842461 0.132488
C69   C     C_R   0.037882 0.445661 0.842460 0.132486
C70   C     C_R   0.554333 0.962105 0.157539 0.132489
C71   C     C_R   0.962101 0.445670 0.157538 0.132493
C72   C     C_R   0.445668 0.037894 0.157539 0.132492
C73   C     C_R   0.037896 0.554331 0.157539 0.132489
C74   C     C_R   1.000000 0.500000 0.366089 0.005142
C75   C     C_R   0.500000 1.000000 0.366089 0.005142
C76   C     C_R   0.000000 0.500000 0.633911 0.005143
C77   C     C_R   1.000000 0.639898 0.500000 0.578906
C78   C     C_R   0.500000 0.000000 0.633911 0.005141
C79   C     C_R   0.500000 0.000000 0.865745 -0.009839
C80   C     C_R   0.999998 0.500000 0.865745 -0.009847
C81   C     C_R   0.500000 1.000000 0.134255 -0.009841
C82   C     C_R   0.999999 0.500000 0.134255 -0.009839
C83   C     C_R   0.025304 0.562354 0.296782 0.028856
C84   C     C_R   0.437645 0.025300 0.296782 0.028853
C85   C     C_R   0.974695 0.437647 0.296782 0.028858
C86   C     C_R   0.562356 0.974698 0.296782 0.028856
C87   C     C_R   0.025292 0.437641 0.703217 0.028841
C88   C     C_R   0.360102 0.000000 0.500000 0.578900
C89   C     C_R   0.437646 0.974694 0.703218 0.028857
C90   C     C_R   0.974703 0.562357 0.703217 0.028860
C91   C     C_R   0.562353 0.025305 0.703218 0.028857
C92   C     C_R   0.439413 0.972225 0.796450 0.026654
C93   C     C_R   0.027756 0.439407 0.796449 0.026656
C94   C     C_R   0.560586 0.027775 0.796450 0.026654
C95   C     C_R   0.972234 0.560592 0.796449 0.026653
C96   C     C_R   0.439412 0.027771 0.203551 0.026654
C97   C     C_R   0.027773 0.560587 0.203550 0.026654
C98   C     C_R   0.560588 0.972229 0.203551 0.026654
C99   C     C_R   1.000000 0.360102 0.500000 0.578902
C100  C     C_R   0.972223 0.439414 0.203550 0.026654
C101  C     C_R   0.999999 0.500000 0.273555 -0.073083
C102  C     C_R   0.500000 0.999999 0.273555 -0.073082
C103  C     C_R   0.999997 0.499999 0.726445 -0.073082
C104  C     C_R   0.500000 1.000000 0.726445 -0.073083
C105  C     C_R   0.500000 1.000000 0.773023 -0.071658
C106  C     C_R   0.999996 0.499999 0.773022 -0.071655
C107  C     C_R   0.500000 1.000000 0.226977 -0.071658
C108  C     C_R   0.999999 0.500000 0.226977 -0.071659
C109  C     C_R   0.041327 0.627004 0.272884 0.173477
C110  C     C_1   0.217451 0.500000 1.000000 -0.000614
C111  C     C_R   0.372994 0.041319 0.272884 0.173484
C112  C     C_R   0.958671 0.372997 0.272883 0.173478
C113  C     C_R   0.627006 0.958678 0.272884 0.173477
C114  C     C_R   0.041302 0.372987 0.727116 0.173482
C115  C     C_R   0.372997 0.958669 0.727117 0.173474
C116  C     C_R   0.958689 0.627010 0.727116 0.173470
C117  C     C_R   0.627003 0.041329 0.727117 0.173476
C118  C     C_R   0.374016 0.957128 0.773665 0.177800
C119  C     C_R   0.042836 0.374005 0.773665 0.177813
C120  C     C_R   0.625983 0.042871 0.773665 0.177800
Cu1   Cu    Cu3+1 0.000000 0.572490 0.000000 1.069660
Cu2   Cu    Cu3+1 0.500000 0.500000 0.955520 1.036990
Cu3   Cu    Cu3+1 0.000000 0.000000 0.544480 0.974954
Cu4   Cu    Cu3+1 1.000000 1.000000 0.455520 0.974959
Cu5   Cu    Cu3+1 0.427510 0.000000 0.000000 1.069658
Cu6   Cu    Cu3+1 0.000000 0.427510 0.000000 1.069661
Cu7   Cu    Cu3+1 0.572490 0.000000 0.000000 1.069657
Cu8   Cu    Cu3+1 0.500000 0.072490 0.500000 1.094685
Cu9   Cu    Cu3+1 0.927510 0.500000 0.500000 1.094680
Cu10  Cu    Cu3+1 0.500000 0.927510 0.500000 1.094683
Cu11  Cu    Cu3+1 0.072490 0.500000 0.500000 1.094684
Cu12  Cu    Cu3+1 0.500000 0.500000 0.044480 1.036998
H1    H     H_    0.091167 0.727819 0.287359 0.261363
H2    H     H_    0.018487 0.250665 0.340924 0.191692
H3    H     H_    0.067917 0.303313 0.300637 0.154539
H4    H     H_    0.025116 0.218387 0.284940 0.118208
H5    H     H_    0.727825 0.908845 0.287360 0.261363
H6    H     H_    0.749359 0.018486 0.340921 0.191682
H7    H     H_    0.696681 0.067923 0.300652 0.154553
H8    H     H_    0.781602 0.025136 0.284930 0.118208
H9    H     H_    0.091137 0.272166 0.712646 0.261353
H10   H     H_    0.981571 0.250545 0.659083 0.191641
H11   H     H_    0.932076 0.303356 0.699260 0.154618
H12   H     H_    0.981526 0.749359 0.340920 0.191683
H13   H     H_    0.974791 0.218454 0.715099 0.118208
H14   H     H_    0.272186 0.908822 0.712640 0.261364
H15   H     H_    0.250637 0.018467 0.659082 0.191683
H16   H     H_    0.303303 0.067907 0.699356 0.154550
H17   H     H_    0.218388 0.025102 0.715072 0.118209
H18   H     H_    0.908851 0.727824 0.712638 0.261367
H19   H     H_    0.018506 0.749368 0.659087 0.191684
H20   H     H_    0.067935 0.696697 0.699363 0.154549
H21   H     H_    0.025133 0.781614 0.715078 0.118208
H22   H     H_    0.727816 0.091172 0.712640 0.261363
H23   H     H_    0.932086 0.696686 0.300650 0.154551
H24   H     H_    0.749354 0.981525 0.659081 0.191686
H25   H     H_    0.696692 0.932088 0.699358 0.154546
H26   H     H_    0.781611 0.974891 0.715069 0.118209
H27   H     H_    0.268827 0.915366 0.784118 0.256035
H28   H     H_    0.227809 0.004064 0.834549 0.155768
H29   H     H_    0.263333 0.054116 0.787996 0.128131
H30   H     H_    0.317390 0.043253 0.837440 0.179975
H31   H     H_    0.084552 0.268797 0.784120 0.256032
H32   H     H_    0.995831 0.227812 0.834542 0.155751
H33   H     H_    0.945790 0.263383 0.787999 0.128139
H34   H     H_    0.974881 0.781605 0.284930 0.118208
H35   H     H_    0.956696 0.317415 0.837449 0.179983
H36   H     H_    0.731172 0.084635 0.784119 0.256034
H37   H     H_    0.772190 0.995936 0.834549 0.155768
H38   H     H_    0.736669 0.945885 0.787996 0.128130
H39   H     H_    0.682610 0.956746 0.837439 0.179973
H40   H     H_    0.915413 0.731192 0.784116 0.256035
H41   H     H_    0.004119 0.772190 0.834547 0.155766
H42   H     H_    0.054165 0.736651 0.787997 0.128127
H43   H     H_    0.043284 0.682599 0.837442 0.179976
H44   H     H_    0.268824 0.084625 0.215880 0.256035
H45   H     H_    0.272169 0.091143 0.287358 0.261360
H46   H     H_    0.227807 0.995920 0.165453 0.155765
H47   H     H_    0.263332 0.945872 0.212006 0.128134
H48   H     H_    0.317389 0.956734 0.162563 0.179972
H49   H     H_    0.084630 0.731173 0.215881 0.256035
H50   H     H_    0.995930 0.772190 0.165452 0.155767
H51   H     H_    0.945879 0.736666 0.212004 0.128131
H52   H     H_    0.956743 0.682609 0.162560 0.179973
H53   H     H_    0.731178 0.915377 0.215882 0.256035
H54   H     H_    0.772192 0.004078 0.165452 0.155765
H55   H     H_    0.736666 0.054129 0.212004 0.128130
H56   H     H_    0.250648 0.981514 0.340926 0.191683
H57   H     H_    0.682609 0.043262 0.162560 0.179974
H58   H     H_    0.915351 0.268834 0.215881 0.256036
H59   H     H_    0.004047 0.227809 0.165449 0.155774
H60   H     H_    0.054098 0.263316 0.212007 0.128130
H61   H     H_    0.043251 0.317384 0.162566 0.179969
H62   H     H_    0.303335 0.932070 0.300666 0.154557
H63   H     H_    0.218408 0.974841 0.284936 0.118211
H64   H     H_    0.908836 0.272179 0.287359 0.261363
N1    N     N_2   0.047695 0.694885 0.295305 -0.474725
N2    N     N_2   0.050701 0.307476 0.797640 -0.465257
N3    N     N_2   0.692509 0.050766 0.797640 -0.465248
N4    N     N_2   0.949270 0.692520 0.797639 -0.465246
N5    N     N_2   0.307487 0.050755 0.202360 -0.465248
N6    N     N_2   0.050762 0.692510 0.202360 -0.465248
N7    N     N_2   0.692513 0.949244 0.202361 -0.465248
N8    N     N_2   0.949225 0.307493 0.202360 -0.465246
N9    N     N_2   0.305111 0.047678 0.295305 -0.474729
N10   N     N_2   0.952306 0.305115 0.295305 -0.474725
N11   N     N_2   0.694888 0.952314 0.295306 -0.474725
N12   N     N_2   0.047673 0.305106 0.704693 -0.474727
N13   N     N_2   0.305116 0.952297 0.704695 -0.474724
N14   N     N_2   0.952325 0.694891 0.704694 -0.474723
N15   N     N_2   0.694884 0.047698 0.704695 -0.474725
N16   N     N_2   0.307490 0.949234 0.797639 -0.465249
O1    O     O_R   0.105780 0.561220 0.000020 -0.493568
O2    O     O_R   0.938780 0.605780 0.500020 -0.491488
O3    O     O_R   0.394220 0.938780 0.500020 -0.491488
O4    O     O_R   0.061220 0.394220 0.500020 -0.491489
O5    O     O_R   0.605780 0.938780 0.499980 -0.491488
O6    O     O_R   0.938780 0.394220 0.499980 -0.491488
O7    O     O_R   0.394220 0.061220 0.499980 -0.491488
O8    O     O_R   0.061220 0.605780 0.499980 -0.491487
O9    O     O_R   0.999940 0.561230 0.064880 -0.480795
O10   O     O_R   0.438770 0.999940 0.064880 -0.480794
O11   O     O_R   0.000060 0.438770 0.064880 -0.480795
O12   O     O_R   0.438780 0.105780 0.000020 -0.493567
O13   O     O_R   0.561230 0.000060 0.064880 -0.480795
O14   O     O_R   0.999940 0.438770 0.935120 -0.480792
O15   O     O_R   0.438770 0.000060 0.935120 -0.480796
O16   O     O_R   0.000060 0.561230 0.935120 -0.480792
O17   O     O_R   0.561230 0.999940 0.935120 -0.480796
O18   O     O_R   0.499940 0.061230 0.564880 -0.478135
O19   O     O_R   0.938770 0.499940 0.564880 -0.478142
O20   O     O_R   0.500060 0.938770 0.564880 -0.478136
O21   O     O_R   0.061230 0.500060 0.564880 -0.478136
O22   O     O_R   0.499940 0.938770 0.435120 -0.478138
O23   O     O_R   0.894220 0.438780 0.000020 -0.493568
O24   O     O_R   0.938770 0.500060 0.435120 -0.478136
O25   O     O_R   0.500060 0.061230 0.435120 -0.478136
O26   O     O_R   0.061230 0.499940 0.435120 -0.478137
O27   O     O_R   0.499980 0.394200 0.037580 -0.497760
O28   O     O_R   0.605800 0.499980 0.037580 -0.497758
O29   O     O_R   0.500020 0.605800 0.037580 -0.497760
O30   O     O_R   0.394200 0.500020 0.037580 -0.497758
O31   O     O_R   0.499980 0.605800 0.962420 -0.497760
O32   O     O_R   0.605800 0.500020 0.962420 -0.497762
O33   O     O_R   0.500020 0.394200 0.962420 -0.497760
O34   O     O_R   0.561220 0.894220 0.000020 -0.493567
O35   O     O_R   0.394200 0.499980 0.962420 -0.497763
O36   O     O_R   0.999980 0.894200 0.537580 -0.502005
O37   O     O_R   0.105800 0.999980 0.537580 -0.502009
O38   O     O_R   0.000020 0.105800 0.537580 -0.502012
O39   O     O_R   0.894200 0.000020 0.537580 -0.502009
O40   O     O_R   0.999980 0.105800 0.462420 -0.502008
O41   O     O_R   0.105800 0.000020 0.462420 -0.502009
O42   O     O_R   0.000020 0.894200 0.462420 -0.502010
O43   O     O_R   0.894200 0.999980 0.462420 -0.502008
O44   O     O_R   0.105780 0.438780 0.999980 -0.493568
O45   O     O_R   0.438780 0.894220 0.999980 -0.493568
O46   O     O_R   0.894220 0.561220 0.999980 -0.493568
O47   O     O_R   0.561220 0.105780 0.999980 -0.493568
O48   O     O_R   0.605780 0.061220 0.500020 -0.491488

loop_
_geom_bond_atom_site_label_1
_geom_bond_atom_site_label_2
_ccdc_geom_bond_type
C77   O2    A    
C34   O15   A    
C6    N7    S    
C61   C76   A    
Cu5   O10   S    
C24   C55   S    
Cu8   O18   S    
C90   C103  A    
C93   C119  A    
C84   C111  A    
C4    N5    S    
C22   N6    S    
Cu9   O24   S    
C18   H32   S    
C114  C119  A    
C26   C66   S    
C86   C113  A    
C21   N5    S    
Cu12  O29   S    
Cu1   Cu6   S    
C50   O29   A    
C1    C110  S    
C17   H28   S    
C28   C88   S    
C89   C115  A    
H64   N10   S    
C90   C116  A    
Cu5   O15   S    
C44   O46   A    
Br14  C63   S    
Cu10  O22   S    
C20   H42   S    
C14   H15   S    
C23   N7    S    
C61   C90   A    
C101  C108  A    
C62   C78   A    
C57   C74   A    
C38   C74   S    
C23   H55   S    
Br11  C60   S    
Cu5   Cu7   S    
C94   C105  A    
C53   O37   A    
C65   C79   A    
C69   C80   A    
C34   C79   S    
C119  N2    S    
C20   H43   S    
C49   O28   A    
Cu10  O20   S    
Cu1   O46   S    
C3    C116  A    
C85   C112  A    
Cu4   O41   S    
C18   H33   S    
C3    N4    S    
Cu11  O4    S    
C30   O9    A    
C114  N12   S    
C9    H63   S    
C70   C81   A    
C115  N13   S    
C85   C101  A    
Cu12  O30   S    
Cu4   O40   S    
C59   C74   A    
C68   C92   A    
C7    C100  A    
C4    C96   A    
Cu1   O16   S    
C94   C120  A    
C42   C50   S    
C88   O7    A    
C14   H16   S    
Br7   C72   S    
Cu2   Cu12  S    
C5    C97   A    
C59   C83   A    
C37   C75   S    
H9    N12   S    
C60   C75   A    
Cu7   O13   S    
C89   C104  A    
C9    N9    S    
C44   O23   A    
Cu5   O45   S    
C12   N12   S    
C34   O17   A    
C10   H3    S    
C36   O21   A    
C92   C105  A    
C72   C81   A    
C86   C102  A    
C32   O16   A    
C43   C56   S    
C58   C86   A    
C48   O27   A    
C25   H61   S    
Cu11  O8    S    
C17   N16   S    
C11   H6    S    
H45   N9    S    
C30   C82   S    
Cu10  O5    S    
Cu9   O6    S    
C95   C106  A    
Cu7   O47   S    
H18   N14   S    
C38   O26   A    
C14   N13   S    
C63   C87   A    
C22   H50   S    
C115  C118  A    
C109  N1    S    
H44   N5    S    
C33   O12   A    
C27   C77   S    
C12   H10   S    
Cu9   Cu11  S    
C12   H13   S    
C54   O38   A    
C73   C97   A    
Cu10  O3    S    
C77   O8    A    
C11   H7    S    
Cu6   O11   S    
Cu2   O32   S    
Cu6   O44   S    
C24   C42   T    
C53   O41   A    
Cu9   O19   S    
C17   H29   S    
C20   H41   S    
C21   H48   S    
C60   C84   A    
C10   H2    S    
C35   O18   A    
H53   N7    S    
C4    C111  A    
C83   C109  A    
C50   O31   A    
C18   N2    S    
C112  N10   S    
C31   O13   A    
Cu1   O9    S    
C1    O1    A    
C48   O33   A    
H36   N3    S    
Cu2   O33   S    
Br4   C69   S    
C15   H21   S    
C28   C46   T    
Cu6   O14   S    
C8    H34   S    
C64   C89   A    
C29   C47   T    
C12   H11   S    
Br6   C71   S    
Cu3   O37   S    
C46   C53   S    
C62   C91   A    
C68   C79   A    
C118  N16   S    
C58   C75   A    
C25   H59   S    
C66   O48   A    
C10   N10   S    
C116  N14   S    
C83   C101  A    
Cu8   Cu10  S    
C1    O44   A    
C8    N1    S    
C29   C99   S    
C39   C51   S    
Br15  C64   S    
C47   C54   S    
C19   H37   S    
Br12  C61   S    
C49   O32   A    
C55   O34   A    
C40   C48   S    
C99   O4    A    
C39   C110  T    
C18   H35   S    
C37   O25   A    
C56   O43   A    
Cu9   O2    S    
C30   O11   A    
C15   H20   S    
C54   O40   A    
C102  C107  A    
C71   C100  A    
C31   O10   A    
C96   C107  A    
C117  C120  A    
Br5   C70   S    
C32   O14   A    
C8    H23   S    
Cu3   O38   S    
C15   H19   S    
Cu12  O28   S    
Cu5   O12   S    
C3    C95   A    
C5    N6    S    
H40   N4    S    
C6    C113  A    
C67   C95   A    
C23   H54   S    
C84   C102  A    
Br9   C58   S    
C98   C107  A    
C9    H56   S    
C5    C109  A    
H49   N6    S    
C36   O19   A    
C21   H47   S    
C91   C104  A    
C52   O36   A    
H14   N13   S    
C104  C105  A    
C27   C45   T    
C63   C76   A    
C13   C41   T    
C103  C106  A    
C11   H8    S    
Cu3   O39   S    
Br13  C62   S    
Cu11  O21   S    
Cu1   O1    S    
Cu6   O23   S    
C100  C108  A    
Cu8   O7    S    
C17   H30   S    
C11   N11   S    
C32   C80   S    
C87   C103  A    
C120  N3    S    
C117  N15   S    
C14   H17   S    
C41   C49   S    
Cu8   O25   S    
C88   O3    A    
C92   C118  A    
C26   C43   T    
C51   O35   A    
Cu3   Cu4   S    
C8    H12   S    
H5    N11   S    
C2    C40   T    
Cu2   O35   S    
C7    N8    S    
C16   H25   S    
C66   O5    A    
Cu11  O26   S    
C69   C93   A    
C31   C81   S    
Cu4   O43   S    
C70   C98   A    
C73   C82   A    
Cu8   O48   S    
C52   O42   A    
H58   N8    S    
C25   N8    S    
C71   C82   A    
C25   H60   S    
C10   H4    S    
C35   O20   A    
Br1   C57   S    
C91   C117  A    
C19   N3    S    
C111  N9    S    
C21   H46   S    
Br2   C67   S    
C45   C52   S    
C97   C108  A    
C16   H26   S    
C16   N15   S    
C19   H38   S    
C67   C80   A    
C23   H57   S    
H31   N2    S    
C57   C85   A    
Br16  C65   S    
C55   O45   A    
Cu4   O42   S    
C22   H52   S    
C37   O22   A    
C56   O39   A    
C16   H24   S    
C9    H62   S    
C93   C106  A    
C87   C114  A    
H1    N1    S    
C51   O30   A    
C36   C76   S    
H27   N16   S    
C35   C78   S    
Cu7   O34   S    
C72   C96   A    
Cu7   O17   S    
C6    C98   A    
C65   C94   A    
C33   O47   A    
Cu12  O27   S    
Cu2   O31   S    
C15   N14   S    
Br3   C68   S    
C38   O24   A    
C22   H51   S    
C13   C44   S    
Cu3   O36   S    
Br8   C73   S    
H22   N15   S    
C64   C78   A    
C113  N11   S    
C99   O6    A    
C20   N4    S    
C19   H39   S    
C2    C33   S    
C7    C112  A    
Br10  C59   S    
