data_mof_unit_31252.cif
_audit_creation_date              2012-12-11T16:26:28-0500
_audit_creation_method            fapswitch 2.2
_symmetry_space_group_name_H-M    P1
_symmetry_Int_Tables_number       1
_space_group_crystal_system       triclinic
_cell_length_a                    6.930361
_cell_length_b                    17.476231
_cell_length_c                    19.649512
_cell_angle_alpha                 107.996551
_cell_angle_beta                  90.209851
_cell_angle_gamma                 91.03961
_cell_volume                      2262.96636101

loop_
_atom_site_label
_atom_site_type_symbol
_atom_type_description
_atom_site_fract_x
_atom_site_fract_y
_atom_site_fract_z
_atom_type_partial_charge
O1    O     O_R   0.494330 0.415720 0.413720 -0.544896
O2    O     O_R   0.819330 0.430070 0.560210 -0.538421
O3    O     O_R   0.994320 0.584280 0.586280 -0.538251
C1    C     C_R   0.649226 0.413486 0.580798 0.699597
O4    O     O_R   0.823730 0.406300 0.412670 -0.536593
O5    O     O_R   0.998760 0.560340 0.437690 -0.540338
C2    C     C_R   0.651755 0.380379 0.388292 0.681556
O6    O     O_R   0.489890 0.439660 0.562310 -0.554032
O7    O     O_3   0.662340 0.550560 0.508380 -0.359807
V1    V     V_3+5 0.935370 0.490620 0.498450 1.428758
O8    O     O_R   0.328750 0.569930 0.439790 -0.533026
C3    C     C_R   0.161236 0.584603 0.417974 0.710325
O9    O     O_R   0.324340 0.593700 0.587330 -0.537811
C4    C     C_R   0.157124 0.615608 0.615653 0.683913
V2    V     V_3+5 0.435940 0.509380 0.501550 1.427279
O10   O     O_3   0.159100 0.449440 0.491620 -0.375401
C5    C     C_R   0.340412 0.612680 0.748179 -0.222525
C6    C     C_R   0.429705 0.608431 0.810412 -0.214820
C7    C     C_R   0.414099 0.671243 0.873951 0.486894
C8    C     C_R   0.305607 0.738284 0.875255 -0.211590
C9    C     C_R   0.219670 0.746262 0.812134 -0.008565
C10   C     C_R   0.237310 0.681526 0.747134 0.079420
C11   C     C_R   0.114654 0.816399 0.813770 -0.122198
C12   C     C_R   0.025389 0.820440 0.748452 0.064305
C13   C     C_R   0.047517 0.755250 0.683521 -0.028370
C14   C     C_R   0.149678 0.685518 0.683026 -0.133033
C15   C     C_R   0.916369 0.887528 0.743997 0.210907
C16   C     C_R   0.834705 0.888989 0.679133 -0.063056
C17   C     C_R   0.859771 0.826231 0.616586 0.226956
C18   C     C_R   0.968228 0.761073 0.618665 -0.134360
H1    H     H_    0.354186 0.561112 0.701022 0.133982
H2    H     H_    0.510336 0.555470 0.809034 0.137823
H3    H     H_    0.288735 0.783442 0.926504 0.141134
H4    H     H_    0.750280 0.940145 0.677960 0.140313
H5    H     H_    0.989354 0.715209 0.567995 0.127646
C19   C     C_R   0.166089 0.593109 0.292176 0.128196
C20   C     C_R   0.156652 0.631646 0.366873 -0.132824
C21   C     C_R   0.149883 0.715777 0.393177 -0.203628
C22   C     C_R   0.147275 0.762675 0.346291 0.113104
C23   C     C_R   0.142247 0.723870 0.271465 -0.039006
C24   C     C_R   0.149451 0.638913 0.244239 0.108205
C25   C     C_R   0.149718 0.847607 0.372462 0.166805
C26   C     C_R   0.145231 0.892804 0.324575 -0.168633
C27   C     C_R   0.137831 0.854970 0.250525 0.074809
C28   C     C_R   0.133576 0.770263 0.223668 0.035268
C29   C     C_R   0.122027 0.732051 0.148993 0.114144
C30   C     C_R   0.125104 0.647817 0.122664 -0.095543
C31   C     C_R   0.141683 0.601884 0.169505 -0.163561
C32   C     C_R   0.134868 0.900663 0.202941 -0.059852
C33   C     C_R   0.114517 0.863347 0.128962 -0.088222
C34   C     C_R   0.108371 0.778837 0.102120 -0.118286
H6    H     H_    0.149991 0.744339 0.450582 0.153585
H7    H     H_    0.145165 0.957858 0.345760 0.136192
H8    H     H_    0.146774 0.965507 0.223615 0.162330
H9    H     H_    0.096373 0.749739 0.044851 0.157428
H10   H     H_    0.116444 0.617320 0.065607 0.183101
H11   H     H_    0.145484 0.537035 0.146841 0.176304
C35   C     C_R   0.789792 0.168919 0.854895 -0.045711
C36   C     C_R   0.624089 0.123978 0.860553 -0.088329
C37   C     C_R   0.470393 0.117884 0.812256 -0.183037
C38   C     C_R   0.481631 0.154784 0.757758 -0.066808
C39   C     C_R   0.636903 0.208859 0.759598 0.028305
C40   C     C_R   0.793402 0.214432 0.807434 0.173391
C41   C     C_R   0.342856 0.139752 0.701839 0.358981
C42   C     C_R   0.333447 0.192981 0.660033 0.113816
C43   C     C_R   0.478620 0.253872 0.667191 0.032602
C44   C     C_R   0.637326 0.257102 0.713609 -0.051962
C45   C     C_R   0.795838 0.309759 0.715400 0.118700
C46   C     C_R   0.953084 0.312414 0.761294 -0.169839
C47   C     C_R   0.951948 0.265117 0.806882 -0.128967
C48   C     C_R   0.474025 0.309552 0.627269 0.184734
C49   C     C_R   0.637620 0.360199 0.627253 -0.155389
C50   C     C_R   0.796682 0.358789 0.671123 -0.208547
H12   H     H_    0.913387 0.171311 0.889404 0.168264
H13   H     H_    0.341489 0.085095 0.818369 0.187993
H14   H     H_    0.920530 0.398037 0.672376 0.131173
H15   H     H_    0.076835 0.351579 0.762252 0.132517
H16   H     H_    0.074471 0.268774 0.842266 0.136186
H17   H     H_    0.310081 0.142843 0.411412 0.145956
C51   C     C_R   0.730678 0.418084 0.263054 -0.174338
C52   C     C_R   0.767818 0.443512 0.205068 -0.198627
C53   C     C_R   0.757150 0.389328 0.138050 -0.134385
C54   C     C_R   0.704123 0.308501 0.127136 0.443090
C55   C     C_R   0.671772 0.276840 0.186230 -0.041575
C56   C     C_R   0.683595 0.336453 0.255704 0.043544
C57   C     C_R   0.627151 0.192468 0.181942 -0.171257
C58   C     C_R   0.577737 0.176015 0.247482 -0.036421
C59   C     C_R   0.556575 0.240813 0.311880 0.037679
C60   C     C_R   0.634489 0.317209 0.317690 -0.114801
C61   C     C_R   0.544886 0.096869 0.252769 0.402456
C62   C     C_R   0.434579 0.086492 0.308942 -0.138426
C63   C     C_R   0.387653 0.151830 0.366657 -0.162034
C64   C     C_R   0.459024 0.227550 0.370342 -0.148240
H18   H     H_    0.735738 0.465007 0.314027 0.131167
H19   H     H_    0.802598 0.506177 0.212152 0.162338
H20   H     H_    0.787490 0.412458 0.094053 0.178361
H21   H     H_    0.403604 0.026867 0.312072 0.146173
H22   H     H_    0.433090 0.275871 0.418781 0.111636
O11   O     O_R   0.775200 0.060470 0.937800 -0.525269
O12   O     O_R   0.441110 0.093720 0.087350 -0.528128
O13   O     O_R   0.266330 0.939630 0.062280 -0.529727
C65   C     C_R   0.612812 0.121883 0.112482 0.936487
O14   O     O_R   0.445750 0.069950 0.939820 -0.530956
O15   O     O_R   0.271000 0.915700 0.913700 -0.566631
C66   C     C_R   0.613996 0.080294 0.914508 0.820266
O16   O     O_R   0.770530 0.084400 0.086380 -0.480527
O17   O     O_3   0.602830 0.949510 0.991680 -0.364959
V3    V     V_3+5 0.329710 0.009370 0.001550 1.625592
O18   O     O_R   0.940990 0.906170 0.912570 -0.535670
C67   C     C_R   0.108009 0.884996 0.883203 0.714785
O19   O     O_R   0.936350 0.929940 0.060100 -0.502143
C68   C     C_R   0.105011 0.913123 0.080198 0.764591
V4    V     V_3+5 0.829160 0.990450 0.998310 1.683790
O20   O     O_3   0.105910 0.050480 0.008320 -0.353422
N1    N     N_3   0.771750 0.826622 0.550445 -0.651816
H23   H     H_    0.693003 0.879012 0.557805 0.245939
H24   H     H_    0.882323 0.828199 0.514972 0.256562
N2    N     N_3   0.160128 0.888579 0.447767 -0.645528
H25   H     H_    0.041925 0.926499 0.461345 0.263902
H26   H     H_    0.285423 0.924702 0.457971 0.265151
S1    S     S_3+6 0.193433 0.050752 0.678169 -0.070929
O21   O     O_2   0.993382 0.073267 0.704789 -0.368108
O22   O     O_2   0.182916 0.014015 0.598323 -0.353309
O23   O     O_3   0.275474 0.979844 0.711947 -0.524589
H27   H     H_    0.394363 0.960085 0.684925 0.332909
N3    N     N_3   0.180331 0.183729 0.608457 -0.592129
H28   H     H_    0.047650 0.177417 0.631414 0.286606
H29   H     H_    0.205527 0.133805 0.564086 0.277157
N4    N     N_3   0.302224 0.314922 0.588176 -0.615988
H30   H     H_    0.243478 0.371864 0.609848 0.235653
H31   H     H_    0.334841 0.304131 0.534309 0.231141
S2    S     S_3+6 0.677127 0.255393 0.037577 -0.083250
O24   O     O_2   0.841209 0.198386 0.020725 -0.359119
O25   O     O_2   0.483417 0.213727 0.026454 -0.380450
O26   O     O_3   0.691461 0.314471 0.984267 -0.516744
H32   H     H_    0.562897 0.339028 0.986804 0.349906
S3    S     S_3+6 0.700919 0.016880 0.213954 -0.063069
O27   O     O_2   0.891629 0.050312 0.199090 -0.367883
O28   O     O_2   0.733946 0.969973 0.265439 -0.368919
O29   O     O_3   0.601514 0.955138 0.138451 -0.503044
H33   H     H_    0.622758 0.899883 0.140231 0.368174
S4    S     S_3+6 0.531673 0.665383 0.951913 -0.021952
O30   O     O_2   0.514580 0.742878 0.011947 -0.338198
O31   O     O_2   0.441983 0.598109 0.974357 -0.346839
O32   O     O_3   0.766812 0.646817 0.934727 -0.501110
H34   H     H_    0.771946 0.588633 0.908153 0.337529
N5    N     N_3   0.879409 0.954445 0.804958 -0.652209
H35   H     H_    0.729615 0.959447 0.808806 0.185859
H36   H     H_    0.937880 0.006343 0.796980 0.282444
N6    N     N_3   0.202330 0.508491 0.264894 -0.668420
H37   H     H_    0.339189 0.498785 0.282818 0.240056
H38   H     H_    0.102629 0.477522 0.286802 0.232535

loop_
_geom_bond_atom_site_label_1
_geom_bond_atom_site_label_2
_ccdc_geom_bond_type
C27   C32   A    
C58   C59   A    
N3    H28   S    
C47   H16   S    
C46   H15   S    
O19   C68   A    
C12   C15   A    
C1    C49   S    
C1    O6    A    
O32   H34   S    
C31   H11   S    
C28   C29   A    
O13   C68   A    
S3    O28   D    
C51   C56   A    
C18   H5    S    
C16   C17   A    
N5    H36   S    
C55   C57   A    
N4    H30   S    
O5    C3    A    
C21   C22   A    
C52   H19   S    
C21   H6    S    
C41   S1    S    
C2    C60   S    
C13   C18   A    
C5    C6    A    
C6    C7    A    
V3    O20   S    
C3    C20   S    
N2    H25   S    
O17   V4    S    
S1    O23   S    
N5    H35   S    
C59   C64   A    
O8    V2    S    
C55   C56   A    
C26   H7    S    
C30   C31   A    
S2    O24   D    
N1    H24   S    
C11   C12   A    
O14   V3    S    
O1    V2    S    
C17   C18   A    
O7    V1    S    
C34   H9    S    
O18   V4    S    
C49   C50   A    
C59   C60   A    
C45   C50   A    
O13   V3    S    
C43   C44   A    
C17   N1    S    
C16   H4    S    
C36   C37   A    
C32   H8    S    
O9    C4    A    
S4    O32   S    
C19   C24   A    
C38   C39   A    
O12   C65   A    
C62   H21   S    
C52   C53   A    
C22   C25   A    
C23   C28   A    
O11   C66   A    
S3    O29   S    
O12   V3    S    
C53   H20   S    
O16   V4    S    
C44   C45   A    
O26   H32   S    
C12   C13   A    
O14   C66   A    
C62   C63   A    
O4    C2    A    
C56   C60   A    
C57   C58   A    
C45   C46   A    
C13   C14   A    
C29   C34   A    
C53   C54   A    
C4    C14   S    
C37   C38   A    
C38   C41   A    
O2    C1    A    
C26   C27   A    
C43   C48   A    
O5    V1    S    
C20   C21   A    
C48   N4    S    
C54   C55   A    
C40   C47   A    
O17   V3    S    
C39   C40   A    
C33   C68   S    
C33   C34   A    
S1    O21   D    
O19   V4    S    
C36   C66   S    
O29   H33   S    
H17   C63   S    
O3    C4    A    
C8    H3    S    
C39   C44   A    
S2    O25   D    
C23   C24   A    
C42   C43   A    
O6    V2    S    
C9    C11   A    
C5    H1    S    
C50   H14   S    
N6    H38   S    
C6    H2    S    
C25   C26   A    
C51   H18   S    
O2    V1    S    
O15   V3    S    
C61   S3    S    
C27   C28   A    
C35   H12   S    
V4    O20   S    
C35   C40   A    
C11   C67   S    
C29   C30   A    
C19   C20   A    
N3    H29   S    
O1    C2    A    
C25   N2    S    
C51   C52   A    
O11   V4    S    
O8    C3    A    
C7    S4    S    
S3    O27   D    
C37   H13   S    
C5    C10   A    
C41   C42   A    
C7    C8    A    
O9    V2    S    
C35   C36   A    
C54   S2    S    
O3    V1    S    
V1    O10   S    
O18   C67   A    
C42   N3    S    
O15   C67   A    
C19   N6    S    
C61   C62   A    
S2    O26   S    
C63   C64   A    
C24   C31   A    
C65   O16   A    
S4    O31   D    
O7    V2    S    
C46   C47   A    
N2    H26   S    
S1    O22   D    
C22   C23   A    
O4    V1    S    
C48   C49   A    
C8    C9    A    
C15   N5    S    
C32   C33   A    
C10   C14   A    
C58   C61   A    
C15   C16   A    
S4    O30   D    
N6    H37   S    
O23   H27   S    
N1    H23   S    
C9    C10   A    
C64   H22   S    
V2    O10   S    
C30   H10   S    
N4    H31   S    
C57   C65   S    
