data_mof_unit_17617.cif
_audit_creation_date              2012-12-10T17:01:34-0500
_audit_creation_method            fapswitch 2.2
_symmetry_space_group_name_H-M    P1
_symmetry_Int_Tables_number       1
_space_group_crystal_system       triclinic
_cell_length_a                    9.8932
_cell_length_b                    11.055313
_cell_length_c                    12.999476
_cell_angle_alpha                 89.830336
_cell_angle_beta                  75.183837
_cell_angle_gamma                 111.652171
_cell_volume                      1270.01295727

loop_
_atom_site_label
_atom_site_type_symbol
_atom_type_description
_atom_site_fract_x
_atom_site_fract_y
_atom_site_fract_z
_atom_type_partial_charge
C1    C     C_R   0.438316 0.253256 0.507632 0.720040
C2    C     C_R   0.561844 0.746840 0.491397 0.751408
C3    C     C_2   0.084455 0.511335 0.490364 0.393482
C4    C     C_2   0.915281 0.487764 0.509019 0.373320
C5    C     C_R   0.471547 0.492362 0.703149 0.829386
C6    C     C_R   0.527233 0.502169 0.297046 0.829790
C7    C     C_R   0.544017 0.499117 0.182111 -0.155510
C8    C     C_R   0.452345 0.481586 0.818539 -0.153035
C9    C     C_R   0.297549 0.442647 0.002402 -0.283241
C10   C     C_R   0.697572 0.526712 0.998560 -0.281172
C11   C     C_R   0.307704 0.442383 0.893253 0.467372
C12   C     C_R   0.685607 0.520220 0.108085 0.463264
C13   C     C_R   0.581236 0.508202 0.854489 -0.295883
C14   C     C_R   0.415365 0.472250 0.146062 -0.298547
C15   C     C_R   0.569035 0.501944 0.963234 0.101418
C16   C     C_R   0.426733 0.471740 0.037517 0.110822
C17   C     C_2   0.401481 0.111729 0.510682 0.205579
C18   C     C_2   0.599289 0.888669 0.484359 0.191161
C19   C     C_2   0.515527 0.070167 0.487639 -0.126765
C20   C     C_2   0.487387 0.931045 0.491419 -0.112880
Cu1   Cu    Cu3+1 0.647370 0.522180 0.481340 1.000428
Cu2   Cu    Cu3+1 0.352630 0.477820 0.518660 1.002602
H1    H     H_    0.305695 0.451943 0.202411 0.179789
H2    H     H_    0.691939 0.534686 0.797888 0.184363
H3    H     H_    0.188497 0.419403 0.059652 0.125724
H4    H     H_    0.807418 0.551061 0.941371 0.152847
H5    H     H_    0.372085 0.861802 0.501923 0.214609
H6    H     H_    0.632122 0.139923 0.467143 0.205034
H7    H     H_    0.947514 0.633023 0.399491 0.172402
H8    H     H_    0.052607 0.367501 0.601020 0.155106
N1    N     N_2   0.131210 0.444490 0.546730 -0.278354
N2    N     N_2   0.868790 0.555510 0.453270 -0.290311
O1    O     O_R   0.578710 0.332530 0.490040 -0.550319
O2    O     O_R   0.421290 0.667470 0.509960 -0.536620
O3    O     O_R   0.329810 0.295070 0.521560 -0.601066
O4    O     O_R   0.670190 0.704930 0.478440 -0.582465
O5    O     O_R   0.604230 0.515670 0.637800 -0.541430
O6    O     O_R   0.395770 0.484330 0.362200 -0.541266
O7    O     O_R   0.355330 0.478200 0.669330 -0.540361
O8    O     O_R   0.644670 0.521800 0.330670 -0.545787
O9    O     O_3   0.814534 0.546874 0.142175 -0.590710
C21   C     C_3   0.868323 0.444310 0.123215 0.055465
H9    H     H_    0.989924 0.485895 0.120294 0.166270
H10   H     H_    0.861994 0.405854 0.044712 0.132117
C22   C     C_3   0.785941 0.332568 0.214696 -0.354720
H11   H     H_    0.803649 0.370809 0.291133 0.250799
H12   H     H_    0.662602 0.292100 0.222198 0.205299
C23   C     C_3   0.844139 0.222260 0.195483 -0.910641
H13   H     H_    0.827099 0.181434 0.119715 0.249170
H14   H     H_    0.780978 0.142728 0.262436 0.285388
H15   H     H_    0.966233 0.258717 0.191487 0.249741
O10   O     O_3   0.178291 0.414933 0.859532 -0.597790
C24   C     C_3   0.082096 0.281010 0.887637 0.019883
H16   H     H_    0.965059 0.272558 0.892802 0.159816
H17   H     H_    0.078353 0.241155 0.967598 0.135726
C25   C     C_3   0.126564 0.197533 0.801558 -0.332651
H18   H     H_    0.121971 0.233906 0.723330 0.238703
H19   H     H_    0.244028 0.205440 0.794095 0.207507
C26   C     C_3   0.020269 0.053859 0.828890 -0.886938
H20   H     H_    0.024300 0.014531 0.906302 0.261701
H21   H     H_    0.055583 0.996089 0.765333 0.275847
H22   H     H_    0.902346 0.042859 0.834312 0.255933
O11   O     O_3   0.745711 0.978200 0.471328 -0.736486
H23   H     H_    0.813658 0.930801 0.469625 0.348254
O12   O     O_3   0.253314 0.021616 0.537073 -0.736482
H24   H     H_    0.183451 0.068337 0.554206 0.342137
O13   O     O_3   0.806023 0.393030 0.587517 -0.687267
H25   H     H_    0.846291 0.393100 0.649697 0.285568
O14   O     O_3   0.193436 0.605112 0.411056 -0.691188
H26   H     H_    0.152402 0.604356 0.349158 0.284620

loop_
_geom_bond_atom_site_label_1
_geom_bond_atom_site_label_2
_ccdc_geom_bond_type
C14   H1    S    
C15   C16   A    
C4    O13   S    
C6    O6    A    
C8    C13   A    
Cu2   O3    S    
C20   H5    S    
C5    O5    A    
C2    C18   S    
O9    C21   S    
C1    C17   S    
C19   C20   S    
C25   C26   S    
H8    N1    S    
C10   H4    S    
C24   H17   S    
C9    H3    S    
C26   H20   S    
Cu1   O4    S    
C4    N2    D    
C24   H16   S    
O10   C24   S    
C3    N1    D    
C19   H6    S    
C9    C11   A    
C2    O2    A    
C6    C7    S    
Cu1   O8    S    
C21   H10   S    
C8    C11   A    
Cu2   O7    S    
C10   C12   A    
C23   H14   S    
C23   H13   S    
C17   C19   D    
C9    C16   A    
C25   H19   S    
H7    N2    S    
C18   C20   D    
C10   C15   A    
C22   H12   S    
C13   C15   A    
O14   H26   S    
Cu2   O2    S    
Cu1   N2    S    
C6    O8    A    
C18   O11   S    
C24   C25   S    
C5    C8    S    
Cu1   O1    S    
C21   H9    S    
C1    O1    A    
O13   H25   S    
Cu2   O6    S    
C22   H11   S    
Cu1   O5    S    
C25   H18   S    
C1    O3    A    
C12   O9    S    
O12   H24   S    
Cu2   N1    S    
C22   C23   S    
C2    O4    A    
C5    O7    A    
C26   H22   S    
C7    C12   A    
C11   O10   S    
C3    O14   S    
C14   C16   A    
Cu1   Cu2   S    
C17   O12   S    
C23   H15   S    
C7    C14   A    
C3    C4    S    
C13   H2    S    
O11   H23   S    
C26   H21   S    
C21   C22   S    
