data_mof_unit_67681.cif
_audit_creation_date              2012-12-10T19:48:29-0500
_audit_creation_method            fapswitch 2.2
_symmetry_space_group_name_H-M    P1
_symmetry_Int_Tables_number       1
_space_group_crystal_system       triclinic
_cell_length_a                    11.830369
_cell_length_b                    11.129685
_cell_length_c                    9.841508
_cell_angle_alpha                 90.538067
_cell_angle_beta                  92.807798
_cell_angle_gamma                 87.844701
_cell_volume                      1293.30618493

loop_
_atom_site_label
_atom_site_type_symbol
_atom_type_description
_atom_site_fract_x
_atom_site_fract_y
_atom_site_fract_z
_atom_type_partial_charge
C1    C     C_R   0.507470 0.260207 0.498932 0.860010
C2    C     C_R   0.496973 0.739709 0.501316 0.813517
C3    C     C_R   0.873660 0.508149 0.506601 -0.080661
C4    C     C_R   0.128779 0.506811 0.499607 -0.108287
C5    C     C_R   0.949357 0.438476 0.595013 0.133679
C6    C     C_R   0.056017 0.590257 0.424063 0.055596
C7    C     C_3   0.559271 0.039089 0.614593 -0.141896
C8    C     C_3   0.456419 0.959809 0.386774 -0.094799
C9    C     C_3   0.609452 0.945285 0.515112 -0.092648
C10   C     C_3   0.405596 0.052535 0.486736 -0.089571
C11   C     C_3   0.497626 0.877482 0.506503 -0.188983
C12   C     C_3   0.516854 0.121635 0.494666 -0.153863
C13   C     C_3   0.447086 0.971504 0.607330 -0.061058
C14   C     C_3   0.568709 0.026786 0.394055 -0.047103
C15   C     C_3   0.510052 0.605656 0.050590 0.008485
C16   C     C_3   0.489424 0.395340 0.949162 -0.001173
C17   C     C_3   0.416934 0.566615 0.944921 0.017109
C18   C     C_3   0.582391 0.434967 0.052663 -0.004230
C19   C     C_3   0.590752 0.541705 0.952831 -0.063088
C20   C     C_3   0.406666 0.459273 0.046307 -0.073626
C21   C     C_R   0.263136 0.503769 0.498225 0.861766
C22   C     C_R   0.737830 0.501044 0.503059 0.712231
C23   C     C_R   0.102449 0.863276 0.227897 -0.060982
C24   C     C_R   0.906228 0.253720 0.900306 -0.010073
C25   C     C_R   0.114542 0.789980 0.344248 0.001669
C26   C     C_R   0.908102 0.284883 0.761879 -0.124479
C27   C     C_R   0.110731 0.664573 0.324931 0.025392
C28   C     C_R   0.910132 0.406548 0.727088 -0.003492
C29   C     C_R   0.129181 0.612128 0.196794 -0.039480
C30   C     C_R   0.907688 0.498498 0.826417 -0.036375
C31   C     C_R   0.117501 0.686329 0.081105 -0.033419
C32   C     C_R   0.895279 0.467549 0.964091 -0.121777
C33   C     C_R   0.090402 0.808901 0.098751 0.045443
C34   C     C_R   0.906361 0.344524 0.003185 -0.027300
C35   C     C_R   0.931080 0.592529 0.427976 -0.084233
C36   C     C_R   0.071563 0.431472 0.586324 -0.028837
Cu1   Cu    Cu3+1 0.500030 0.499990 0.643150 1.069508
Cu2   Cu    Cu3+1 0.499970 0.500010 0.356850 1.041945
N1    N     N_3   0.500090 0.499970 0.858290 -0.249218
N2    N     N_3   0.499910 0.500030 0.141710 -0.250670
O1    O     O_R   0.500060 0.316850 0.620870 -0.557344
O2    O     O_R   0.499940 0.683150 0.379130 -0.550460
O3    O     O_R   0.500000 0.316860 0.379090 -0.536569
O4    O     O_R   0.500000 0.683140 0.620910 -0.541368
O5    O     O_R   0.319670 0.500010 0.620890 -0.493076
O6    O     O_R   0.680330 0.499990 0.379110 -0.545993
O7    O     O_R   0.319620 0.500010 0.379110 -0.642953
O8    O     O_R   0.680380 0.499990 0.620890 -0.628493
C37   C     C_2   0.019914 0.869072 0.990425 0.863392
O9    O     O_2   0.061995 0.907256 0.889265 -0.610601
O10   O     O_R   0.902718 0.866878 0.999239 -0.620183
H1    H     H_    0.859112 0.882436 0.909844 0.349208
C38   C     C_2   0.932716 0.308331 0.149585 0.963043
O11   O     O_2   0.007151 0.232559 0.173336 -0.446972
O12   O     O_R   0.885118 0.362846 0.261761 -0.759374
H2    H     H_    0.822266 0.422627 0.237648 0.301008
C39   C     C_2   0.351081 0.674707 0.891415 0.860590
O13   O     O_2   0.325733 0.684875 0.770704 -0.492845
O14   O     O_R   0.317572 0.764533 0.981430 -0.792107
H3    H     H_    0.267671 0.828818 0.934919 0.351905
C40   C     C_2   0.656123 0.332566 0.101697 0.768513
O15   O     O_2   0.697578 0.265643 0.018503 -0.610269
O16   O     O_R   0.666378 0.303699 0.238471 -0.690852
H4    H     H_    0.723585 0.235901 0.258797 0.371557
C41   C     C_2   0.543697 0.726187 0.107375 0.607711
H5    H     H_    0.502098 0.808260 0.070806 0.148024
O17   O     O_2   0.628454 0.733611 0.181912 -0.510890
C42   C     C_2   0.471624 0.269706 0.893474 0.544699
H6    H     H_    0.522024 0.193965 0.931948 0.126873
O18   O     O_2   0.391158 0.249619 0.815824 -0.458842
C43   C     C_2   0.664186 0.619283 0.879657 0.515492
H7    H     H_    0.721970 0.575113 0.821028 0.071664
O19   O     O_2   0.648710 0.728067 0.870048 -0.515770
C44   C     C_2   0.332583 0.366226 0.101001 0.485783
H8    H     H_    0.336002 0.348529 0.208357 0.160920
O20   O     O_2   0.275807 0.301562 0.026131 -0.436669
C45   C     C_2   0.101267 0.995337 0.237638 0.463014
H9    H     H_    0.068927 0.043021 0.324687 0.106480
O21   O     O_2   0.139701 0.052718 0.146735 -0.457058
C46   C     C_2   0.891379 0.126121 0.934167 0.591242
H10   H     H_    0.898563 0.058912 0.856071 0.052147
O22   O     O_2   0.862037 0.095350 0.045338 -0.466092
C47   C     C_2   0.114830 0.841910 0.483902 0.406433
H11   H     H_    0.072585 0.927646 0.504180 0.083152
O23   O     O_2   0.162932 0.788354 0.578980 -0.458489
C48   C     C_2   0.921879 0.190987 0.653108 0.380330
H12   H     H_    0.974984 0.110807 0.672028 0.108395
O24   O     O_2   0.875935 0.204006 0.540045 -0.485863
C49   C     C_2   0.131573 0.479078 0.186860 0.279251
H13   H     H_    0.148371 0.421246 0.272839 0.153547
O25   O     O_2   0.109284 0.427959 0.081301 -0.555242
C50   C     C_2   0.914525 0.628576 0.784431 0.290235
H14   H     H_    0.862292 0.698248 0.826916 0.158059
O26   O     O_2   0.982148 0.661176 0.704200 -0.521847
C51   C     C_2   0.117637 0.643931 0.937714 0.253379
H15   H     H_    0.157029 0.560014 0.904442 -0.032079
O27   O     O_2   0.161521 0.549926 0.898851 0.010831
C52   C     C_2   0.887469 0.562664 0.069992 0.274871
H16   H     H_    0.928799 0.550039 0.166777 0.112003
O28   O     O_2   0.833573 0.656448 0.053706 -0.477252
C53   C     C_2   0.856449 0.689879 0.363533 0.458075
H17   H     H_    0.766959 0.693967 0.379173 0.099707
O29   O     O_2   0.891179 0.768976 0.294291 -0.454045
C54   C     C_2   0.140346 0.349273 0.678690 0.407564
H18   H     H_    0.122814 0.342127 0.785215 0.141607
O30   O     O_2   0.216425 0.285840 0.635328 -0.491638
C55   C     C_2   0.723537 0.885423 0.546869 0.478190
H19   H     H_    0.728918 0.793924 0.584145 0.026374
O31   O     O_2   0.809774 0.941452 0.540960 -0.502246
C56   C     C_2   0.289117 0.106601 0.458755 0.499702
H20   H     H_    0.217651 0.072041 0.508043 0.088492
O32   O     O_2   0.273167 0.186473 0.375242 -0.511405
C57   C     C_2   0.630242 0.070798 0.739720 0.874705
O33   O     O_2   0.647375 0.996455 0.829175 -0.512327
O34   O     O_R   0.683441 0.179951 0.752066 -0.742988
H21   H     H_    0.685390 0.224207 0.663331 0.320391
C58   C     C_2   0.389690 0.928363 0.259811 0.843498
O35   O     O_2   0.347566 0.830326 0.248183 -0.601741
O36   O     O_R   0.372681 0.014056 0.157483 -0.649814
H22   H     H_    0.331266 0.982261 0.073361 0.372305
C59   C     C_2   0.385042 0.959094 0.734371 0.943864
O37   O     O_2   0.434850 0.915115 0.834288 -0.560015
O38   O     O_R   0.275399 0.008706 0.742612 -0.730567
H23   H     H_    0.249320 0.013074 0.838951 0.367159
C60   C     C_2   0.637945 0.033745 0.271296 0.916680
O39   O     O_2   0.738427 0.003515 0.278287 -0.458080
O40   O     O_R   0.586304 0.068355 0.147155 -0.720829
H24   H     H_    0.639211 0.056117 0.070357 0.404160

loop_
_geom_bond_atom_site_label_1
_geom_bond_atom_site_label_2
_ccdc_geom_bond_type
C22   O8    A    
O12   H2    S    
C4    C36   A    
C53   H17   S    
C27   C29   A    
C19   C43   S    
C51   H15   S    
C37   O10   S    
C54   O30   D    
O38   H23   S    
C38   O11   D    
C15   C19   S    
C14   C60   S    
C44   O20   D    
C19   N1    S    
C24   C26   A    
Cu2   O2    S    
C58   O36   S    
C20   N2    S    
C48   O24   D    
C39   O14   S    
C33   C37   S    
O34   H21   S    
C15   C41   S    
C5    C36   A    
C17   C20   S    
C6    C35   A    
C15   C17   S    
C18   C19   S    
C17   N1    S    
C40   O16   S    
C18   N2    S    
C56   H20   S    
C1    O3    A    
C47   H11   S    
C2    O4    A    
C42   H6    S    
C41   O17   D    
C55   H19   S    
C31   C33   A    
C16   C42   S    
C49   O25   D    
C16   C20   S    
C45   O21   D    
O14   H3    S    
C53   O29   D    
C29   C31   A    
C55   O31   D    
C1    C12   S    
C2    C11   S    
C29   C49   S    
C54   H18   S    
C24   C46   S    
C8    C58   S    
C21   O5    A    
C38   O12   S    
C7    C12   S    
C59   O38   S    
C44   H8    S    
O10   H1    S    
C30   C32   A    
C46   O22   D    
C43   O19   D    
C48   H12   S    
C23   C33   A    
C45   H9    S    
C24   C34   A    
C32   C34   A    
C9    C14   S    
Cu1   Cu2   S    
C5    C28   S    
C13   C59   S    
C6    C27   S    
C3    C35   A    
C26   C48   S    
C50   O26   D    
Cu2   O7    S    
C20   C44   S    
C16   C18   S    
C23   C45   S    
Cu1   O8    S    
C9    C11   S    
C59   O37   D    
C10   C12   S    
C4    C6    A    
C22   O6    A    
C12   C14   S    
C37   O9    D    
C52   O28   D    
C60   O39   D    
C9    C55   S    
C41   H5    S    
Cu1   O5    S    
O40   H24   S    
C3    C5    A    
C60   O40   S    
C57   O33   D    
C1    O1    A    
C7    C9    S    
C8    C14   S    
C47   O23   D    
C46   H10   S    
C35   C53   S    
C10   C13   S    
O36   H22   S    
C51   O27   D    
C18   C40   S    
C25   C27   A    
C26   C28   A    
C36   C54   S    
C7    C57   S    
Cu1   O4    S    
C28   C30   A    
Cu2   O3    S    
Cu1   N1    S    
C58   O35   D    
Cu2   N2    S    
C4    C21   S    
C11   C13   S    
C39   O13   D    
C2    O2    A    
C8    C11   S    
C31   C51   S    
C50   H14   S    
C32   C52   S    
C10   C56   S    
C23   C25   A    
Cu1   O1    S    
C40   O15   D    
C56   O32   D    
C15   N2    S    
Cu2   O6    S    
C16   N1    S    
O16   H4    S    
C7    C13   S    
C43   H7    S    
C34   C38   S    
C8    C10   S    
C52   H16   S    
C25   C47   S    
C42   O18   D    
C3    C22   S    
C57   O34   S    
C49   H13   S    
C17   C39   S    
C21   O7    A    
C30   C50   S    
