data_mof_unit_67097.cif
_audit_creation_date              2012-12-11T17:44:21-0500
_audit_creation_method            fapswitch 2.2
_symmetry_space_group_name_H-M    P1
_symmetry_Int_Tables_number       1
_space_group_crystal_system       triclinic
_cell_length_a                    8.23518
_cell_length_b                    12.834805
_cell_length_c                    14.992749
_cell_angle_alpha                 96.550125
_cell_angle_beta                  96.795512
_cell_angle_gamma                 98.269174
_cell_volume                      1543.27618524

loop_
_atom_site_label
_atom_site_type_symbol
_atom_type_description
_atom_site_fract_x
_atom_site_fract_y
_atom_site_fract_z
_atom_type_partial_charge
Ba1   Ba    Ba6+2 0.843760 0.550230 0.455610 1.666899
Ba2   Ba    Ba6+2 0.346080 0.449860 0.544400 1.658651
C1    C     C_3   0.664371 0.882626 0.296043 -0.291298
C2    C     C_3   0.544020 0.815521 0.219639 0.842323
C3    C     C_3   0.414605 0.281983 0.267199 0.306258
C4    C     C_3   0.369646 0.247294 0.165662 -0.296542
C5    C     C_3   0.152839 0.242956 0.790701 0.371307
C6    C     C_3   0.182508 0.223511 0.889162 -0.301330
C7    C     C_3   0.701836 0.193666 0.764764 0.345341
C8    C     C_3   0.648509 0.076216 0.744624 -0.303018
C9    C     C_R   0.372215 0.549875 0.168376 0.007753
C10   C     C_R   0.113628 0.468323 0.208553 0.054494
C11   C     C_R   0.918944 0.485536 0.771845 -0.300948
C12   C     C_3   0.038149 0.785750 0.215532 0.276499
C13   C     C_R   0.825760 0.434719 0.830584 0.007045
C14   C     C_R   0.897094 0.424693 0.919490 0.073211
C15   C     C_R   0.059240 0.482651 0.954128 0.026385
C16   C     C_R   0.152315 0.534985 0.891408 -0.028638
C17   C     C_R   0.131951 0.493546 0.048755 0.033668
C18   C     C_R   0.300328 0.541606 0.075697 -0.027141
C19   C     C_R   0.388271 0.586268 0.011241 -0.013996
C20   C     C_R   0.313078 0.587975 0.923372 0.035644
C21   C     C_R   0.039715 0.468087 0.119714 -0.096419
C22   C     C_R   0.279137 0.510324 0.232296 -0.294486
C23   C     C_3   0.987995 0.824189 0.126020 0.004150
C24   C     C_R   0.082395 0.533209 0.798395 0.054200
C25   C     C_R   0.777943 0.177813 0.526103 -0.280564
C26   C     C_R   0.427286 0.811634 0.467919 -0.303891
C27   C     C_R   0.388667 0.988550 0.441327 -0.057531
C28   C     C_R   0.326980 0.880912 0.436550 0.018117
C29   C     C_R   0.585400 0.849394 0.514065 0.057838
C30   C     C_R   0.651995 0.960101 0.520748 -0.067721
C31   C     C_R   0.551610 0.029965 0.481822 -0.065983
C32   C     C_R   0.617233 0.139034 0.484233 0.049591
C33   C     C_R   0.878145 0.111256 0.563412 -0.003690
C34   C     C_3   0.249770 0.778227 0.654566 0.322929
C35   C     C_R   0.814945 0.003420 0.562813 -0.075550
C36   C     C_3   0.328025 0.892320 0.683407 -0.004618
C37   C     C_3   0.939895 0.216299 0.342668 0.268748
C38   C     C_3   0.982072 0.105688 0.324262 -0.320032
C39   C     C_3   0.737601 0.707807 0.738936 0.272710
C40   C     C_3   0.663245 0.740251 0.823760 0.064045
H1    H     H_    0.432750 0.779349 0.247211 -0.210712
H2    H     H_    0.462752 0.892366 0.698286 0.050202
H3    H     H_    0.301795 0.940662 0.628288 0.045373
H4    H     H_    0.808676 0.210352 0.353035 0.011467
H5    H     H_    0.021176 0.257021 0.404848 0.054896
H6    H     H_    0.911801 0.065913 0.258679 0.168718
H7    H     H_    0.951152 0.059555 0.379766 0.085516
H8    H     H_    0.115925 0.110411 0.318744 0.139841
H9    H     H_    0.867678 0.696982 0.758381 0.029602
H10   H     H_    0.665663 0.631208 0.704482 0.019015
H11   H     H_    0.690082 0.835624 0.351836 0.090693
H12   H     H_    0.665891 0.677539 0.868407 0.047595
H13   H     H_    0.533062 0.749557 0.804295 0.104988
H14   H     H_    0.615221 0.954519 0.321133 0.083837
H15   H     H_    0.302398 0.302484 0.294879 0.003583
H16   H     H_    0.512850 0.352982 0.278218 0.048490
H17   H     H_    0.268172 0.178083 0.152699 0.164481
H18   H     H_    0.327597 0.313028 0.131780 0.042835
H19   H     H_    0.479308 0.224719 0.136281 0.164970
H20   H     H_    0.782076 0.907417 0.271048 0.123812
H21   H     H_    0.094003 0.872508 0.103533 0.194313
H22   H     H_    0.268485 0.285022 0.773711 0.135925
H23   H     H_    0.055018 0.293442 0.782964 -0.077472
H24   H     H_    0.208952 0.300408 0.934218 0.073200
H25   H     H_    0.071752 0.174571 0.907249 0.160266
H26   H     H_    0.291406 0.182500 0.900463 0.180581
H27   H     H_    0.812597 0.208058 0.816314 0.041282
H28   H     H_    0.737484 0.222255 0.701509 -0.042230
H29   H     H_    0.756469 0.036237 0.733602 0.113656
H30   H     H_    0.556685 0.060647 0.682616 0.099183
H31   H     H_    0.932775 0.728974 0.229870 0.111864
H32   H     H_    0.594097 0.046921 0.802889 0.191204
H33   H     H_    0.335857 0.513140 0.301626 0.067911
H34   H     H_    0.515118 0.624778 0.028761 0.148318
H35   H     H_    0.908349 0.457040 0.110169 0.168590
H36   H     H_    0.862597 0.487182 0.703138 0.055958
H37   H     H_    0.384215 0.631346 0.880379 0.094091
H38   H     H_    0.307767 0.038517 0.412639 0.108945
H39   H     H_    0.893661 0.955485 0.596610 0.133396
H40   H     H_    0.827014 0.261143 0.528418 0.050785
H41   H     H_    0.147662 0.745115 0.210365 0.029521
H42   H     H_    0.377587 0.727857 0.460686 0.073076
H43   H     H_    0.888285 0.872833 0.131853 0.169234
H44   H     H_    0.329135 0.738058 0.611652 -0.065355
H45   H     H_    0.126109 0.775350 0.616720 0.066853
O1    O     O_2   0.827930 0.435360 0.277760 -0.454776
O2    O     O_3   0.737039 0.791882 0.687573 -0.622860
O3    O     O_3   0.074542 0.873519 0.282821 -0.616246
O4    O     O_2   0.361790 0.564680 0.722290 -0.503004
O5    O     O_3   0.089410 0.561080 0.608830 -0.498631
O6    O     O_3   0.564100 0.365890 0.666740 -0.464535
O7    O     O_3   0.236733 0.732402 0.733298 -0.607422
O8    O     O_3   0.601940 0.368260 0.453780 -0.482710
O9    O     O_3   0.133140 0.308990 0.620990 -0.498824
O10   O     O_2   0.226214 0.120766 0.579998 -0.479420
O11   O     O_3   0.106976 0.146135 0.733572 -0.585311
O12   O     O_3   0.100310 0.439010 0.391180 -0.506403
O13   O     O_3   0.587770 0.631830 0.546230 -0.491176
O14   O     O_2   0.332600 0.233710 0.456170 -0.486413
O15   O     O_3   0.471534 0.198275 0.307511 -0.607769
O16   O     O_2   0.479351 0.428033 0.828174 -0.508361
O17   O     O_3   0.572560 0.240818 0.798018 -0.557570
O18   O     O_3   0.625610 0.634200 0.333270 -0.499423
O19   O     O_2   0.711142 0.554326 0.176356 -0.470050
O20   O     O_3   0.960196 0.265595 0.265514 -0.608507
O21   O     O_3   0.627054 0.740699 0.175527 -0.621656
O22   O     O_2   0.857120 0.766320 0.543890 -0.469182
O23   O     O_3   0.056570 0.691100 0.379020 -0.499163
O24   O     O_2   0.994594 0.882359 0.444092 -0.502807
P1    P     P_3+3 0.998770 0.403620 0.291990 1.000522
P2    P     P_3+3 0.687370 0.751000 0.571300 0.974754
P3    P     P_3+3 0.113050 0.829539 0.387968 0.931482
P4    P     P_3+3 0.190950 0.596470 0.708020 0.982475
P5    P     P_3+3 0.087011 0.171231 0.620695 0.965903
P6    P     P_3+3 0.583051 0.617420 0.214168 0.944429
P7    P     P_3+3 0.508495 0.233611 0.425248 0.950639
P8    P     P_3+3 0.611232 0.374120 0.783372 0.980665
I1    I     I_    0.243589 0.955815 0.805864 -0.290884
I2    I     I_    0.785107 0.892662 0.892211 -0.306105
S1    S     S_3+6 0.476817 0.899507 0.140132 -0.069191
O25   O     O_2   0.376391 0.832535 0.057838 -0.282641
O26   O     O_2   0.372830 0.972376 0.183741 -0.332425
O27   O     O_3   0.641270 0.972950 0.108903 -0.509405
H46   H     H_    0.593749 0.020948 0.069389 0.389644
I3    I     I_    0.766091 0.303652 0.987699 -0.475276
I4    I     I_    0.897938 0.690947 0.028602 -0.449078

loop_
_geom_bond_atom_site_label_1
_geom_bond_atom_site_label_2
_ccdc_geom_bond_type
C32   P7    S    
C39   O2    S    
C6    H24   S    
C5    O11   S    
C26   H42   S    
C1    H11   S    
C39   C40   S    
C17   C18   A    
C16   C24   A    
C35   H39   S    
Ba1   O12   S    
C1    H14   S    
C5    C6    S    
C37   O20   S    
C2    O21   S    
C10   C21   A    
C3    H16   S    
O14   P7    D    
C4    H19   S    
Ba2   O8    S    
C33   C35   A    
C23   I4    S    
C7    H27   S    
C20   H37   S    
Ba1   P1    S    
C23   H21   S    
C3    C4    S    
C40   H13   S    
C13   C14   A    
C27   C31   A    
C9    C22   A    
Ba1   Ba2   S    
O20   P1    S    
C24   P4    S    
C12   O3    S    
C36   H3    S    
Ba1   O22   S    
C11   H36   S    
O4    P4    D    
C14   C15   A    
C7    C8    S    
O23   P3    S    
C39   H10   S    
O15   P7    S    
O22   P2    D    
O17   P8    S    
C36   I1    S    
C8    H29   S    
Ba1   O1    S    
Ba2   O13   S    
C34   H45   S    
C19   C20   A    
O18   P6    S    
Ba1   P2    S    
C12   H41   S    
C4    H17   S    
Ba1   O13   S    
O5    P4    S    
C15   C16   A    
C26   C29   A    
C25   C32   A    
O2    P2    S    
C9    C18   A    
C12   H31   S    
C4    H18   S    
C7    H28   S    
C37   C38   S    
Ba2   O14   S    
C34   H44   S    
C17   C21   A    
C36   H2    S    
C27   C28   A    
Ba1   O23   S    
C5    H23   S    
Ba2   P4    S    
O11   P5    S    
C29   C30   A    
C19   H34   S    
Ba1   O8    S    
C23   H43   S    
C31   C32   A    
C2    S1    S    
C33   P5    S    
C30   C35   A    
C21   H35   S    
O10   P5    D    
Ba2   O5    S    
C37   H4    S    
Ba2   O12   S    
C6    H26   S    
Ba1   O5    S    
C11   C13   A    
O19   P6    D    
O27   H46   S    
C11   C24   A    
S1    O26   D    
C1    C2    S    
C9    P6    S    
C10   P1    S    
C37   H5    S    
C28   P3    S    
C1    H20   S    
C38   H6    S    
C3    O15   S    
O8    P7    S    
C16   C20   A    
O21   P6    S    
C25   H40   S    
Ba2   O6    S    
O16   P8    D    
O13   P2    S    
O7    P4    S    
C22   H33   S    
C2    H1    S    
C39   H9    S    
C10   C22   A    
C3    H15   S    
C25   C33   A    
C30   C31   A    
S1    O27   S    
Ba2   O9    S    
C40   H12   S    
C34   C36   S    
C8    H32   S    
C27   H38   S    
C7    O17   S    
C38   H8    S    
O12   P1    S    
C26   C28   A    
C15   C17   A    
C13   P8    S    
O24   P3    D    
O3    P3    S    
C12   C23   S    
Ba2   O4    S    
C14   I3    S    
C5    H22   S    
O1    P1    D    
C34   O7    S    
C18   C19   A    
C6    H25   S    
O9    P5    S    
O6    P8    S    
S1    O25   D    
C29   P2    S    
C38   H7    S    
C40   I2    S    
Ba1   O18   S    
C8    H30   S    
