data_mof_unit_58817.cif
_audit_creation_date              2012-12-10T19:16:24-0500
_audit_creation_method            fapswitch 2.2
_symmetry_space_group_name_H-M    P1
_symmetry_Int_Tables_number       1
_space_group_crystal_system       triclinic
_cell_length_a                    10.757811
_cell_length_b                    9.868794
_cell_length_c                    27.537418
_cell_angle_alpha                 91.172429
_cell_angle_beta                  91.825386
_cell_angle_gamma                 90.54268
_cell_volume                      2921.30937678

loop_
_atom_site_label
_atom_site_type_symbol
_atom_type_description
_atom_site_fract_x
_atom_site_fract_y
_atom_site_fract_z
_atom_type_partial_charge
C1    C     C_R   0.258577 0.498986 0.498005 0.902742
C2    C     C_R   0.407337 0.618390 0.282986 -0.192474
C3    C     C_R   0.473272 0.533018 0.252557 0.208647
C4    C     C_R   0.450898 0.581071 0.101782 -0.119128
C5    C     C_R   0.350278 0.521396 0.125429 -0.167075
C6    C     C_R   0.243852 0.479225 0.097781 0.509129
C7    C     C_R   0.552216 0.636264 0.129278 -0.026607
C8    C     C_R   0.494705 0.504950 0.353037 -0.143366
C9    C     C_R   0.488536 0.502359 0.646810 -0.167681
C10   C     C_R   0.344080 0.548281 0.971764 -0.043674
C11   C     C_R   0.567889 0.600145 0.977345 0.073087
C12   C     C_R   0.502452 0.499763 0.406080 0.916488
C13   C     C_R   0.459804 0.561686 0.949397 0.057626
C14   C     C_R   0.234592 0.538267 0.941899 0.031396
C15   C     C_R   0.242510 0.505823 0.892299 0.474811
C16   C     C_R   0.359602 0.505556 0.870426 -0.199668
C17   C     C_R   0.467893 0.536033 0.898998 -0.122724
C18   C     C_R   0.584897 0.539899 0.877326 0.001989
C19   C     C_R   0.591341 0.519678 0.827121 0.485632
C20   C     C_R   0.371543 0.484215 0.820137 0.636162
C21   C     C_R   0.433000 0.608920 0.723279 0.373974
C22   C     C_R   0.421049 0.603732 0.671513 0.342886
C23   C     C_R   0.742853 0.500410 0.500438 0.907581
C24   C     C_R   0.549225 0.399378 0.672347 -0.267075
C25   C     C_R   0.547245 0.396852 0.722481 -0.171981
C26   C     C_R   0.489771 0.500788 0.747897 0.176493
C27   C     C_R   0.344148 0.541048 0.023000 0.030610
C28   C     C_R   0.450296 0.586092 0.050621 0.060020
C29   C     C_R   0.557521 0.632550 0.027271 0.003593
C30   C     C_R   0.244913 0.481981 0.047255 -0.270301
C31   C     C_R   0.647253 0.704320 0.105948 -0.177698
C32   C     C_R   0.683964 0.592819 0.955494 -0.160517
C33   C     C_R   0.692423 0.565364 0.906093 -0.125295
C34   C     C_R   0.495990 0.501044 0.593815 1.003898
C35   C     C_R   0.649929 0.705240 0.055430 0.124498
C36   C     C_3   0.072773 0.633677 0.478165 -0.077649
C37   C     C_3   0.079720 0.479017 0.551094 -0.065999
C38   C     C_3   0.933416 0.642281 0.486723 -0.019094
C39   C     C_3   0.938792 0.452480 0.549757 -0.002830
C40   C     C_3   0.066876 0.379914 0.465183 -0.390155
C41   C     C_3   0.123041 0.496782 0.497882 0.012215
C42   C     C_3   0.880673 0.500298 0.500373 -0.011725
C43   C     C_3   0.924564 0.397559 0.460582 -0.474836
C44   C     C_3   0.373300 0.077808 0.487315 -0.438253
C45   C     C_3   0.376182 0.916385 0.483246 -0.411777
C46   C     C_3   0.584728 0.078020 0.462165 0.352641
C47   C     C_3   0.597190 0.918344 0.467175 0.327680
C48   C     C_3   0.530942 0.084913 0.548426 0.218148
C49   C     C_3   0.521098 0.922303 0.549687 0.256356
C50   C     C_R   0.361059 0.503623 0.175899 0.580171
C51   C     C_R   0.554035 0.625273 0.179765 0.510006
C52   C     C_R   0.551928 0.432861 0.271888 0.469405
C53   C     C_R   0.569521 0.425930 0.322616 0.023898
C54   C     C_R   0.415385 0.602056 0.332677 -0.207319
H1    H     H_    0.361939 0.668632 0.355476 0.207371
H2    H     H_    0.719454 0.758482 0.126894 0.202028
H3    H     H_    0.769555 0.601708 0.976793 0.198315
H4    H     H_    0.598536 0.320274 0.653367 0.226531
H5    H     H_    0.783686 0.563944 0.890623 0.206666
H6    H     H_    0.591559 0.314800 0.741738 0.173961
H7    H     H_    0.120920 0.719952 0.497438 0.184046
H8    H     H_    0.100761 0.574083 0.571769 0.188147
H9    H     H_    0.348068 0.696134 0.267900 0.170361
H10   H     H_    0.885246 0.673572 0.452839 0.165166
H11   H     H_    0.926094 0.341875 0.550835 0.163789
H12   H     H_    0.107524 0.378135 0.428570 0.211883
H13   H     H_    0.087854 0.280363 0.481689 0.204336
H14   H     H_    0.900266 0.436837 0.424073 0.238209
H15   H     H_    0.879027 0.296526 0.463387 0.203514
H16   H     H_    0.327824 0.123281 0.455446 0.188588
H17   H     H_    0.346611 0.874666 0.447182 0.214006
H18   H     H_    0.307281 0.106872 0.515973 0.190331
H19   H     H_    0.302763 0.876166 0.506714 0.187097
H20   H     H_    0.453504 0.116742 0.571955 0.134708
H21   H     H_    0.434481 0.898233 0.569406 0.083010
H22   H     H_    0.678650 0.117194 0.471377 0.052776
H23   H     H_    0.686284 0.897292 0.486382 0.076652
H24   H     H_    0.167801 0.433768 0.027487 0.193614
N1    N     N_R   0.463314 0.552510 0.201427 -0.333751
N2    N     N_R   0.485114 0.496656 0.799678 -0.333132
N3    N     N_3   0.499750 0.138610 0.498940 -0.126494
N4    N     N_3   0.499750 0.861390 0.498940 -0.103980
O1    O     O_R   0.314910 0.616040 0.499990 -0.635603
O2    O     O_R   0.314910 0.383960 0.499990 -0.621336
O3    O     O_R   0.500140 0.616020 0.428740 -0.562936
O4    O     O_R   0.500140 0.383980 0.428740 -0.563229
O5    O     O_R   0.685320 0.616040 0.499970 -0.560834
O6    O     O_R   0.685320 0.383960 0.499970 -0.621858
O7    O     O_R   0.500090 0.616050 0.571230 -0.541333
O8    O     O_R   0.500090 0.383950 0.571230 -0.579367
O9    O     O_2   0.271989 0.436276 0.199313 -0.493396
O10   O     O_2   0.270762 0.454347 0.791333 -0.498623
O11   O     O_2   0.645917 0.685784 0.207094 -0.597412
O12   O     O_2   0.702033 0.527687 0.805564 -0.571633
Zn1   Zn    Zn3+2 0.500150 0.654960 0.499980 1.039583
Zn2   Zn    Zn3+2 0.500150 0.345040 0.499980 1.002746
O13   O     O_3   0.585215 0.324559 0.242490 -0.606509
C55   C     C_3   0.703684 0.344261 0.223113 0.097459
H25   H     H_    0.774902 0.295133 0.246632 0.196638
H26   H     H_    0.730761 0.452431 0.219490 0.171135
C56   C     C_3   0.704594 0.274662 0.173279 -0.768555
H27   H     H_    0.646789 0.332193 0.146837 0.244487
H28   H     H_    0.801024 0.268236 0.160472 0.221919
H29   H     H_    0.666765 0.169863 0.175315 0.283380
I1    I     I_    0.776656 0.849129 0.027217 -0.349520
I2    I     I_    0.110949 0.668885 0.402680 -0.491589
I3    I     I_    0.171430 0.322887 0.593229 -0.409521
I4    I     I_    0.909927 0.802463 0.539169 -0.484588
I5    I     I_    0.856356 0.516339 0.616259 -0.373583
O14   O     O_3   0.567151 0.128873 0.413714 -0.564134
C57   C     C_3   0.464510 0.080142 0.384184 0.178929
H30   H     H_    0.388377 0.154990 0.385029 0.143469
H31   H     H_    0.430031 0.980782 0.394066 0.163655
C58   C     C_3   0.497406 0.065822 0.330794 -0.728711
H32   H     H_    0.589570 0.019666 0.326210 0.267701
H33   H     H_    0.426771 0.000645 0.311124 0.202419
H34   H     H_    0.495788 0.165634 0.313368 0.279040
O15   O     O_3   0.598587 0.849597 0.421497 -0.571960
C59   C     C_3   0.715568 0.865341 0.399510 0.081128
H35   H     H_    0.795499 0.851496 0.425148 0.137051
H36   H     H_    0.726263 0.968231 0.384861 0.193642
C60   C     C_3   0.726402 0.761823 0.358262 -0.740874
H37   H     H_    0.814564 0.778759 0.339282 0.236728
H38   H     H_    0.727016 0.658061 0.373039 0.250266
H39   H     H_    0.647174 0.771240 0.331765 0.266794
O16   O     O_3   0.631598 0.154352 0.573679 -0.601012
C61   C     C_3   0.752476 0.120039 0.560229 0.137191
H40   H     H_    0.785415 0.192008 0.533643 0.149925
H41   H     H_    0.758068 0.020200 0.543740 0.175082
C62   C     C_3   0.841578 0.127992 0.604400 -0.781430
H42   H     H_    0.825929 0.043549 0.629126 0.254656
H43   H     H_    0.938938 0.121824 0.592469 0.243707
H44   H     H_    0.828941 0.223715 0.625117 0.278832
O17   O     O_3   0.621050 0.861048 0.575929 -0.542527
C63   C     C_3   0.608251 0.884640 0.626873 0.103041
H45   H     H_    0.516162 0.852439 0.639222 0.155814
H46   H     H_    0.618372 0.993361 0.636930 0.168403
C64   C     C_3   0.704702 0.807142 0.656302 -0.756678
H47   H     H_    0.797555 0.815589 0.640370 0.300357
H48   H     H_    0.711194 0.848412 0.694108 0.186170
H49   H     H_    0.676228 0.699433 0.657783 0.263355
O18   O     O_3   0.135830 0.439014 0.119437 -0.561125
C65   C     C_3   0.064302 0.556368 0.127724 0.146353
H50   H     H_    0.044568 0.611040 0.093306 0.157621
H51   H     H_    0.113197 0.626577 0.154343 0.151908
C66   C     C_3   0.940636 0.516223 0.148486 -0.774533
H52   H     H_    0.956425 0.454563 0.181358 0.271723
H53   H     H_    0.888501 0.608412 0.158744 0.224038
H54   H     H_    0.884663 0.457256 0.120711 0.249018
O19   O     O_3   0.347982 0.689762 0.642548 -0.635346
C67   C     C_3   0.263768 0.772498 0.667606 0.153737
H55   H     H_    0.314604 0.857071 0.686755 0.169368
H56   H     H_    0.207256 0.712396 0.692814 0.223017
C68   C     C_3   0.174450 0.838174 0.631548 -0.823345
H57   H     H_    0.107125 0.761608 0.616913 0.279721
H58   H     H_    0.121659 0.919150 0.650151 0.235546
H59   H     H_    0.225595 0.883384 0.601364 0.250163
O20   O     O_3   0.385077 0.713447 0.750952 -0.623614
C69   C     C_3   0.480838 0.808711 0.762719 0.036570
H60   H     H_    0.506302 0.865154 0.729936 0.124732
H61   H     H_    0.565841 0.760331 0.778233 0.180915
C70   C     C_3   0.434667 0.909600 0.800331 -0.764216
H62   H     H_    0.410361 0.855870 0.833856 0.267011
H63   H     H_    0.508511 0.986109 0.809525 0.207307
H64   H     H_    0.351121 0.962215 0.785710 0.254568
O21   O     O_3   0.134068 0.486613 0.864555 -0.532866
C71   C     C_3   0.094553 0.350552 0.869016 0.121055
H65   H     H_    0.068703 0.329812 0.907019 0.141742
H66   H     H_    0.168591 0.278784 0.858086 0.141241
C72   C     C_3   0.980810 0.324276 0.835840 -0.668457
H67   H     H_    0.003657 0.343837 0.797545 0.283859
H68   H     H_    0.949753 0.217188 0.838689 0.189521
H69   H     H_    0.903978 0.391555 0.846619 0.266846
I6    I     I_    0.059522 0.615654 0.964302 -0.368184
I7    I     I_    0.725918 0.320042 0.350885 -0.416479

loop_
_geom_bond_atom_site_label_1
_geom_bond_atom_site_label_2
_ccdc_geom_bond_type
C10   C27   A    
C65   C66   S    
C21   C26   A    
O6    Zn2   S    
C56   H27   S    
C63   C64   S    
C11   C13   A    
C21   O20   S    
C54   H1    S    
C57   H30   S    
C49   O17   S    
C3    N1    S    
C50   N1    A    
C46   H22   S    
C58   H32   S    
C63   H45   S    
C71   H66   S    
C2    H9    S    
C1    O2    A    
C20   O10   S    
O16   C61   S    
C23   C42   S    
C12   O3    A    
C28   C29   A    
C14   I6    S    
C37   I3    S    
C2    C3    A    
C5    C6    A    
C3    C52   A    
C9    C22   A    
C47   N4    S    
C45   H17   S    
C72   H67   S    
C65   H50   S    
C66   H54   S    
C52   O13   S    
C48   N3    S    
C45   H19   S    
C18   C19   A    
O2    Zn2   S    
C67   C68   S    
O15   C59   S    
O14   C57   S    
C40   C43   S    
C45   N4    S    
C43   H14   S    
C40   H13   S    
O5    Zn1   S    
C67   H55   S    
C69   H61   S    
C15   O21   S    
C44   H16   S    
C25   H6    S    
C31   H2    S    
C39   C42   S    
C38   H10   S    
C8    C12   S    
C33   H5    S    
C23   O5    A    
C21   C22   A    
C27   C30   A    
C37   C41   S    
C39   H11   S    
C36   C41   S    
C32   H3    S    
C4    C7    A    
C4    C28   A    
O13   C55   S    
C71   C72   S    
C66   H53   S    
C59   H36   S    
C7    C31   A    
C20   N2    A    
C36   I2    S    
C24   H4    S    
C48   H20   S    
C24   C25   A    
C68   H59   S    
C44   N3    S    
C10   C14   A    
C8    C54   A    
C71   H65   S    
N3    Zn2   S    
C16   C17   A    
C25   C26   A    
C10   C13   A    
C26   N2    S    
C47   O15   S    
C49   N4    S    
O7    Zn1   S    
C62   H43   S    
C34   O8    A    
C35   I1    S    
C46   N3    S    
C69   H60   S    
C14   C15   A    
C16   C20   A    
O1    Zn1   S    
C61   H41   S    
C49   H21   S    
C17   C18   A    
C69   C70   S    
C57   H31   S    
C68   H57   S    
C19   O12   S    
O4    Zn2   S    
C51   O11   S    
C1    C41   S    
C48   C49   S    
C6    C30   A    
C11   C32   A    
C56   H29   S    
C55   H26   S    
C23   O6    A    
C46   O14   S    
C2    C54   A    
O20   C69   S    
C63   H46   S    
C31   C35   A    
C5    C50   A    
C62   H44   S    
C6    O18   S    
C42   C43   S    
C47   H23   S    
C60   H38   S    
C61   H40   S    
C52   C53   A    
C53   I7    S    
C70   H62   S    
C59   C60   S    
C65   H51   S    
C46   C47   S    
C40   C41   S    
N4    Zn1   S    
O18   C65   S    
C70   H64   S    
C68   H58   S    
C44   C45   S    
C4    C5    A    
C64   H49   S    
C8    C53   A    
C58   H33   S    
C59   H35   S    
C9    C24   A    
O8    Zn2   S    
O17   C63   S    
C64   H48   S    
C12   O4    A    
C1    O1    A    
C55   C56   S    
C29   C35   A    
C13   C17   A    
C32   C33   A    
C60   H39   S    
C36   C38   S    
C62   H42   S    
C61   C62   S    
C7    C51   A    
C37   C39   S    
C70   H63   S    
O3    Zn1   S    
O21   C71   S    
C72   H68   S    
C9    C34   S    
C44   H18   S    
C57   C58   S    
C66   H52   S    
C67   H56   S    
C36   H7    S    
C38   I4    S    
C19   N2    A    
C18   C33   A    
C51   N1    A    
C34   O7    A    
C58   H34   S    
C64   H47   S    
C48   O16   S    
C30   H24   S    
C38   C42   S    
C50   O9    S    
C39   I5    S    
C22   O19   S    
C11   C29   A    
C56   H28   S    
C55   H25   S    
C27   C28   A    
C37   H8    S    
O19   C67   S    
C40   H12   S    
C60   H37   S    
C43   H15   S    
C15   C16   A    
C72   H69   S    
