data_mof_unit_13984.cif
_audit_creation_date              2012-12-10T17:06:15-0500
_audit_creation_method            fapswitch 2.2
_symmetry_space_group_name_H-M    P1
_symmetry_Int_Tables_number       1
_space_group_crystal_system       triclinic
_cell_length_a                    10.619233
_cell_length_b                    10.964238
_cell_length_c                    9.835849
_cell_angle_alpha                 111.674991
_cell_angle_beta                  98.394421
_cell_angle_gamma                 91.070067
_cell_volume                      1049.54348983

loop_
_atom_site_label
_atom_site_type_symbol
_atom_type_description
_atom_site_fract_x
_atom_site_fract_y
_atom_site_fract_z
_atom_type_partial_charge
C1    C     C_R   0.487736 0.252760 0.439439 0.809819
C2    C     C_3   0.122488 0.500184 0.500955 0.024356
C3    C     C_3   0.977164 0.521194 0.637219 -0.131280
C4    C     C_3   0.022826 0.479048 0.362814 -0.128966
C5    C     C_2   0.472986 0.110317 0.403153 -0.065485
C6    C     C_2   0.516235 0.890565 0.597284 -0.071309
C7    C     C_2   0.455893 0.069207 0.512640 -0.206331
C8    C     C_2   0.453030 0.930650 0.494224 -0.218315
C9    C     C_2   0.510446 0.511440 0.081807 -0.075984
C10   C     C_2   0.489273 0.488860 0.918256 -0.081361
C11   C     C_3   0.591654 0.991204 0.741886 -0.408375
C12   C     C_R   0.511737 0.747513 0.560932 0.828546
C13   C     C_3   0.681002 0.935697 0.838894 -0.326476
C14   C     C_3   0.765762 0.045855 0.964946 -0.898948
C15   C     C_3   0.479976 0.015932 0.246253 -0.385352
C16   C     C_3   0.346041 0.972853 0.153728 -0.349829
C17   C     C_3   0.351907 0.876976 0.996514 -0.829307
C18   C     C_R   0.259280 0.500045 0.500697 0.784664
C19   C     C_R   0.740722 0.500101 0.499340 0.780187
C20   C     C_3   0.045285 0.403935 0.542783 -0.177481
C21   C     C_3   0.954694 0.596293 0.457246 -0.179103
C22   C     C_3   0.943385 0.382836 0.404915 -0.170003
C23   C     C_3   0.056599 0.617390 0.595095 -0.170623
C24   C     C_3   0.877504 0.500045 0.499080 0.023982
Cu1   Cu    Cu3+1 0.522260 0.521810 0.644920 0.914999
Cu2   Cu    Cu3+1 0.477740 0.478190 0.355080 0.921625
H1    H     H_    0.085625 0.325560 0.578029 0.121323
H2    H     H_    0.043978 0.461726 0.250177 0.136156
H3    H     H_    0.402082 0.859246 0.390516 0.176806
H4    H     H_    0.451668 0.140578 0.623005 0.160779
H5    H     H_    0.828303 0.098603 0.919813 0.256983
H6    H     H_    0.706253 0.116993 0.035391 0.258554
H7    H     H_    0.827056 0.003373 0.035019 0.238776
H8    H     H_    0.624235 0.883539 0.890055 0.238945
H9    H     H_    0.743065 0.866299 0.770431 0.218623
H10   H     H_    0.652100 0.058524 0.712206 0.219906
H11   H     H_    0.523114 0.050866 0.809350 0.193528
H12   H     H_    0.914355 0.674689 0.422039 0.121252
H13   H     H_    0.403810 0.925734 0.937894 0.252247
H14   H     H_    0.400678 0.788942 0.999190 0.261362
H15   H     H_    0.253560 0.844461 0.933993 0.233142
H16   H     H_    0.286938 0.924437 0.206648 0.215621
H17   H     H_    0.298591 0.060673 0.147645 0.222054
H18   H     H_    0.537257 0.064732 0.191875 0.200144
H19   H     H_    0.530973 0.928779 0.248040 0.198688
H20   H     H_    0.415622 0.414558 0.844233 0.156329
H21   H     H_    0.583960 0.585900 0.155846 0.157849
H22   H     H_    0.624118 0.625444 0.935812 0.181842
H23   H     H_    0.375853 0.374604 0.064177 0.185194
H24   H     H_    0.893857 0.287143 0.326907 0.128060
H25   H     H_    0.106084 0.713129 0.672913 0.124304
H26   H     H_    0.956009 0.538558 0.749865 0.136372
N1    N     N_2   0.444270 0.445410 0.137360 -0.283812
N2    N     N_2   0.555730 0.554590 0.862640 -0.288620
O1    O     O_R   0.511880 0.332340 0.577400 -0.582402
O2    O     O_R   0.488120 0.667660 0.422600 -0.586036
O3    O     O_R   0.474280 0.295500 0.332650 -0.573489
O4    O     O_R   0.525720 0.704500 0.667350 -0.579880
O5    O     O_R   0.335640 0.518390 0.622350 -0.575984
O6    O     O_R   0.664360 0.481610 0.377650 -0.577074
O7    O     O_R   0.298050 0.481550 0.377590 -0.580669
O8    O     O_R   0.701950 0.518450 0.622410 -0.580523

loop_
_geom_bond_atom_site_label_1
_geom_bond_atom_site_label_2
_ccdc_geom_bond_type
C10   H20   S    
C2    C4    S    
C3    H26   S    
H23   N1    S    
C18   O7    A    
C9    H21   S    
C20   H1    S    
C1    O3    A    
C19   O6    A    
C2    C18   S    
C4    C22   S    
C9    C10   S    
C23   H25   S    
C6    C11   S    
C14   H5    S    
C22   H24   S    
C12   O4    A    
C14   H7    S    
C19   C24   S    
C1    O1    A    
C7    C8    S    
C7    H4    S    
C3    C20   S    
C13   C14   S    
H22   N2    S    
C4    C21   S    
C11   C13   S    
C16   H17   S    
C3    C24   S    
C12   O2    A    
C1    C5    S    
C8    H3    S    
C11   H10   S    
C4    H2    S    
Cu2   O7    S    
C20   C22   S    
C15   H18   S    
C13   H9    S    
C17   H15   S    
Cu1   O8    S    
C21   C23   S    
C6    C12   S    
C10   N2    D    
Cu2   O3    S    
C22   C24   S    
C5    C15   S    
C9    N1    D    
Cu1   O4    S    
C15   H19   S    
C19   O8    A    
C2    C20   S    
C15   C16   S    
Cu2   N1    S    
C16   H16   S    
C18   O5    A    
C13   H8    S    
Cu1   N2    S    
C5    C7    D    
C17   H13   S    
C21   C24   S    
C2    C23   S    
C11   H11   S    
C3    C23   S    
C6    C8    D    
Cu1   O5    S    
Cu1   Cu2   S    
Cu2   O6    S    
C21   H12   S    
Cu1   O1    S    
C14   H6    S    
C16   C17   S    
C17   H14   S    
Cu2   O2    S    
