data_mof_unit_26442.cif
_audit_creation_date              2013-03-05T16:23:19-0500
_audit_creation_method            fapswitch 2.2
_symmetry_space_group_name_H-M    P1
_symmetry_Int_Tables_number       1
_space_group_crystal_system       triclinic
_cell_length_a                    27.723943
_cell_length_b                    10.495196
_cell_length_c                    9.823604
_cell_angle_alpha                 90.934938
_cell_angle_beta                  88.873463
_cell_angle_gamma                 90.232068
_cell_volume                      2857.40369618

loop_
_atom_site_label
_atom_site_type_symbol
_atom_site_description
_atom_site_fract_x
_atom_site_fract_y
_atom_site_fract_z
_atom_type_partial_charge
O1    O     O_R   0.500000 0.313960 0.616610 -0.603877
O2    O     O_R   0.500000 0.686040 0.383390 -0.604156
O3    O     O_R   0.500020 0.313950 0.383350 -0.586262
O4    O     O_R   0.499980 0.686050 0.616650 -0.586285
C1    C     C_R   0.500772 0.257950 0.499308 0.942249
C2    C     C_R   0.499238 0.742053 0.500693 0.941605
O5    O     O_R   0.428750 0.500030 0.616610 -0.599322
O6    O     O_R   0.571250 0.499970 0.383390 -0.598826
O7    O     O_R   0.428770 0.500020 0.383360 -0.619679
O8    O     O_R   0.571230 0.499980 0.616640 -0.620207
C3    C     C_R   0.406246 0.500573 0.501091 0.898020
C4    C     C_R   0.593749 0.499805 0.498944 0.898084
Zn1   Zn    Zn3+2 0.499990 0.500010 0.655740 1.019761
Zn2   Zn    Zn3+2 0.500010 0.499990 0.344260 1.020115
C5    C     C_R   0.177578 0.412072 0.556860 0.508667
C6    C     C_R   0.821936 0.606266 0.467835 0.509284
O9    O     O_2   0.202169 0.310359 0.600992 -0.547909
O10   O     O_2   0.796856 0.713140 0.442634 -0.545746
N1    N     N_R   0.201922 0.515856 0.510702 -0.350241
N2    N     N_R   0.798097 0.495543 0.492661 -0.350727
C7    C     C_R   0.178948 0.621601 0.466216 0.500325
C8    C     C_R   0.821490 0.384650 0.518086 0.500061
C9    C     C_R   0.278005 0.483951 0.386078 -0.090245
C10   C     C_R   0.721596 0.525641 0.614920 -0.099392
C11   C     C_R   0.328094 0.479482 0.383665 -0.189505
C12   C     C_R   0.671507 0.526860 0.616661 -0.185841
C13   C     C_R   0.328420 0.533804 0.625039 -0.179235
C14   C     C_R   0.672000 0.468835 0.376138 -0.181061
C15   C     C_R   0.278377 0.538075 0.627209 -0.095364
C16   C     C_R   0.722102 0.467688 0.374687 -0.088693
C17   C     C_R   0.253262 0.513065 0.507847 0.316175
C18   C     C_R   0.746768 0.496217 0.494007 0.319973
C19   C     C_R   0.102021 0.517095 0.510776 -0.068436
C20   C     C_R   0.897966 0.497475 0.496872 -0.068303
C21   C     C_R   0.127388 0.410089 0.556829 -0.009724
C22   C     C_R   0.872110 0.609344 0.468476 -0.009098
C23   C     C_R   0.102393 0.303276 0.603224 -0.146464
C24   C     C_R   0.896549 0.722988 0.443109 -0.146826
C25   C     C_R   0.127822 0.627502 0.468710 -0.090591
C26   C     C_R   0.872622 0.382014 0.523457 -0.091761
C27   C     C_R   0.353607 0.504002 0.503453 -0.054425
C28   C     C_R   0.646393 0.498819 0.496997 -0.054668
H1    H     H_    0.347327 0.555398 0.717780 0.202183
H2    H     H_    0.653385 0.444771 0.283533 0.201623
H3    H     H_    0.259044 0.561031 0.721231 0.149945
H4    H     H_    0.741808 0.444451 0.281356 0.148431
H5    H     H_    0.121207 0.222005 0.642990 0.194239
H6    H     H_    0.877230 0.810072 0.423110 0.195768
C29   C     C_R   0.975097 0.392617 0.533256 -0.009839
C30   C     C_R   0.025154 0.620428 0.465480 -0.009563
C31   C     C_R   0.973872 0.617728 0.468506 0.070421
C32   C     C_R   0.025925 0.399996 0.546236 0.069237
C33   C     C_R   0.949102 0.502461 0.499546 0.076192
C34   C     C_R   0.050901 0.512782 0.507693 0.076624
C35   C     C_R   0.949726 0.277476 0.551782 -0.200601
C36   C     C_R   0.051371 0.728413 0.422349 -0.200827
C37   C     C_R   0.899197 0.269956 0.552909 0.156979
C38   C     C_R   0.101712 0.737345 0.429718 0.157244
O11   O     O_2   0.794744 0.278717 0.537000 -0.575245
O12   O     O_2   0.206035 0.718370 0.417951 -0.576829
C39   C     C_R   0.052676 0.298640 0.599583 -0.226910
C40   C     C_R   0.946298 0.727495 0.443583 -0.222406
H7    H     H_    0.652537 0.550380 0.711157 0.197600
H8    H     H_    0.346745 0.456297 0.288585 0.197295
H9    H     H_    0.740938 0.547612 0.707145 0.147770
H10   H     H_    0.258343 0.464400 0.293842 0.150546
H11   H     H_    0.969410 0.190722 0.561289 0.159617
H12   H     H_    0.033033 0.806611 0.378405 0.160754
H13   H     H_    0.036316 0.214957 0.643044 0.141205
H14   H     H_    0.961740 0.820199 0.427202 0.134313
C41   C     C_3   0.505650 0.044150 0.628499 -0.159904
C42   C     C_3   0.494381 0.955861 0.371498 -0.159984
C43   C     C_3   0.541752 0.956519 0.549590 -0.273835
C44   C     C_3   0.458278 0.043488 0.450409 -0.274131
H15   H     H_    0.576056 0.917454 0.587311 0.177796
H16   H     H_    0.423974 0.082548 0.412685 0.177515
H17   H     H_    0.510121 0.082816 0.733449 0.202357
H18   H     H_    0.489911 0.917196 0.266547 0.202413
C45   C     C_3   0.498815 0.876975 0.501007 -0.053074
C46   C     C_3   0.501213 0.123032 0.498995 -0.053241
C47   C     C_3   0.463145 0.962588 0.578495 0.002454
C48   C     C_3   0.536886 0.037428 0.421507 0.001819
C49   C     C_3   0.494590 0.386720 0.045401 -0.036695
C50   C     C_3   0.505416 0.613282 0.954604 -0.037042
C51   C     C_3   0.534854 0.430148 0.947160 -0.149445
C52   C     C_3   0.465149 0.569853 0.052845 -0.149423
H19   H     H_    0.563965 0.371673 0.898799 0.181119
H20   H     H_    0.436037 0.628326 0.101207 0.181104
N3    N     N_3   0.499960 0.500030 0.863290 -0.141896
N4    N     N_3   0.500040 0.499970 0.136710 -0.141906
C53   C     C_3   0.460132 0.455885 0.953896 -0.025737
C54   C     C_3   0.539871 0.544109 0.046119 -0.025426
C55   C     C_2   0.420943 0.923649 0.666308 0.973499
O13   O     O_2   0.397040 0.005462 0.725937 -0.586525
O14   O     O_R   0.408828 0.795098 0.679201 -0.807698
H21   H     H_    0.379919 0.781700 0.742183 0.347109
C56   C     C_2   0.579094 0.076460 0.333760 0.974730
O15   O     O_2   0.602983 0.994716 0.273976 -0.585654
O16   O     O_R   0.591238 0.205025 0.321149 -0.807316
H22   H     H_    0.620166 0.218515 0.258262 0.347881
C57   C     C_2   0.486305 0.254518 0.095496 0.989160
O17   O     O_2   0.517159 0.173070 0.076095 -0.620491
O18   O     O_R   0.442289 0.223754 0.158393 -0.790280
H23   H     H_    0.439426 0.129513 0.177756 0.341326
C58   C     C_2   0.513719 0.745475 0.904513 0.989430
O19   O     O_2   0.482882 0.826963 0.923949 -0.620310
O20   O     O_R   0.557735 0.776183 0.841580 -0.790988
H24   H     H_    0.560613 0.870421 0.822216 0.341370
C59   C     C_2   0.414238 0.401253 0.900212 0.965655
O21   O     O_2   0.375615 0.447656 0.936204 -0.652496
O22   O     O_R   0.415799 0.295435 0.812236 -0.753033
H25   H     H_    0.382535 0.267889 0.782085 0.367488
C60   C     C_2   0.585766 0.598618 0.099948 0.965884
O23   O     O_2   0.624376 0.551812 0.064474 -0.654012
O24   O     O_R   0.584220 0.704677 0.187586 -0.753207
H26   H     H_    0.617477 0.732088 0.217922 0.367016
C61   C     C_3   0.874143 0.143617 0.587307 -0.295354
C62   C     C_3   0.906187 0.033350 0.630259 -0.945670
H27   H     H_    0.930351 0.002788 0.544671 0.251175
H28   H     H_    0.927683 0.061270 0.720299 0.269179
H29   H     H_    0.883155 0.950681 0.658476 0.278517
H30   H     H_    0.848706 0.160957 0.674394 0.252678
H31   H     H_    0.853787 0.109744 0.497269 0.251062
C63   C     C_3   0.126940 0.864338 0.399166 -0.296442
C64   C     C_3   0.094773 0.981956 0.386540 -0.935944
H32   H     H_    0.073242 0.975628 0.292515 0.261792
H33   H     H_    0.070622 0.993101 0.477546 0.259742
H34   H     H_    0.117797 0.068566 0.379488 0.277774
H35   H     H_    0.151480 0.887214 0.484344 0.251323
H36   H     H_    0.148405 0.854155 0.302937 0.249572

loop_
_geom_bond_atom_site_label_1
_geom_bond_atom_site_label_2
_geom_bond_distance
_ccdc_geom_bond_type
C55   O13   1.221671 D    
C13   C15   1.388042 A    
O22   H25   1.013680 S    
C61   H30   1.111119 S    
N1    C17   1.423472 S    
C56   O15   1.221669 D    
C5    N1    1.358547 A    
C58   O20   1.396013 S    
C19   C25   1.422117 A    
C44   H16   1.109905 S    
O1    C1    1.284873 A    
C9    H10   1.082913 S    
N1    C7    1.364128 A    
C10   C12   1.388550 A    
C42   C45   1.536397 S    
C32   C39   1.412837 A    
C59   O22   1.396338 S    
C52   H20   1.110465 S    
O24   H26   1.013674 S    
C35   H11   1.069740 S    
C40   H14   1.074628 S    
C14   C28   1.403248 A    
O4    Zn1   1.996069 S    
C62   H27   1.108778 S    
Zn2   N4    2.038869 S    
C42   H18   1.110836 S    
O14   H21   1.013580 S    
C64   H34   1.110914 S    
C4    C28   1.459333 S    
O20   H24   1.012751 S    
C23   H5    1.083836 S    
C54   C60   1.495515 S    
C24   H6    1.083862 S    
C6    N2    1.357705 A    
C57   O18   1.396006 S    
C44   C46   1.530659 S    
C43   H15   1.109908 S    
O2    C2    1.284890 A    
C31   C40   1.412512 A    
C5    C21   1.391548 A    
C41   C46   1.536342 S    
C56   O16   1.396238 S    
C51   C54   1.536530 S    
C32   C34   1.421849 A    
C50   C58   1.495065 S    
C51   H19   1.110466 S    
C57   O17   1.221864 D    
C7    O12   1.347484 S    
C46   C48   1.523155 S    
C52   N4    1.486331 S    
C11   C27   1.404501 A    
C8    O11   1.347255 S    
C45   C47   1.523166 S    
O7    Zn2   2.004628 S    
C51   N3    1.486399 S    
C29   C35   1.408346 A    
C25   C38   1.425403 A    
C14   H2    1.080557 S    
C30   C36   1.410359 A    
C15   H3    1.082931 S    
C31   C33   1.423072 A    
C11   H8    1.083318 S    
C9    C17   1.397266 A    
O5    C3    1.305815 A    
C12   H7    1.083344 S    
C10   C18   1.396572 A    
C47   C55   1.499328 S    
C13   C27   1.403148 A    
N4    C54   1.482108 S    
O16   H22   1.013593 S    
C7    C25   1.418747 A    
O6    C4    1.305978 A    
C29   C32   1.419091 A    
C8    C26   1.419975 A    
C30   C31   1.421654 A    
C43   C45   1.530694 S    
C63   H36   1.110995 S    
C6    O10   1.350934 S    
C30   C34   1.411126 A    
C1    C46   1.416047 S    
O7    C3    1.303451 A    
O3    Zn2   1.996071 S    
O8    C4    1.303119 A    
C10   H9    1.082951 S    
C42   C44   1.549899 S    
C49   C51   1.533972 S    
N2    C8    1.363640 A    
C35   C37   1.402582 A    
C64   H32   1.110526 S    
C48   C56   1.499369 S    
C20   C26   1.423563 A    
O4    C2    1.290871 A    
N3    C53   1.482153 S    
C50   N3    1.486405 S    
C44   C47   1.537789 S    
C43   C48   1.537818 S    
C41   H17   1.110837 S    
C12   C28   1.404452 A    
C37   C61   1.533874 S    
C60   O23   1.221701 D    
N2    C18   1.422903 S    
C39   H13   1.077391 S    
C19   C34   1.418693 A    
C5    O9    1.350894 S    
C49   N4    1.486346 S    
O6    Zn2   2.019522 S    
C26   C37   1.426961 A    
C49   C57   1.495086 S    
Zn1   N3    2.038869 S    
C16   H4    1.082883 S    
C50   C52   1.534036 S    
O3    C1    1.290867 A    
O8    Zn1   2.004631 S    
C23   C39   1.380133 A    
C41   C47   1.537397 S    
C49   C53   1.519293 S    
C58   O19   1.221861 D    
C38   C63   1.533918 S    
C52   C53   1.536521 S    
C53   C59   1.495468 S    
C22   C24   1.392936 A    
C61   H31   1.111276 S    
C21   C23   1.393766 A    
C15   C17   1.396141 A    
C36   H12   1.068620 S    
C59   O21   1.221678 D    
C6    C22   1.391390 A    
C16   C18   1.396282 A    
C2    C45   1.416083 S    
C29   C33   1.409481 A    
C14   C16   1.388919 A    
C19   C21   1.412806 A    
C36   C38   1.401639 A    
C63   H35   1.111380 S    
C3    C27   1.459669 S    
C20   C22   1.412629 A    
C9    C11   1.389381 A    
O2    Zn2   1.983943 S    
C62   H28   1.110969 S    
C13   H1    1.080375 S    
O5    Zn1   2.019516 S    
O1    Zn1   1.983946 S    
C20   C33   1.419205 A    
C55   O14   1.396185 S    
C41   C43   1.549896 S    
O18   H23   1.012754 S    
C64   H33   1.111258 S    
C50   C54   1.519349 S    
C60   O24   1.396322 S    
C61   C62   1.531506 S    
C62   H29   1.110740 S    
C42   C48   1.537427 S    
C63   C64   1.533862 S    
C24   C40   1.379957 A    
