data_mof_unit_57688.cif
_audit_creation_date              2012-12-10T16:57:47-0500
_audit_creation_method            fapswitch 2.2
_symmetry_space_group_name_H-M    P1
_symmetry_Int_Tables_number       1
_space_group_crystal_system       triclinic
_cell_length_a                    7.969014
_cell_length_b                    8.49815
_cell_length_c                    19.145357
_cell_angle_alpha                 93.203862
_cell_angle_beta                  85.551075
_cell_angle_gamma                 91.401045
_cell_volume                      1290.36885339

loop_
_atom_site_label
_atom_site_type_symbol
_atom_type_description
_atom_site_fract_x
_atom_site_fract_y
_atom_site_fract_z
_atom_type_partial_charge
C1    C     C_R   0.541252 0.793132 0.501009 0.934836
C2    C     C_R   0.638289 0.443067 0.170091 0.164720
C3    C     C_R   0.446658 0.413668 0.852470 -0.070059
C4    C     C_R   0.481522 0.421584 0.142803 -0.043916
C5    C     C_R   0.577151 0.339469 0.809772 0.143775
C6    C     C_R   0.333573 0.443766 0.185441 0.165332
C7    C     C_R   0.610431 0.382258 0.740107 -0.013516
C8    C     C_R   0.341945 0.501119 0.255356 -0.060517
C9    C     C_R   0.500367 0.486819 0.711325 -0.281764
C10   C     C_R   0.496020 0.493797 0.287117 -0.237397
C11   C     C_R   0.469685 0.414853 0.067805 0.327711
C12   C     C_R   0.458122 0.207117 0.496549 0.944504
C13   C     C_R   0.444074 0.409940 0.928672 0.311745
C14   C     C_2   0.271927 0.688218 0.727647 0.414226
C15   C     C_2   0.811189 0.470767 0.270983 0.449443
C16   C     C_3   0.055881 0.493926 0.878954 -0.686489
C17   C     C_3   0.844949 0.601683 0.105393 -0.775180
C18   C     C_3   0.629256 0.068298 0.832835 -0.611250
C19   C     C_3   0.136407 0.240009 0.152187 -0.631489
C20   C     C_2   0.769758 0.328564 0.700825 0.554406
C21   C     C_2   0.199062 0.590947 0.289607 0.479568
C22   C     C_2   0.606006 0.001682 0.586826 0.366609
C23   C     C_2   0.547494 0.955320 0.516316 -0.224750
C24   C     C_2   0.369502 0.995759 0.414675 0.368932
C25   C     C_3   0.928469 0.213196 0.415190 -0.601069
C26   C     C_3   0.055318 0.804059 0.566926 -0.590228
C27   C     C_2   0.448331 0.044475 0.481174 -0.219512
C28   C     C_R   0.501663 0.499748 0.634529 0.890548
C29   C     C_R   0.499164 0.502180 0.365088 0.893607
C30   C     C_R   0.369295 0.560448 0.754754 -0.064853
C31   C     C_R   0.645556 0.467491 0.242847 -0.016681
C32   C     C_R   0.339528 0.519618 0.824801 0.196364
H1    H     H_    0.336446 0.772509 0.693855 0.052888
H2    H     H_    0.751231 0.656419 0.074862 0.252893
H3    H     H_    0.730523 0.266994 0.885381 0.222416
H4    H     H_    0.510832 0.050475 0.866139 0.220449
H5    H     H_    0.727450 0.992399 0.850485 0.230169
H6    H     H_    0.606497 0.030718 0.777812 0.268651
H7    H     H_    0.079061 0.474954 0.177713 0.284436
H8    H     H_    0.014020 0.219234 0.129082 0.246344
H9    H     H_    0.128880 0.191572 0.205083 0.267356
H10   H     H_    0.233313 0.174823 0.118268 0.236726
H11   H     H_    0.846493 0.409178 0.670122 0.057055
H12   H     H_    0.857074 0.578848 0.296189 0.096918
H13   H     H_    0.129071 0.551524 0.336081 0.111314
H14   H     H_    0.699499 0.932313 0.608360 0.082297
H15   H     H_    0.277108 0.070889 0.395645 0.055997
H16   H     H_    0.147268 0.340272 0.427797 0.257855
H17   H     H_    0.999170 0.138384 0.374150 0.211536
H18   H     H_    0.807101 0.238016 0.394298 0.286405
H19   H     H_    0.909592 0.146788 0.463655 0.216710
H20   H     H_    0.939609 0.612916 0.612637 0.229943
H21   H     H_    0.975191 0.891450 0.597717 0.209652
H22   H     H_    0.083497 0.846638 0.513378 0.230834
H23   H     H_    0.186063 0.707539 0.863445 0.258201
H24   H     H_    0.171361 0.795957 0.594581 0.244270
H25   H     H_    0.996959 0.474460 0.828372 0.261877
H26   H     H_    0.964745 0.554138 0.917760 0.222900
H27   H     H_    0.085048 0.378241 0.898966 0.236690
H28   H     H_    0.788118 0.366337 0.081588 0.232264
H29   H     H_    0.965849 0.593643 0.072511 0.257184
H30   H     H_    0.865470 0.678163 0.153088 0.258880
N1    N     N_R   0.456876 0.273321 0.961030 -0.185281
N2    N     N_2   0.176985 0.407381 0.156808 -0.302343
N3    N     N_2   0.022154 0.357583 0.428655 -0.256262
N4    N     N_2   0.968936 0.653144 0.563506 -0.212313
N5    N     N_R   0.453240 0.550770 0.035923 -0.158029
N6    N     N_R   0.470202 0.275661 0.029821 -0.187460
N7    N     N_R   0.442362 0.548415 0.967275 -0.157776
N8    N     N_2   0.950330 0.457950 0.481240 0.031968
N9    N     N_2   0.049670 0.542050 0.518760 0.004714
N10   N     N_2   0.207383 0.590275 0.869759 -0.286408
N11   N     N_2   0.788448 0.445424 0.124444 -0.311976
N12   N     N_2   0.685557 0.231752 0.837825 -0.281746
O1    O     O_R   0.389250 0.738570 0.504600 -0.607522
O2    O     O_2   0.891043 0.350182 0.270054 -0.618502
O3    O     O_2   0.820632 0.195092 0.704093 -0.556378
O4    O     O_2   0.157790 0.712303 0.264892 -0.582337
O5    O     O_2   0.539184 0.107283 0.624022 -0.558431
O6    O     O_2   0.412585 0.878383 0.378704 -0.541543
O7    O     O_R   0.610750 0.261430 0.495400 -0.607813
O8    O     O_R   0.678400 0.711620 0.492580 -0.608844
O9    O     O_R   0.321600 0.288380 0.507420 -0.646451
O10   O     O_R   0.355380 0.513500 0.607880 -0.596885
O11   O     O_R   0.644620 0.486500 0.392120 -0.622255
O12   O     O_R   0.644530 0.486550 0.595850 -0.640410
O13   O     O_R   0.355470 0.513450 0.404150 -0.652261
O14   O     O_2   0.119763 0.696772 0.740194 -0.595333
Zn1   Zn    Zn3+2 0.306930 0.517990 0.508030 0.973125
Zn2   Zn    Zn3+2 0.693070 0.482010 0.491970 0.985989

loop_
_geom_bond_atom_site_label_1
_geom_bond_atom_site_label_2
_ccdc_geom_bond_type
H3    N12   S    
C28   O10   A    
C16   N10   S    
C24   C27   S    
C14   H1    S    
C32   N10   S    
H7    N2    S    
C20   O3    D    
C18   H5    S    
C15   H12   S    
N3    N8    S    
H28   N11   S    
C6    N2    S    
C5    N12   S    
C25   H18   S    
C17   H29   S    
C10   C31   A    
C24   O6    D    
N9    Zn1   S    
C21   O4    D    
N8    N9    D    
C23   C27   D    
H16   N3    S    
C29   O11   A    
H23   N10   S    
C3    C13   S    
C19   H10   S    
C15   O2    D    
C18   N12   S    
C17   N11   S    
N8    Zn2   S    
C14   C30   S    
C26   H22   S    
C11   N5    A    
C21   H13   S    
O9    Zn1   S    
C12   C27   S    
C26   N4    S    
C25   N3    S    
C4    C6    A    
O12   Zn2   S    
C5    C7    A    
C6    C8    A    
C1    O8    A    
C12   O9    A    
C2    C31   A    
N5    N7    A    
C16   H27   S    
C1    O1    A    
C2    C4    A    
C25   H19   S    
C17   H30   S    
N4    N9    S    
C13   N1    A    
C19   N2    S    
C8    C21   S    
C16   H26   S    
C4    C11   S    
C2    N11   S    
C9    C30   A    
O7    Zn2   S    
C22   H14   S    
C1    C23   S    
O13   Zn1   S    
C28   O12   A    
C17   H2    S    
C26   H21   S    
C20   H11   S    
H20   N4    S    
C11   N6    A    
C7    C9    A    
N1    N6    A    
C24   H15   S    
C3    C5    A    
C26   H24   S    
C22   O5    D    
O11   Zn2   S    
C15   C31   S    
O8    Zn2   S    
C18   H6    S    
C14   O14   D    
C30   C32   A    
C10   C29   S    
C13   N7    A    
C12   O7    A    
C16   H25   S    
C3    C32   A    
C25   H17   S    
C29   O13   A    
C19   H8    S    
O1    Zn1   S    
C8    C10   A    
C7    C20   S    
O10   Zn1   S    
C22   C23   S    
C18   H4    S    
C19   H9    S    
C9    C28   S    
