data_mof_unit_27522.cif
_audit_creation_date              2012-12-11T15:44:57-0500
_audit_creation_method            fapswitch 2.2
_symmetry_space_group_name_H-M    P1
_symmetry_Int_Tables_number       1
_space_group_crystal_system       triclinic
_cell_length_a                    6.924365
_cell_length_b                    16.850021
_cell_length_c                    17.065459
_cell_angle_alpha                 100.438837
_cell_angle_beta                  91.099973
_cell_angle_gamma                 89.100647
_cell_volume                      1957.65697299

loop_
_atom_site_label
_atom_site_type_symbol
_atom_type_description
_atom_site_fract_x
_atom_site_fract_y
_atom_site_fract_z
_atom_type_partial_charge
O1    O     O_R   0.494370 0.415690 0.413450 -0.538964
O2    O     O_R   0.819420 0.429360 0.578420 -0.547813
O3    O     O_R   0.994280 0.584310 0.586550 -0.543455
C1    C     C_R   0.653978 0.413258 0.605100 0.751309
O4    O     O_R   0.823790 0.406230 0.413570 -0.545702
O5    O     O_R   0.998670 0.561000 0.420530 -0.543632
C2    C     C_R   0.654788 0.383252 0.384774 0.712061
O6    O     O_R   0.489970 0.439000 0.579470 -0.508568
O7    O     O_3   0.662300 0.550810 0.502470 -0.378260
V1    V     V_3+5 0.935380 0.490570 0.499540 1.429463
O8    O     O_R   0.328650 0.570640 0.421580 -0.543598
C3    C     C_R   0.156129 0.586409 0.394911 0.691478
O9    O     O_R   0.324290 0.593770 0.586430 -0.546851
C4    C     C_R   0.155286 0.616910 0.615101 0.681715
V2    V     V_3+5 0.435930 0.509430 0.500460 1.434100
O10   O     O_3   0.159140 0.449190 0.497530 -0.352008
C5    C     C_R   0.312013 0.724151 0.717900 -0.157134
H1    H     H_    0.452790 0.705267 0.694325 0.115120
C6    C     C_R   0.300607 0.787942 0.782980 -0.151083
H2    H     H_    0.433255 0.816319 0.807350 0.118163
C7    C     C_R   0.120930 0.814752 0.815981 -0.045914
C8    C     C_R   0.952988 0.775957 0.781957 -0.156344
H3    H     H_    0.812207 0.794836 0.805534 0.115942
C9    C     C_R   0.964393 0.712170 0.716879 -0.151285
H4    H     H_    0.831739 0.683795 0.692514 0.116899
C10   C     C_R   0.144069 0.685350 0.683884 -0.046158
C11   C     C_R   0.127813 0.639149 0.334032 -0.069237
C12   C     C_R   0.137107 0.860540 0.165709 -0.072734
C13   C     C_R   0.357268 0.808890 0.259401 -0.199499
C14   C     C_R   0.315057 0.862777 0.207959 -0.155679
C15   C     C_R   0.999690 0.803642 0.177798 -0.242627
C16   C     C_R   0.042175 0.748637 0.229384 0.161385
C17   C     C_R   0.222807 0.750978 0.270276 0.159355
C18   C     C_R   0.265262 0.696010 0.321896 -0.242514
C19   C     C_R   0.949917 0.636857 0.291738 -0.161606
C20   C     C_R   0.907734 0.690710 0.240254 -0.202119
H5    H     H_    0.402102 0.699127 0.354187 0.124579
H6    H     H_    0.840656 0.593635 0.299173 0.127634
H7    H     H_    0.496124 0.812160 0.290157 0.122933
H8    H     H_    0.768895 0.687421 0.209484 0.119938
H9    H     H_    0.424330 0.906000 0.200544 0.131669
H10   H     H_    0.862831 0.800548 0.145522 0.123640
C21   C     C_R   0.661164 0.360002 0.666307 -0.092057
C22   C     C_R   0.601005 0.137930 0.832555 -0.065869
C23   C     C_R   0.405166 0.188463 0.731008 -0.189010
C24   C     C_R   0.434636 0.134662 0.783462 -0.156982
C25   C     C_R   0.742155 0.195050 0.825931 -0.222173
C26   C     C_R   0.712924 0.250263 0.773339 0.131676
C27   C     C_R   0.540407 0.248874 0.726473 0.061831
C28   C     C_R   0.511902 0.306080 0.674512 0.275772
C29   C     C_R   0.829725 0.360145 0.713930 -0.246758
C30   C     C_R   0.854376 0.306878 0.767091 -0.208668
H11   H     H_    0.945097 0.401786 0.709712 0.150899
H12   H     H_    0.275711 0.181268 0.694153 0.131809
H13   H     H_    0.986781 0.308968 0.802305 0.127140
H14   H     H_    0.324408 0.090337 0.786181 0.125528
H15   H     H_    0.871272 0.198228 0.863292 0.116816
C31   C     C_R   0.806234 0.267348 0.290944 -0.145739
H16   H     H_    0.943031 0.278031 0.322666 0.146327
C32   C     C_R   0.793849 0.203582 0.225943 -0.202988
H17   H     H_    0.921478 0.166667 0.209986 0.183586
C33   C     C_R   0.619568 0.187190 0.182503 -0.160037
C34   C     C_R   0.457121 0.237849 0.205219 0.418063
C35   C     C_R   0.469357 0.299819 0.272273 -0.231534
H18   H     H_    0.341876 0.336517 0.289362 0.134499
C36   C     C_R   0.643560 0.315706 0.315444 -0.109485
O11   O     O_R   0.774880 0.061150 0.920630 -0.539652
O12   O     O_R   0.440980 0.093710 0.086500 -0.510499
O13   O     O_R   0.266190 0.938890 0.079390 -0.540814
C37   C     C_R   0.609757 0.117684 0.114554 0.716537
O14   O     O_R   0.445420 0.070740 0.921670 -0.545493
O15   O     O_R   0.270660 0.915760 0.913380 -0.542608
C38   C     C_R   0.610574 0.086410 0.894790 0.687040
O16   O     O_R   0.770400 0.084270 0.086640 -0.544012
O17   O     O_3   0.602590 0.949210 0.997500 -0.372767
V3    V     V_3+5 0.329470 0.009420 0.000470 1.433740
O18   O     O_R   0.940650 0.906250 0.913470 -0.544564
C39   C     C_R   0.109679 0.883159 0.884795 0.680295
O19   O     O_R   0.936210 0.929220 0.078300 -0.540193
C40   C     C_R   0.108738 0.913399 0.104933 0.707220
V4    V     V_3+5 0.828930 0.990510 0.999490 1.400440
O20   O     O_3   0.105680 0.050790 0.002500 -0.365310
O21   O     O_3   0.345677 0.308572 0.629022 -0.639818
H19   H     H_    0.234595 0.296476 0.660268 0.282220
O22   O     O_3   0.282920 0.225989 0.164075 -0.553227
C41   C     C_3   0.272773 0.278222 0.107996 0.107078
H20   H     H_    0.384654 0.261153 0.061680 0.104849
H21   H     H_    0.292681 0.342396 0.137209 0.101554
C42   C     C_3   0.074950 0.271660 0.067091 -0.702992
H22   H     H_    0.960770 0.291487 0.111439 0.214326
H23   H     H_    0.068013 0.310740 0.021219 0.161741
H24   H     H_    0.048095 0.208434 0.037730 0.237662

loop_
_geom_bond_atom_site_label_1
_geom_bond_atom_site_label_2
_ccdc_geom_bond_type
O18   C39   A    
C15   H10   S    
C18   H5    S    
C6    H2    S    
O15   V3    S    
V4    O20   S    
C15   C16   A    
O22   C41   S    
C13   C14   A    
C5    C10   A    
C16   C20   A    
C6    C7    A    
C9    C10   A    
O5    C3    A    
O14   V3    S    
C41   H21   S    
C31   C32   A    
V2    O10   S    
C13   C17   A    
O14   C38   A    
C33   C37   S    
O13   V3    S    
C32   C33   A    
O15   C39   A    
O8    V2    S    
C31   C36   A    
C25   C26   A    
C7    C39   S    
C37   O16   A    
C14   H9    S    
O11   C38   A    
O18   V4    S    
C42   H23   S    
O7    V1    S    
C22   C25   A    
C1    O6    A    
O9    C4    A    
C34   O22   S    
C22   C24   A    
C28   O21   S    
C17   C18   A    
C11   C18   A    
C3    C11   S    
C29   C30   A    
C20   H8    S    
C19   H6    S    
C9    H4    S    
V3    O20   S    
O4    C2    A    
C41   H20   S    
O17   V4    S    
C11   C19   A    
C31   H16   S    
C23   C24   A    
C34   C35   A    
C32   H17   S    
C29   H11   S    
C19   C20   A    
C35   C36   A    
O2    C1    A    
O17   V3    S    
C33   C34   A    
C25   H15   S    
O21   H19   S    
C23   C27   A    
C13   H7    S    
C5    H1    S    
C4    C10   S    
C42   H24   S    
O3    C4    A    
O1    V2    S    
C26   C27   A    
C23   H12   S    
O11   V4    S    
O6    V2    S    
O9    V2    S    
C8    C9    A    
O16   V4    S    
O2    V1    S    
O19   V4    S    
O1    C2    A    
C12   C15   A    
C41   C42   S    
O5    V1    S    
O8    C3    A    
C30   H13   S    
C21   C28   A    
C1    C21   S    
O12   V3    S    
C16   C17   A    
C12   C14   A    
O7    V2    S    
O4    V1    S    
O3    V1    S    
V1    O10   S    
C35   H18   S    
C2    C36   S    
C21   C29   A    
C5    C6    A    
C22   C38   S    
C12   C40   S    
O19   C40   A    
C26   C30   A    
O12   C37   A    
C27   C28   A    
C24   H14   S    
C8    H3    S    
O13   C40   A    
C42   H22   S    
C7    C8    A    
