data_mof_unit_10612.cif
_audit_creation_date              2012-12-10T17:03:44-0500
_audit_creation_method            fapswitch 2.2
_symmetry_space_group_name_H-M    P1
_symmetry_Int_Tables_number       1
_space_group_crystal_system       triclinic
_cell_length_a                    10.014674
_cell_length_b                    10.727213
_cell_length_c                    13.266698
_cell_angle_alpha                 90.435814
_cell_angle_beta                  71.548804
_cell_angle_gamma                 89.527727
_cell_volume                      1351.84472422

loop_
_atom_site_label
_atom_site_type_symbol
_atom_type_description
_atom_site_fract_x
_atom_site_fract_y
_atom_site_fract_z
_atom_type_partial_charge
C1    C     C_R   0.501782 0.737262 0.494962 0.951828
C2    C     C_R   0.378456 0.521362 0.818680 -0.091494
C3    C     C_2   0.609995 0.066250 0.485630 -0.216161
C4    C     C_R   0.423525 0.508545 0.703058 0.897482
C5    C     C_2   0.491755 0.133231 0.531279 0.030792
C6    C     C_2   0.614948 0.932757 0.489603 -0.176961
C7    C     C_2   0.508317 0.868086 0.477610 -0.386900
C8    C     C_2   0.089478 0.407723 0.466120 -0.161663
C9    C     C_2   0.950507 0.420512 0.445427 0.248892
C10   C     C_R   0.498238 0.262844 0.505810 0.915735
C11   C     C_R   0.575751 0.509060 0.297297 0.865251
C12   C     C_R   0.441844 0.539076 0.980385 0.030555
C13   C     C_R   0.791900 0.572276 0.014267 -0.184563
C14   C     C_R   0.615842 0.538665 0.184535 -0.068462
C15   C     C_R   0.248008 0.471509 0.876988 -0.223016
C16   C     C_R   0.215543 0.452559 0.985253 -0.146275
C17   C     C_R   0.313584 0.481139 0.035883 -0.180701
C18   C     C_3   0.358769 0.085992 0.614711 -0.412863
C19   C     C_3   0.324592 0.160658 0.718593 -0.862603
C20   C     C_3   0.030506 0.339744 0.264436 -0.870931
C21   C     C_3   0.949992 0.620031 0.743393 -0.804600
C22   C     C_3   0.380713 0.652688 0.200007 -0.398989
C23   C     C_R   0.473087 0.564273 0.871594 0.014707
C24   C     C_3   0.422955 0.774094 0.241900 -0.828037
C25   C     C_3   0.521975 0.825804 0.768569 -0.816693
C26   C     C_R   0.544163 0.564819 0.029709 -0.013412
C27   C     C_R   0.684376 0.587023 0.967789 0.050847
C28   C     C_R   0.709919 0.631204 0.864276 0.112019
C29   C     C_R   0.598654 0.631134 0.820145 0.180139
C30   C     C_R   0.510580 0.573986 0.139599 0.128423
C31   C     C_R   0.757462 0.537875 0.120643 -0.252317
H1    H     H_    0.840872 0.517761 0.154001 0.166634
H2    H     H_    0.117162 0.409302 0.028796 0.141530
H3    H     H_    0.706070 0.110314 0.437128 0.159172
H4    H     H_    0.417144 0.161947 0.747692 0.261999
H5    H     H_    0.293391 0.257581 0.707272 0.267867
H6    H     H_    0.235214 0.117139 0.779967 0.246562
H7    H     H_    0.268634 0.093209 0.583141 0.207638
H8    H     H_    0.367593 0.987858 0.636622 0.229648
H9    H     H_    0.825669 0.339831 0.363558 0.287553
H10   H     H_    0.000260 0.274164 0.210410 0.241137
H11   H     H_    0.134947 0.309616 0.268485 0.250020
H12   H     H_    0.706901 0.888557 0.501262 0.183968
H13   H     H_    0.037718 0.434993 0.230934 0.237736
H14   H     H_    0.869003 0.757012 0.859652 0.230953
H15   H     H_    0.030214 0.600176 0.782941 0.240292
H16   H     H_    0.001001 0.673338 0.670363 0.235678
H17   H     H_    0.911537 0.530045 0.721570 0.242375
H18   H     H_    0.327415 0.825413 0.290835 0.238828
H19   H     H_    0.491602 0.755689 0.291043 0.254222
H20   H     H_    0.481088 0.833662 0.174395 0.251191
H21   H     H_    0.320270 0.682053 0.146875 0.204687
H22   H     H_    0.304104 0.600733 0.264202 0.230942
H23   H     H_    0.421474 0.913230 0.458953 0.162400
H24   H     H_    0.703655 0.729428 0.683616 0.257425
H25   H     H_    0.535234 0.887290 0.699761 0.250436
H26   H     H_    0.558167 0.876935 0.828191 0.244051
H27   H     H_    0.408475 0.803830 0.803198 0.244499
H28   H     H_    0.147176 0.320273 0.445371 0.177613
H29   H     H_    0.099817 0.584460 0.504345 0.155351
H30   H     H_    0.873578 0.551336 0.556886 0.140841
H31   H     H_    0.901651 0.582350 0.968451 0.158465
H32   H     H_    0.174659 0.439343 0.837767 0.152324
H33   H     H_    0.289919 0.454905 0.118137 0.138918
N1    N     N_2   0.148270 0.498670 0.498870 -0.215131
N2    N     N_2   0.852610 0.498640 0.498840 -0.234677
N3    N     N_2   0.925501 0.338182 0.368470 -0.290400
N4    N     N_2   0.836746 0.695183 0.812312 -0.321487
N5    N     N_2   0.604071 0.712673 0.734683 -0.271811
O1    O     O_R   0.386950 0.680940 0.500020 -0.619076
O2    O     O_R   0.613110 0.680900 0.499980 -0.607204
O3    O     O_R   0.330780 0.500000 0.653640 -0.620101
O4    O     O_R   0.556930 0.499960 0.653610 -0.595432
O5    O     O_R   0.386890 0.319100 0.500020 -0.612897
O6    O     O_R   0.613050 0.319060 0.499980 -0.641683
O7    O     O_R   0.443070 0.500040 0.346390 -0.610116
O8    O     O_R   0.669220 0.500000 0.346360 -0.633606
Zn1   Zn    Zn3+2 0.349000 0.500030 0.500020 0.921207
Zn2   Zn    Zn3+2 0.651000 0.499970 0.499980 0.929431

loop_
_geom_bond_atom_site_label_1
_geom_bond_atom_site_label_2
_ccdc_geom_bond_type
O1    Zn1   S    
C20   N3    S    
C25   H25   S    
C14   C31   A    
C3    C6    S    
O2    Zn2   S    
C20   H10   S    
N2    Zn2   S    
C12   C23   A    
C26   C27   A    
C1    O2    A    
C23   C29   A    
C27   C28   A    
C28   C29   A    
C28   N4    S    
O7    Zn1   S    
C11   O7    A    
C17   H33   S    
C11   C14   S    
C15   C16   A    
C18   C19   S    
C9    N2    D    
O3    Zn1   S    
C11   O8    A    
H30   N2    S    
C13   H31   S    
C8    C9    S    
H9    N3    S    
C12   C17   A    
C19   H6    S    
C21   H17   S    
C24   H20   S    
C8    N1    D    
C25   H26   S    
C14   C30   A    
C20   H13   S    
C22   H22   S    
C29   N5    S    
O8    Zn2   S    
C24   H19   S    
C16   C17   A    
C5    C18   S    
C3    H3    S    
C12   C26   A    
C2    C4    S    
C18   H8    S    
C9    N3    S    
C16   H2    S    
C10   O6    A    
C31   H1    S    
H14   N4    S    
O4    Zn2   S    
C2    C15   A    
C4    O4    A    
H24   N5    S    
H29   N1    S    
C26   C30   A    
C6    H12   S    
C21   N4    S    
C22   C24   S    
C25   N5    S    
C25   H27   S    
C4    O3    A    
C22   H21   S    
C21   H15   S    
C24   H18   S    
N1    Zn1   S    
C22   C30   S    
C1    C7    S    
C13   C31   A    
C3    C5    D    
C20   H11   S    
C6    C7    D    
C1    O1    A    
C19   H5    S    
C18   H7    S    
C5    C10   S    
C8    H28   S    
C19   H4    S    
C10   O5    A    
O5    Zn1   S    
C2    C23   A    
C15   H32   S    
C13   C27   A    
C7    H23   S    
O6    Zn2   S    
C21   H16   S    
