data_mof_unit_8346.cif
_audit_creation_date              2012-12-11T14:51:46-0500
_audit_creation_method            fapswitch 2.2
_symmetry_space_group_name_H-M    P1
_symmetry_Int_Tables_number       1
_space_group_crystal_system       triclinic
_cell_length_a                    6.928301
_cell_length_b                    16.706659
_cell_length_c                    16.920107
_cell_angle_alpha                 101.504347
_cell_angle_beta                  91.919152
_cell_angle_gamma                 89.075974
_cell_volume                      1917.96898874

loop_
_atom_site_label
_atom_site_type_symbol
_atom_type_description
_atom_site_fract_x
_atom_site_fract_y
_atom_site_fract_z
_atom_type_partial_charge
O1    O     O_R   0.506340 0.439070 0.579550 -0.541235
O2    O     O_R   0.170010 0.404890 0.412100 -0.542447
O3    O     O_R   0.005010 0.560930 0.420450 -0.540025
C1    C     C_R   0.338881 0.381443 0.383218 0.672528
O4    O     O_R   0.176280 0.429360 0.578400 -0.535945
O5    O     O_R   0.011320 0.585570 0.587940 -0.534256
C2    C     C_R   0.349835 0.414153 0.605582 0.743210
O6    O     O_R   0.500030 0.414430 0.412060 -0.537660
O7    O     O_3   0.340950 0.551220 0.502940 -0.373016
V1    V     V_3+5 0.064020 0.490500 0.499460 1.415540
O8    O     O_R   0.681910 0.595110 0.587900 -0.544562
C3    C     C_R   0.852013 0.618479 0.616518 0.724489
O9    O     O_R   0.675640 0.570640 0.421600 -0.544721
C4    C     C_R   0.840295 0.586839 0.394984 0.688205
V2    V     V_3+5 0.564670 0.509500 0.500540 1.402785
O10   O     O_3   0.837610 0.448780 0.497060 -0.367648
C5    C     C_R   0.930904 0.856108 0.163169 -0.171518
C6    C     C_R   0.832596 0.640048 0.333805 -0.061785
C7    C     C_R   0.640518 0.698793 0.235167 -0.182207
C8    C     C_R   0.659523 0.645411 0.288888 -0.187157
C9    C     C_R   0.988029 0.689545 0.323138 -0.216119
C10   C     C_R   0.968851 0.744574 0.269706 0.097535
C11   C     C_R   0.793879 0.749248 0.224802 0.062707
C12   C     C_R   0.775988 0.803846 0.170235 0.386307
C13   C     C_R   0.102474 0.850659 0.209117 -0.215430
C14   C     C_R   0.121364 0.795750 0.261298 -0.199829
H1    H     H_    0.224221 0.889215 0.204617 0.172984
H2    H     H_    0.504301 0.700715 0.202267 0.158058
H3    H     H_    0.255839 0.793600 0.295454 0.136830
H4    H     H_    0.536730 0.608214 0.295502 0.127022
H5    H     H_    0.121437 0.687019 0.357971 0.119282
C15   C     C_3   0.823300 0.820123 0.728644 -0.132520
C16   C     C_3   0.992070 0.764934 0.691691 0.067951
H6    H     H_    0.774902 0.878059 0.711237 0.107616
C17   C     C_3   0.866631 0.688861 0.686916 -0.106679
C18   C     C_3   0.697001 0.743128 0.724111 -0.198044
C19   C     C_3   0.771768 0.735213 0.809844 -0.201066
C20   C     C_3   0.941276 0.681950 0.771623 0.509606
C21   C     C_3   0.070639 0.757127 0.776475 -0.211362
C22   C     C_3   0.899472 0.811121 0.813320 -0.083440
H7    H     H_    0.544230 0.736986 0.702105 0.136986
H8    H     H_    0.681229 0.723157 0.859002 0.099350
H9    H     H_    0.223799 0.762701 0.798175 0.110174
C23   C     C_3   0.485861 0.235474 0.314154 -0.132088
C24   C     C_3   0.324385 0.180140 0.268232 -0.137495
H10   H     H_    0.276923 0.121896 0.283151 0.099767
H11   H     H_    0.569910 0.223491 0.367673 0.101885
C25   C     C_3   0.410411 0.189229 0.187581 -0.012475
C26   C     C_3   0.571697 0.243799 0.232737 -0.118847
C27   C     C_3   0.441719 0.320022 0.231620 -0.137508
C28   C     C_3   0.280242 0.264683 0.185694 -0.132969
C29   C     C_3   0.194406 0.256358 0.267113 -0.120690
C30   C     C_3   0.355692 0.310927 0.312271 -0.009701
H12   H     H_    0.726483 0.238333 0.217690 0.102701
H13   H     H_    0.489179 0.378266 0.216702 0.097973
H14   H     H_    0.196201 0.276664 0.132172 0.103843
H15   H     H_    0.039618 0.261824 0.282156 0.102918
C31   C     C_R   0.386445 0.138833 0.833642 -0.097177
C32   C     C_R   0.381300 0.362737 0.667707 -0.126870
C33   C     C_R   0.608050 0.314844 0.764722 0.430400
C34   C     C_R   0.559923 0.367496 0.711028 -0.260397
C35   C     C_R   0.247869 0.304284 0.679028 -0.237023
C36   C     C_R   0.295040 0.249396 0.730296 0.095411
C37   C     C_R   0.476053 0.253962 0.772905 0.061391
C38   C     C_R   0.520449 0.198063 0.824047 -0.209291
C39   C     C_R   0.209536 0.134408 0.789297 -0.157276
C40   C     C_R   0.164493 0.188816 0.738526 -0.110705
H16   H     H_    0.655806 0.202123 0.858508 0.167841
H17   H     H_    0.103167 0.089132 0.794703 0.121900
H18   H     H_    0.026231 0.183805 0.706090 0.130699
H19   H     H_    0.664952 0.411365 0.701149 0.148222
H20   H     H_    0.110822 0.299337 0.645637 0.138800
O11   O     O_R   0.266070 0.085680 0.087850 -0.537658
O12   O     O_R   0.590090 0.070660 0.921580 -0.543002
O13   O     O_R   0.754780 0.914400 0.912080 -0.538178
C41   C     C_R   0.416700 0.086196 0.894642 0.695209
O14   O     O_R   0.596110 0.095130 0.087880 -0.542236
O15   O     O_R   0.760850 0.939050 0.079570 -0.509278
C42   C     C_R   0.427223 0.118664 0.116686 0.681014
O16   O     O_R   0.260010 0.061030 0.920360 -0.540638
O17   O     O_3   0.425070 0.948840 0.997010 -0.356633
V3    V     V_3+5 0.702100 0.009490 0.000550 1.428832
O18   O     O_R   0.090200 0.929250 0.078500 -0.544296
C43   C     C_R   0.925153 0.912232 0.104388 0.731329
O19   O     O_R   0.084180 0.904770 0.912200 -0.546979
C44   C     C_R   0.914064 0.881292 0.883717 0.690613
V4    V     V_3+5 0.201420 0.990350 0.999580 1.419340
O20   O     O_3   0.928580 0.051150 0.002990 -0.371797
O21   O     O_3   0.606047 0.807332 0.125576 -0.551002
C45   C     C_3   0.621187 0.752137 0.051086 -0.232369
H21   H     H_    0.485647 0.755450 0.015006 0.155702
H22   H     H_    0.639100 0.688104 0.059745 0.113620
H23   H     H_    0.742031 0.768265 0.015639 0.107712
O22   O     O_3   0.000579 0.606180 0.789534 -0.561951
C46   C     C_3   0.061109 0.617452 0.871273 -0.301146
H24   H     H_    0.940638 0.640147 0.911881 0.127320
H25   H     H_    0.186419 0.659296 0.884720 0.134919
H26   H     H_    0.108636 0.557525 0.884182 0.160446
O23   O     O_3   0.788613 0.315569 0.803853 -0.564985
C47   C     C_3   0.857654 0.395527 0.832342 -0.249344
H27   H     H_    0.741629 0.438844 0.858368 0.132576
H28   H     H_    0.931261 0.417892 0.783706 0.171697
H29   H     H_    0.967401 0.393627 0.881210 0.159538
C48   C     C_3   0.118234 0.780870 0.624202 -0.353041
C49   C     C_3   0.226816 0.861625 0.649563 -0.305365
C50   C     C_3   0.364393 0.874139 0.584637 -0.774759
H30   H     H_    0.474520 0.824342 0.574604 0.225908
H31   H     H_    0.283152 0.875064 0.527089 0.231166
H32   H     H_    0.439614 0.933304 0.604299 0.216094
H33   H     H_    0.121711 0.913346 0.660349 0.190028
H34   H     H_    0.312031 0.861905 0.706464 0.191995
H35   H     H_    0.223498 0.729588 0.609432 0.184067
H36   H     H_    0.025155 0.782517 0.569754 0.161799

loop_
_geom_bond_atom_site_label_1
_geom_bond_atom_site_label_2
_ccdc_geom_bond_type
C23   C26   S    
O18   V4    S    
C49   H33   S    
C1    C30   S    
C6    C9    A    
C4    C6    S    
O2    C1    A    
C7    C8    A    
C1    O6    A    
C33   O23   S    
C12   O21   S    
O17   V3    S    
C46   H26   S    
C31   C41   S    
C8    H4    S    
O19   C44   A    
C23   C24   S    
C9    H5    S    
C35   C36   A    
O12   C41   A    
C15   C18   S    
C25   C42   S    
C18   C19   S    
C19   C22   S    
O5    C3    A    
C20   C21   S    
C39   H17   S    
C50   H30   S    
V2    O10   S    
C16   C48   S    
C28   H14   S    
C22   C44   S    
C19   H8    S    
O11   V4    S    
O13   C44   A    
O8    V2    S    
C23   C30   S    
C31   C39   A    
C25   C28   S    
C46   H24   S    
C11   C12   A    
O1    V2    S    
O7    V1    S    
C23   H11   S    
C34   H19   S    
O14   C42   A    
C39   C40   A    
C49   H34   S    
O9    C4    A    
C18   H7    S    
O12   V3    S    
C2    C32   S    
C48   C49   S    
O19   V4    S    
C36   C40   A    
C32   C34   A    
C5    C12   A    
C28   C29   S    
C27   C30   S    
C17   C20   S    
C21   C22   S    
C48   H35   S    
C21   H9    S    
C24   C29   S    
C13   C14   A    
C24   H10   S    
C47   H29   S    
C48   H36   S    
C33   C34   A    
C17   C18   S    
C15   H6    S    
V4    O20   S    
C7    C11   A    
C19   C20   S    
O15   V3    S    
C31   C38   A    
C45   H22   S    
O18   C43   A    
C38   H16   S    
C20   O22   S    
C47   H28   S    
C27   C28   S    
O11   C42   A    
C35   H20   S    
C16   C21   S    
C3    C17   S    
C7    H2    S    
O17   V4    S    
O3    C4    A    
O16   V4    S    
C25   C26   S    
O6    V2    S    
O9    V2    S    
O2    V1    S    
C29   C30   S    
C45   H23   S    
O4    C2    A    
C24   C25   S    
C32   C35   A    
O1    C2    A    
C41   O16   A    
O5    V1    S    
O8    C3    A    
C46   H25   S    
O13   V3    S    
C13   H1    S    
C49   C50   S    
C27   H13   S    
O23   C47   S    
C33   C37   A    
C5    C43   S    
C5    C13   A    
C37   C38   A    
C40   H18   S    
O7    V2    S    
O4    V1    S    
O3    V1    S    
V1    O10   S    
C15   C16   S    
C45   H21   S    
C50   H31   S    
O14   V3    S    
V3    O20   S    
C47   H27   S    
C16   C17   S    
C6    C8    A    
C15   C22   S    
O22   C46   S    
C29   H15   S    
C36   C37   A    
O15   C43   A    
C14   H3    S    
C26   C27   S    
C10   C14   A    
C10   C11   A    
O21   C45   S    
C9    C10   A    
C26   H12   S    
C50   H32   S    
