data_mof_unit_35653.cif
_audit_creation_date              2012-12-10T16:55:01-0500
_audit_creation_method            fapswitch 2.2
_symmetry_space_group_name_H-M    P1
_symmetry_Int_Tables_number       1
_space_group_crystal_system       triclinic
_cell_length_a                    7.898415
_cell_length_b                    8.59874
_cell_length_c                    15.714666
_cell_angle_alpha                 92.389963
_cell_angle_beta                  85.841677
_cell_angle_gamma                 92.561187
_cell_volume                      1062.6183047

loop_
_atom_site_label
_atom_site_type_symbol
_atom_type_description
_atom_site_fract_x
_atom_site_fract_y
_atom_site_fract_z
_atom_type_partial_charge
C1    C     C_R   0.544445 0.793830 0.502852 0.881299
C2    C     C_2   0.435112 0.043107 0.504880 -0.395534
C3    C     C_R   0.501780 0.498929 0.661129 0.865174
C4    C     C_R   0.456121 0.206385 0.504279 0.930696
C5    C     C_R   0.498300 0.499831 0.338862 0.869640
C6    C     C_3   0.411011 0.622949 0.955819 0.647769
C7    C     C_3   0.702166 0.496474 0.943425 0.681793
C8    C     C_3   0.697930 0.512771 0.043987 -0.139417
C9    C     C_1   0.495015 0.493718 0.250180 -0.217161
C10   C     C_3   0.513943 0.481969 0.916032 -0.100197
C11   C     C_3   0.532821 0.114233 0.146664 -0.729566
C12   C     C_3   0.396448 0.612588 0.055847 0.612822
C13   C     C_3   0.692138 0.052969 0.648472 -0.619844
C14   C     C_3   0.926904 0.236154 0.381626 -0.723771
C15   C     C_3   0.873455 0.449737 0.164368 -0.657933
C16   C     C_3   0.509393 0.477540 0.082386 -0.095299
C17   C     C_3   0.437722 0.313291 0.046389 0.516429
C18   C     C_3   0.429152 0.324366 0.947269 0.096420
C19   C     C_1   0.501029 0.485036 0.174582 0.075158
C20   C     C_1   0.511586 0.485358 0.824310 0.208497
C21   C     C_1   0.506598 0.491575 0.749453 -0.137168
C22   C     C_2   0.565865 0.956247 0.519669 0.012292
H1    H     H_    0.315211 0.993334 0.484049 0.158502
H2    H     H_    0.575588 0.196595 0.197122 0.210670
H3    H     H_    0.822664 0.954872 0.542184 0.244736
H4    H     H_    0.811306 0.107568 0.671503 0.238551
H5    H     H_    0.660223 0.944418 0.683303 0.239995
H6    H     H_    0.589184 0.136082 0.662606 0.231323
H7    H     H_    0.144370 0.344941 0.413667 0.275215
H8    H     H_    0.998305 0.176114 0.327205 0.197192
H9    H     H_    0.803917 0.264456 0.358911 0.270340
H10   H     H_    0.908534 0.154612 0.434579 0.244602
H11   H     H_    0.063445 0.681284 0.615488 0.349965
H12   H     H_    0.732385 0.636762 0.060822 0.222765
H13   H     H_    0.421370 0.848363 0.940967 0.367053
H14   H     H_    0.815020 0.371323 0.850508 0.368150
H15   H     H_    0.905407 0.631824 0.925105 0.364920
H16   H     H_    0.936227 0.411447 0.037234 0.312079
H17   H     H_    0.003334 0.411369 0.171694 0.251821
H18   H     H_    0.791939 0.378932 0.209088 0.234497
H19   H     H_    0.868642 0.575776 0.182625 0.239812
H20   H     H_    0.420838 0.107665 0.906142 0.357452
H21   H     H_    0.264900 0.288645 0.142789 0.339948
H22   H     H_    0.293707 0.319882 0.931855 0.149834
H23   H     H_    0.366180 0.831840 0.087895 0.360083
H24   H     H_    0.177704 0.534329 0.940462 0.338367
H25   H     H_    0.212731 0.613489 0.146946 0.350658
H26   H     H_    0.664401 0.182300 0.032662 0.313463
H27   H     H_    0.616458 0.013570 0.144230 0.274603
H28   H     H_    0.401128 0.070743 0.163917 0.247771
N1    N     N_2   0.950340 0.457950 0.477370 0.097812
N2    N     N_2   0.049660 0.542050 0.522630 0.109260
N3    N     N_2   0.545521 0.184812 0.064039 -0.237476
N4    N     N_2   0.715613 0.017473 0.557635 -0.296850
N5    N     N_2   0.023344 0.373929 0.408320 -0.241829
N6    N     N_2   0.827343 0.418262 0.077357 -0.272598
O1    O     O_R   0.389240 0.738570 0.505550 -0.633913
O2    O     O_3   0.249239 0.625707 0.922192 -0.768237
O3    O     O_3   0.225130 0.583463 0.085181 -0.799262
O4    O     O_3   0.970535 0.629041 0.584580 -0.638083
O5    O     O_3   0.500913 0.762102 0.932515 -0.664334
O6    O     O_3   0.789654 0.363082 0.913010 -0.749088
O7    O     O_3   0.786910 0.629360 0.908031 -0.711612
O8    O     O_3   0.504199 0.197247 0.901813 -0.709413
O9    O     O_3   0.269662 0.279158 0.079673 -0.765651
O10   O     O_R   0.678400 0.711630 0.491050 -0.582251
O11   O     O_R   0.355360 0.513470 0.630110 -0.614533
O12   O     O_R   0.644510 0.486530 0.615610 -0.554574
O13   O     O_R   0.321600 0.288370 0.508950 -0.662987
O14   O     O_R   0.610760 0.261430 0.494450 -0.588346
O15   O     O_R   0.355490 0.513470 0.384390 -0.645104
O16   O     O_R   0.644640 0.486530 0.369890 -0.623798
O17   O     O_3   0.454842 0.755365 0.093498 -0.791404
Zn1   Zn    Zn3+2 0.306930 0.517990 0.509680 0.976367
Zn2   Zn    Zn3+2 0.693070 0.482010 0.490320 1.031437

loop_
_geom_bond_atom_site_label_1
_geom_bond_atom_site_label_2
_ccdc_geom_bond_type
O1    Zn1   S    
C6    C10   S    
O15   Zn1   S    
C2    C4    S    
H20   O8    S    
C13   H6    S    
C2    C22   D    
C11   H27   S    
C18   H22   S    
H11   O4    S    
H7    N5    S    
C6    O2    S    
N2    Zn1   S    
C3    O12   A    
C11   N3    S    
C14   H9    S    
H21   O9    S    
C7    O7    S    
C15   N6    S    
C8    N6    S    
C4    O14   A    
C1    O10   A    
C14   H8    S    
C1    C22   S    
C7    O6    S    
O11   Zn1   S    
C8    H12   S    
C12   O17   S    
H24   O2    S    
O12   Zn2   S    
C5    C9    S    
C22   N4    S    
C15   H17   S    
C10   C18   S    
C16   C19   S    
H14   O6    S    
O10   Zn2   S    
C6    O5    S    
H23   O17   S    
C4    O13   A    
H15   O7    S    
N1    Zn2   S    
C17   C18   S    
C5    O16   A    
N1    N5    S    
C2    H1    S    
O16   Zn2   S    
C6    C12   S    
H26   N3    S    
C15   H18   S    
C13   H4    S    
C3    C21   S    
H25   O3    S    
N1    N2    D    
C18   O8    S    
C17   N3    S    
C11   H2    S    
C7    C8    S    
C14   N5    S    
H16   N6    S    
H3    N4    S    
C15   H19   S    
C5    O15   A    
C13   N4    S    
C8    C16   S    
C7    C10   S    
C14   H10   S    
O14   Zn2   S    
C11   H28   S    
O13   Zn1   S    
C13   H5    S    
N2    O4    S    
C20   C21   T    
H13   O5    S    
C12   O3    S    
C17   O9    S    
C9    C19   T    
C3    O11   A    
C12   C16   S    
C10   C20   S    
C16   C17   S    
C1    O1    A    
