data_mof_unit_25835.cif
_audit_creation_date              2013-03-05T15:57:36-0500
_audit_creation_method            fapswitch 2.2
_symmetry_space_group_name_H-M    P1
_symmetry_Int_Tables_number       1
_space_group_crystal_system       triclinic
_cell_length_a                    15.067109
_cell_length_b                    15.078012
_cell_length_c                    14.872262
_cell_angle_alpha                 108.68985
_cell_angle_beta                  109.869215
_cell_angle_gamma                 110.154332
_cell_volume                      2590.91175339

loop_
_atom_site_label
_atom_site_type_symbol
_atom_site_description
_atom_site_fract_x
_atom_site_fract_y
_atom_site_fract_z
_atom_type_partial_charge
C1    C     C_R   0.908488 0.977943 0.720286 -0.113556
H1    H     H_    0.823682 0.947543 0.696676 0.096532
N1    N     N_R   0.941940 0.944580 0.650780 -0.042775
C2    C     C_R   0.091589 0.314481 0.559942 -0.105022
H2    H     H_    0.175682 0.380111 0.604792 0.123818
N2    N     N_R   0.056800 0.208900 0.502740 -0.054542
C3    C     C_R   0.301998 0.208217 0.799891 -0.145829
H3    H     H_    0.331915 0.177275 0.852446 0.100227
N3    N     N_R   0.204460 0.150250 0.707090 -0.042665
C4    C     C_R   0.696764 0.992213 0.399614 -0.148869
H4    H     H_    0.669857 0.014355 0.337246 0.105326
N4    N     N_R   0.794270 0.003240 0.446420 -0.036842
C5    C     C_R   0.301458 0.299639 0.708584 -0.072955
H5    H     H_    0.329073 0.350791 0.675652 0.077484
N5    N     N_R   0.204920 0.207570 0.650770 -0.044067
C6    C     C_R   0.695986 0.905828 0.495573 -0.138894
H6    H     H_    0.669334 0.852405 0.526642 0.113116
N6    N     N_R   0.793810 0.945920 0.502740 -0.038671
C7    C     C_R   0.908623 0.219175 0.478425 -0.107009
H7    H     H_    0.824019 0.196008 0.451249 0.115499
N7    N     N_R   0.943620 0.152590 0.446420 -0.049891
C8    C     C_R   0.091277 0.066621 0.812584 -0.121917
H8    H     H_    0.176502 0.116636 0.875337 0.120677
N8    N     N_R   0.055110 0.000900 0.707100 -0.042223
C9    C     C_R   0.000692 0.057554 0.823401 0.053709
C10   C     C_R   0.998708 0.322213 0.543890 0.140776
C11   C     C_R   0.364523 0.301364 0.802175 0.130930
C12   C     C_R   0.633525 0.933155 0.430013 0.057669
C13   C     C_R   0.750916 0.687523 0.278820 -0.157191
H9    H     H_    0.740817 0.623766 0.299704 0.095124
N9    N     N_R   0.795080 0.792430 0.349230 -0.039931
C14   C     C_R   0.248216 0.029325 0.435133 -0.111361
H10   H     H_    0.253729 0.058156 0.378660 0.114427
N10   N     N_R   0.206190 0.054080 0.497260 -0.045365
C15   C     C_R   0.091173 0.790073 0.592011 -0.129016
H11   H     H_    0.175867 0.817271 0.644849 0.094678
N11   N     N_R   0.056380 0.847410 0.553580 -0.039951
C16   C     C_R   0.908342 0.998301 0.197495 -0.140691
H12   H     H_    0.825263 0.978160 0.149200 0.111094
N12   N     N_R   0.944890 0.999100 0.292900 -0.039919
C17   C     C_R   0.090085 0.087946 0.285943 -0.146707
H13   H     H_    0.173612 0.146192 0.315142 0.096364
N13   N     N_R   0.058060 0.055420 0.349220 -0.039740
C18   C     C_R   0.908761 0.701754 0.504614 -0.161133
H14   H     H_    0.824855 0.648380 0.479585 0.097181
N14   N     N_R   0.943200 0.791100 0.497260 -0.037294
C19   C     C_R   0.751103 0.779482 0.186611 -0.115062
H15   H     H_    0.741500 0.800966 0.122800 0.107658
N15   N     N_R   0.795540 0.849750 0.292910 -0.045979
C20   C     C_R   0.258188 0.944026 0.534017 -0.141172
H16   H     H_    0.277762 0.898243 0.572390 0.096204
N16   N     N_R   0.205730 0.996760 0.553580 -0.042018
Ni1   Ni    Ni4+2 0.869690 0.869690 0.500000 0.216739
Ni2   Ni    Ni4+2 0.130310 0.130310 0.500000 0.216011
Ni3   Ni    Ni4+2 0.129250 0.998840 0.629170 0.216201
Ni4   Ni    Ni4+2 0.870750 0.001160 0.370830 0.221027
C21   C     C_R   0.724876 0.677427 0.176500 0.131662
C22   C     C_R   0.286837 0.965377 0.460665 0.049981
C23   C     C_R   0.999546 0.698849 0.562694 0.096047
C24   C     C_R   0.997106 0.050979 0.188182 0.058733
H17   H     H_    0.496103 0.499754 0.410577 0.095194
C25   C     C_R   0.496925 0.599214 0.334484 -0.094059
H18   H     H_    0.524030 0.562308 0.282754 0.111950
C26   C     C_R   0.479170 0.683035 0.329865 -0.138231
H19   H     H_    0.490441 0.708099 0.272082 0.123269
C27   C     C_R   0.453032 0.738012 0.403607 0.108930
C28   C     C_R   0.438659 0.702773 0.477290 -0.160996
H20   H     H_    0.419819 0.744214 0.535932 0.107423
C29   C     C_R   0.452697 0.616155 0.478678 -0.106087
H21   H     H_    0.442617 0.590216 0.536283 0.104386
C30   C     C_R   0.482695 0.565038 0.407893 -0.096340
C31   C     C_R   0.364804 0.850395 0.419876 -0.234827
H22   H     H_    0.302594 0.788395 0.421313 0.130057
C32   C     C_R   0.364274 0.946606 0.434181 0.067639
C33   C     C_R   0.441760 0.026861 0.428426 0.013549
C34   C     C_R   0.517533 0.008567 0.408599 -0.223629
H23   H     H_    0.579276 0.073883 0.410118 0.130876
C35   C     C_R   0.527516 0.919808 0.408289 0.062007
C36   C     C_R   0.448055 0.836329 0.408973 0.030049
C37   C     C_R   0.447909 0.174085 0.382220 -0.188975
H24   H     H_    0.423337 0.120161 0.298703 0.110986
C38   C     C_R   0.466772 0.279516 0.412222 -0.127237
H25   H     H_    0.456849 0.306526 0.352152 0.103558
C39   C     C_R   0.498875 0.350096 0.519815 -0.099163
H26   H     H_    0.513729 0.431790 0.543266 0.094164
C40   C     C_R   0.512736 0.315548 0.597649 -0.118192
H27   H     H_    0.538959 0.370659 0.681107 0.112583
C41   C     C_R   0.493627 0.210146 0.568041 -0.114529
H28   H     H_    0.505024 0.184462 0.629239 0.114042
C42   C     C_R   0.459714 0.138172 0.459641 0.112186
H29   H     H_    0.626900 0.058166 0.069275 0.096181
C43   C     C_R   0.797157 0.180969 0.184690 -0.120532
H30   H     H_    0.826152 0.148781 0.132333 0.115788
C44   C     C_R   0.872304 0.273651 0.288227 -0.126083
H31   H     H_    0.958910 0.311967 0.315192 0.113953
C45   C     C_R   0.835549 0.315832 0.357092 0.138671
C46   C     C_R   0.722701 0.265943 0.320074 -0.195169
H32   H     H_    0.693119 0.298150 0.372040 0.126586
C47   C     C_R   0.647918 0.172900 0.216691 -0.125711
H33   H     H_    0.561190 0.133833 0.188980 0.104818
C48   C     C_R   0.685126 0.130253 0.149161 -0.096487
C49   C     C_R   0.916181 0.507170 0.476780 -0.229736
H34   H     H_    0.860107 0.503363 0.404569 0.135137
C50   C     C_R   0.994710 0.605947 0.572173 0.031518
C51   C     C_R   0.069553 0.613048 0.666102 -0.169817
C52   C     C_R   0.066765 0.516854 0.659394 0.320336
C53   C     C_R   0.991714 0.418343 0.558492 -0.112952
C54   C     C_R   0.914509 0.413740 0.467409 -0.006927
C55   C     C_R   0.257037 0.773918 0.812090 -0.082445
H35   H     H_    0.292345 0.739449 0.768988 0.119529
C56   C     C_R   0.325179 0.875924 0.907562 -0.131790
H36   H     H_    0.412546 0.918496 0.938837 0.100972
C57   C     C_R   0.280426 0.923606 0.961816 -0.093616
H37   H     H_    0.333183 0.002859 0.035297 0.094565
C58   C     C_R   0.167429 0.869334 0.920692 -0.112404
H38   H     H_    0.132713 0.906761 0.962181 0.113749
C59   C     C_R   0.099099 0.767064 0.825583 -0.127995
H39   H     H_    0.011532 0.726296 0.793877 0.113220
C60   C     C_R   0.143496 0.718265 0.770904 0.173163
C61   C     C_2   0.535903 0.467100 0.879620 -0.120492
C62   C     C_2   0.480139 0.377919 0.882299 -0.198748
H40   H     H_    0.500139 0.476758 0.809291 0.110848
H41   H     H_    0.514153 0.364870 0.950291 0.127966
C63   C     C_2   0.631204 0.566707 0.978352 -0.106399
C64   C     C_2   0.673424 0.574667 0.077266 -0.194501
H42   H     H_    0.650918 0.639584 0.972378 0.135384
H43   H     H_    0.658099 0.503952 0.087474 0.123971
H44   H     H_    0.469714 0.454547 0.084996 0.114488
C65   C     C_R   0.395706 0.330802 0.121169 -0.141710
H45   H     H_    0.471863 0.335185 0.166872 0.105840
C66   C     C_R   0.298766 0.258298 0.108949 -0.166856
H46   H     H_    0.300808 0.205579 0.143860 0.102774
C67   C     C_R   0.199382 0.251631 0.048851 0.102932
C68   C     C_R   0.199256 0.319815 0.002722 -0.131338
H47   H     H_    0.123743 0.316104 0.956139 0.140056
C69   C     C_R   0.296511 0.392541 0.015701 -0.049999
H48   H     H_    0.295896 0.444575 0.979760 0.158857
C70   C     C_R   0.394441 0.397663 0.074450 -0.133711
C71   C     C_R   0.090340 0.158622 0.118294 -0.234879
H49   H     H_    0.164170 0.207502 0.198174 0.124462
C72   C     C_R   0.993182 0.078944 0.101021 0.051620
C73   C     C_R   0.894816 0.027801 0.999452 0.002759
C74   C     C_R   0.898532 0.055585 0.920145 -0.211719
H50   H     H_    0.822467 0.016454 0.844050 0.127932
C75   C     C_R   0.998758 0.105466 0.925940 0.048133
C76   C     C_R   0.095009 0.171038 0.030358 0.030680
C77   C     C_R   0.791930 0.827880 0.922213 -0.119725
H51   H     H_    0.867478 0.827205 0.939080 0.113134
C78   C     C_R   0.692356 0.729321 0.858407 -0.165449
H52   H     H_    0.691593 0.653309 0.828497 0.116092
C79   C     C_R   0.593743 0.728606 0.833011 -0.096267
H53   H     H_    0.516806 0.652093 0.784459 0.108249
C80   C     C_R   0.594409 0.826674 0.868745 -0.082289
H54   H     H_    0.517904 0.826146 0.847065 0.102718
C81   C     C_R   0.693527 0.925400 0.928478 -0.203143
H55   H     H_    0.692311 0.000342 0.948287 0.109564
C82   C     C_R   0.793254 0.926808 0.957378 0.111612
N17   N     N_R   0.135202 0.517243 0.754613 0.231618
O1    O     O_R   0.241338 0.571704 0.800668 -0.447024
O2    O     O_R   0.091336 0.451549 0.786082 -0.411181

loop_
_geom_bond_atom_site_label_1
_geom_bond_atom_site_label_2
_geom_bond_distance
_ccdc_geom_bond_type
C6    C12   1.380971 A    
N17   O2    1.301238 A    
C71   C76   1.400266 A    
C81   C82   1.405771 A    
N1    Ni1   1.832871 S    
C17   H13   1.079891 S    
C56   H36   1.082305 S    
C14   C22   1.372438 A    
C46   H32   1.083769 S    
C11   C62   1.452154 S    
C3    H3    1.082083 S    
C19   N15   1.337269 A    
C61   C62   1.339485 D    
N8    Ni3   1.863596 S    
C65   C66   1.397649 A    
C27   C36   1.488096 S    
C55   C60   1.405363 A    
C25   H18   1.078961 S    
C23   C50   1.431990 S    
C77   C78   1.397088 A    
N9    N15   1.382884 A    
C57   H37   1.082645 S    
C31   C36   1.394350 A    
C78   C79   1.398319 A    
C21   C64   1.452180 S    
C16   H12   1.078015 S    
C40   C41   1.397321 A    
C52   C53   1.413311 A    
C18   C23   1.371675 A    
C58   H38   1.082794 S    
C3    C11   1.377356 A    
C15   C23   1.373278 A    
C1    H1    1.074416 S    
C29   C30   1.396439 A    
C7    C10   1.372254 A    
H44   C70   1.081244 S    
C25   C26   1.396324 A    
N6    Ni1   1.880713 S    
C72   C73   1.420246 A    
N12   N13   1.380476 A    
C65   C70   1.397378 A    
C77   H51   1.083631 S    
C18   N14   1.321873 A    
C6    H6    1.079524 S    
N12   Ni4   1.863596 S    
C8    C9    1.393609 A    
C20   N16   1.335177 A    
C53   C54   1.416314 A    
C49   C54   1.360849 A    
N3    Ni3   1.862271 S    
C80   C81   1.397898 A    
C12   C35   1.442957 S    
C5    C11   1.379024 A    
C33   C42   1.485913 S    
N16   Ni3   1.864284 S    
H17   C30   1.080774 S    
C27   C28   1.408989 A    
C45   C54   1.482276 S    
C80   H54   1.082660 S    
C5    H5    1.080427 S    
C1    C9    1.394844 A    
C17   N13   1.341771 A    
N1    N8    1.380475 A    
C29   H21   1.082719 S    
H29   C48   1.081382 S    
C50   C51   1.408771 A    
C46   C47   1.397297 A    
C61   H40   1.083592 S    
C75   C76   1.410442 A    
C8    H8    1.075004 S    
C32   C33   1.412600 A    
C13   C21   1.377433 A    
C28   H20   1.083000 S    
C20   C22   1.389051 A    
N5    Ni2   1.832682 S    
C39   H26   1.081972 S    
C31   C32   1.400393 A    
C40   H27   1.080097 S    
C37   H24   1.083367 S    
C68   C69   1.397055 A    
C58   C59   1.398848 A    
C52   N17   1.437587 S    
N2    N7    1.380599 A    
N9    Ni1   1.832684 S    
C1    N1    1.330895 A    
C15   H11   1.079493 S    
C26   C27   1.407452 A    
C49   C50   1.386128 A    
C33   C34   1.363892 A    
C13   H9    1.080034 S    
C24   C72   1.475481 S    
C19   C21   1.392451 A    
N13   Ni2   1.832872 S    
C19   H15   1.078191 S    
C79   H53   1.082444 S    
C45   C46   1.406004 A    
C43   C44   1.396924 A    
C20   H16   1.080547 S    
C44   H31   1.083355 S    
C56   C57   1.398114 A    
C34   H23   1.084418 S    
C44   C45   1.403899 A    
N4    Ni4   1.864284 S    
C4    N4    1.316399 A    
C43   C48   1.399467 A    
C16   C24   1.379540 A    
C2    N2    1.336668 A    
C47   C48   1.397747 A    
C41   C42   1.405179 A    
N2    Ni2   1.880620 S    
C38   C39   1.398131 A    
C5    N5    1.332519 A    
C67   C68   1.407162 A    
C8    N8    1.338091 A    
C73   C82   1.478080 S    
N4    N6    1.382884 A    
C66   H46   1.082998 S    
C77   C82   1.404045 A    
C18   H14   1.082367 S    
C22   C32   1.437030 S    
C69   C70   1.395861 A    
C63   H42   1.076641 S    
C65   H45   1.082505 S    
C4    C12   1.367982 A    
C74   C75   1.393147 A    
C7    N7    1.319742 A    
C35   C36   1.412739 A    
C51   C60   1.484713 S    
C17   C24   1.394696 A    
C34   C35   1.396050 A    
C31   H22   1.084234 S    
C66   C67   1.407185 A    
C10   C53   1.441626 S    
N7    Ni4   1.863066 S    
C2    C10   1.390040 A    
C71   H49   1.080540 S    
N10   Ni2   1.880714 S    
C68   H47   1.083085 S    
N15   Ni4   1.862271 S    
C51   C52   1.406368 A    
N10   N16   1.382884 A    
C47   H33   1.082733 S    
C14   H10   1.076015 S    
C7    H7    1.078323 S    
C59   C60   1.405563 A    
C74   H50   1.080187 S    
N3    N5    1.382885 A    
C15   N11   1.331995 A    
C13   N9    1.334482 A    
C78   H52   1.082721 S    
C26   H19   1.083178 S    
C16   N12   1.330410 A    
C71   C72   1.409596 A    
N17   O1    1.300326 A    
C55   C56   1.398949 A    
N14   Ni1   1.880619 S    
C43   H30   1.080680 S    
C37   C38   1.398165 A    
C25   C30   1.395349 A    
C79   C80   1.396978 A    
C37   C42   1.406189 A    
C49   H34   1.086634 S    
C62   H41   1.081017 S    
C4    H4    1.082738 S    
N11   Ni3   1.863066 S    
C3    N3    1.338488 A    
C2    H2    1.080756 S    
C41   H28   1.083204 S    
C6    N6    1.336849 A    
C38   H25   1.081977 S    
C55   H35   1.082976 S    
C81   H55   1.080998 S    
C64   H43   1.082196 S    
C73   C74   1.383910 A    
C39   C40   1.397155 A    
C9    C75   1.478839 S    
C67   C76   1.483341 S    
C28   C29   1.398408 A    
N11   N14   1.380600 A    
C59   H39   1.083248 S    
C69   H48   1.082476 S    
C61   C63   1.463187 S    
C14   N10   1.316637 A    
C63   C64   1.334640 D    
C57   C58   1.397752 A    
