data_mof_unit_6102.cif
_audit_creation_date              2012-12-11T15:31:31-0500
_audit_creation_method            fapswitch 2.2
_symmetry_space_group_name_H-M    P1
_symmetry_Int_Tables_number       1
_space_group_crystal_system       triclinic
_cell_length_a                    6.938494
_cell_length_b                    14.762317
_cell_length_c                    21.333673
_cell_angle_alpha                 74.661922
_cell_angle_beta                  90.390575
_cell_angle_gamma                 90.47547
_cell_volume                      2107.24222203

loop_
_atom_site_label
_atom_site_type_symbol
_atom_type_description
_atom_site_fract_x
_atom_site_fract_y
_atom_site_fract_z
_atom_type_partial_charge
O1    O     O_R   0.648150 0.130050 0.214300 -0.538126
O2    O     O_R   0.351850 0.869950 0.785700 -0.537694
O3    O     O_R   0.320490 0.006660 0.340150 -0.549629
O4    O     O_R   0.679510 0.993340 0.659850 -0.549328
O5    O     O_R   0.146100 0.869940 0.285700 -0.530488
O6    O     O_R   0.853900 0.130060 0.714300 -0.537861
C1    C     C_R   0.489281 0.001078 0.367214 0.684782
C2    C     C_R   0.510994 0.999465 0.632814 0.687137
O7    O     O_R   0.318690 0.137980 0.218120 -0.542142
O8    O     O_R   0.681310 0.862020 0.781880 -0.540311
O9    O     O_R   0.144280 0.002190 0.162800 -0.532539
O10   O     O_R   0.855720 0.997810 0.837200 -0.540354
C3    C     C_R   0.487778 0.175925 0.205346 0.704494
C4    C     C_R   0.512852 0.824146 0.795210 0.707861
O11   O     O_R   0.649960 0.997790 0.337200 -0.543068
O12   O     O_R   0.350040 0.002210 0.662800 -0.543611
O13   O     O_3   0.479300 0.955290 0.231990 -0.359651
O14   O     O_3   0.520700 0.044710 0.768010 -0.366170
V1    V     V_3+5 0.206040 0.008290 0.253340 1.439939
V2    V     V_3+5 0.793960 0.991710 0.746660 1.423224
O15   O     O_R   0.814320 0.993320 0.159850 -0.544757
O16   O     O_R   0.185680 0.006680 0.840150 -0.537766
C5    C     C_R   0.982536 0.998668 0.132715 0.717018
C6    C     C_R   0.017692 0.002110 0.867074 0.723688
O17   O     O_R   0.816120 0.862000 0.281880 -0.541322
O18   O     O_R   0.183880 0.138000 0.718120 -0.534841
C7    C     C_R   0.984091 0.824209 0.294651 0.787080
C8    C     C_R   0.015252 0.175424 0.704009 0.785740
V3    V     V_3+5 0.705540 0.991700 0.246660 1.434373
V4    V     V_3+5 0.294460 0.008300 0.753340 1.438414
O19   O     O_3   0.982150 0.044700 0.268010 -0.377524
O20   O     O_3   0.017850 0.955300 0.731990 -0.375981
C9    C     C_R   0.991792 0.721793 0.321704 -0.147246
C10   C     C_R   0.008629 0.277528 0.676052 -0.147586
C11   C     C_R   0.068629 0.567907 0.308861 -0.103563
C12   C     C_R   0.086879 0.432948 0.686190 -0.095160
C13   C     C_R   0.057044 0.664860 0.282935 0.350890
C14   C     C_R   0.069621 0.336892 0.713974 0.359589
C15   C     C_R   0.937998 0.680444 0.386968 0.007740
C16   C     C_R   0.952398 0.315966 0.610447 -0.000251
C17   C     C_R   0.993985 0.586183 0.416333 0.050492
C18   C     C_R   0.005216 0.410612 0.579580 0.047185
C19   C     C_R   0.041325 0.528205 0.375443 0.057048
C20   C     C_R   0.057359 0.470109 0.619458 0.051830
C21   C     C_R   0.009373 0.547762 0.484624 0.078782
C22   C     C_R   0.010626 0.448761 0.510899 0.077928
C23   C     C_R   0.046807 0.392129 0.468461 -0.218652
C24   C     C_R   0.053808 0.605034 0.526124 -0.217514
C25   C     C_R   0.066572 0.431694 0.401880 -0.117187
C26   C     C_R   0.081153 0.566354 0.592284 -0.119829
H1    H     H_    0.103114 0.386682 0.371035 0.136089
H2    H     H_    0.120260 0.611861 0.622545 0.137004
H3    H     H_    0.106737 0.524055 0.277433 0.192297
H4    H     H_    0.127688 0.478381 0.716622 0.180204
H5    H     H_    0.075003 0.317769 0.486999 0.118529
H6    H     H_    0.080878 0.679547 0.506995 0.122613
C27   C     C_3   0.893258 0.930661 0.988985 -0.148494
C28   C     C_3   0.108781 0.071297 0.010388 -0.128376
C29   C     C_3   0.067389 0.918598 0.036345 -0.134177
C30   C     C_3   0.934907 0.083294 0.962969 -0.126018
H7    H     H_    0.122312 0.850615 0.066695 0.168625
H8    H     H_    0.885087 0.151495 0.931542 0.146220
H9    H     H_    0.804063 0.873640 0.978487 0.104896
H10   H     H_    0.197754 0.129296 0.019671 0.104622
C31   C     C_3   0.991116 0.999701 0.061917 -0.009945
C32   C     C_3   0.010607 0.002099 0.937566 -0.005099
C33   C     C_3   0.816898 0.011841 0.015246 -0.135665
C34   C     C_3   0.184993 0.990159 0.984069 -0.125135
H11   H     H_    0.664888 0.020730 0.028293 0.111540
H12   H     H_    0.336929 0.981343 0.970901 0.109663
C35   C     C_3   0.625123 0.063935 0.467880 0.204115
C36   C     C_3   0.376262 0.936091 0.532724 0.198810
C37   C     C_3   0.451368 0.085470 0.506453 -0.185405
C38   C     C_3   0.549515 0.914535 0.494012 -0.188406
H13   H     H_    0.409318 0.155812 0.510851 0.107875
H14   H     H_    0.589116 0.843819 0.489908 0.117486
C39   C     C_3   0.503421 0.999456 0.562587 -0.039758
C40   C     C_3   0.497656 0.000736 0.437712 -0.043744
C41   C     C_3   0.678554 0.978446 0.524440 -0.196347
C42   C     C_3   0.322258 0.021435 0.476088 -0.200784
H15   H     H_    0.826070 0.961546 0.544104 0.109582
H16   H     H_    0.174588 0.038064 0.456588 0.109615
C43   C     C_R   0.499130 0.278282 0.178272 -0.101211
C44   C     C_R   0.509053 0.721588 0.821906 -0.102201
C45   C     C_R   0.519976 0.434367 0.194557 0.377977
C46   C     C_R   0.587977 0.568224 0.808357 0.375504
C47   C     C_R   0.498564 0.337437 0.218915 -0.191874
C48   C     C_R   0.563960 0.664665 0.782826 -0.183661
C49   C     C_R   0.511658 0.316185 0.111566 -0.206440
C50   C     C_R   0.488129 0.682691 0.888550 -0.212594
C51   C     C_R   0.534425 0.414284 0.083673 0.036214
C52   C     C_R   0.526401 0.586296 0.917742 0.036480
C53   C     C_R   0.539528 0.475779 0.125780 0.001586
C54   C     C_R   0.559597 0.525747 0.876313 0.011169
C55   C     C_R   0.547198 0.451844 0.014702 0.040872
C56   C     C_R   0.535052 0.549560 0.987017 0.037398
C57   C     C_R   0.550363 0.608705 0.028942 -0.169359
C58   C     C_R   0.574213 0.393697 0.972886 -0.176339
C59   C     C_R   0.563883 0.574445 0.097040 0.107383
C60   C     C_R   0.569198 0.426862 0.904996 0.112643
H17   H     H_    0.444761 0.730058 0.916590 0.104181
H18   H     H_    0.495435 0.266623 0.082757 0.098887
H19   H     H_    0.594922 0.696256 0.731997 0.145511
H20   H     H_    0.478747 0.308023 0.270448 0.142915
H21   H     H_    0.564666 0.682871 0.008313 0.130644
H22   H     H_    0.609724 0.321297 0.992720 0.132343
C61   C     C_3   0.776998 0.134934 0.433538 -0.400271
C62   C     C_3   0.685569 0.217675 0.384773 -0.707305
H23   H     H_    0.602616 0.191537 0.348517 0.202974
H24   H     H_    0.588210 0.256256 0.409656 0.231192
H25   H     H_    0.799707 0.266630 0.359325 0.228068
H26   H     H_    0.859456 0.160792 0.470209 0.166864
H27   H     H_    0.878172 0.099613 0.407712 0.185923
C63   C     C_3   0.229094 0.864746 0.569878 -0.382202
C64   C     C_3   0.326256 0.785466 0.620495 -0.723211
H28   H     H_    0.406975 0.739563 0.596330 0.226890
H29   H     H_    0.426977 0.813856 0.651196 0.205826
H30   H     H_    0.215348 0.743200 0.652849 0.217968
H31   H     H_    0.127223 0.901242 0.594678 0.186200
H32   H     H_    0.146302 0.835103 0.535112 0.165436
C65   C     C_3   0.608311 0.643256 0.137825 -0.252656
C66   C     C_3   0.676456 0.742123 0.101893 -0.743652
H33   H     H_    0.804143 0.737918 0.071737 0.236539
H34   H     H_    0.558712 0.782210 0.071586 0.210535
H35   H     H_    0.719142 0.781148 0.137808 0.256895
H36   H     H_    0.477375 0.651766 0.165044 0.274245
H37   H     H_    0.727311 0.613593 0.171983 0.247943
C67   C     C_3   0.565310 0.354877 0.864945 -0.256125
C68   C     C_3   0.485198 0.257166 0.899383 -0.727426
H38   H     H_    0.586266 0.217544 0.936876 0.186284
H39   H     H_    0.343829 0.263282 0.921996 0.256026
H40   H     H_    0.465139 0.215440 0.863444 0.260719
H41   H     H_    0.467891 0.380906 0.822711 0.259224
H42   H     H_    0.713079 0.346434 0.847765 0.253274
Cl1   Cl    Cl    0.511053 0.494240 0.256059 -0.740666
Cl2   Cl    Cl    0.685842 0.511893 0.752456 -0.721686
C69   C     C_3   0.798487 0.264682 0.581088 -0.372512
C70   C     C_3   0.601024 0.273344 0.610637 -0.637725
H43   H     H_    0.603946 0.248699 0.664430 0.246438
H44   H     H_    0.554264 0.347849 0.596526 0.225107
H45   H     H_    0.492616 0.230838 0.592373 0.174826
H46   H     H_    0.778876 0.293902 0.528232 0.192251
H47   H     H_    0.836650 0.189659 0.588581 0.162723
C71   C     C_3   0.786361 0.728627 0.418333 -0.386146
C72   C     C_3   0.585006 0.715154 0.392134 -0.637603
H48   H     H_    0.578322 0.740325 0.338401 0.250666
H49   H     H_    0.544414 0.639514 0.406610 0.233430
H50   H     H_    0.477502 0.754562 0.412658 0.178495
H51   H     H_    0.776456 0.699812 0.471500 0.188657
H52   H     H_    0.820154 0.804544 0.409864 0.161179
Cl3   Cl    Cl    0.104749 0.293613 0.798272 -0.732959
Cl4   Cl    Cl    0.112722 0.712493 0.200344 -0.736198

loop_
_geom_bond_atom_site_label_1
_geom_bond_atom_site_label_2
_ccdc_geom_bond_type
C32   C34   S    
C69   H46   S    
C37   C42   S    
C35   C61   S    
C49   H18   S    
C11   H3    S    
O13   V3    S    
C61   H26   S    
C43   C47   A    
C55   C56   A    
C4    C44   S    
C27   C32   S    
O4    C2    A    
V1    O19   S    
C67   C68   S    
C48   H19   S    
C25   H1    S    
C35   C41   S    
C72   H48   S    
C55   C58   A    
C23   C25   A    
C21   C22   A    
C7    C9    S    
O9    V1    S    
C9    C15   A    
C44   C50   A    
C10   C16   A    
C11   C13   A    
C65   H37   S    
O3    C1    A    
C40   C42   S    
C27   C29   S    
C28   C30   S    
C64   H28   S    
C36   C63   S    
C16   C18   A    
C52   C56   A    
C62   H23   S    
C30   H8    S    
C18   C22   A    
O7    C3    A    
C61   H27   S    
C71   H52   S    
C46   C54   A    
C57   C59   A    
O5    C7    A    
C45   C53   A    
O7    V1    S    
O6    C8    A    
C30   C33   S    
O8    V2    S    
C64   H29   S    
C26   H2    S    
C61   C62   S    
C27   H9    S    
O14   V4    S    
C49   C51   A    
C11   C19   A    
C53   C59   A    
C63   H31   S    
C6    C32   S    
C59   C65   S    
C68   H40   S    
C57   H21   S    
C24   C26   A    
C69   H47   S    
C30   C32   S    
C2    O12   A    
C60   C67   S    
C56   C57   A    
C28   H10   S    
C17   C19   A    
C18   C20   A    
C27   C33   S    
O1    V3    S    
C72   H49   S    
O11   V3    S    
C45   C47   A    
O17   V3    S    
C43   C49   A    
C29   H7    S    
C46   C48   A    
C36   C38   S    
O8    C4    A    
C41   H15   S    
C19   C25   A    
C1    O11   A    
C31   C33   S    
O15   V3    S    
C9    C13   A    
C33   H11   S    
C50   H17   S    
C36   C39   S    
C67   H42   S    
C29   C34   S    
C51   C53   A    
C28   C31   S    
C50   C52   A    
C54   C60   A    
C64   H30   S    
C16   C69   S    
O10   V2    S    
C52   C54   A    
C39   C41   S    
O3    V1    S    
C65   C66   S    
C38   H14   S    
C45   Cl1   S    
C1    C40   S    
O5    V1    S    
C28   C34   S    
O18   V4    S    
C58   C60   A    
C38   C41   S    
O15   C5    A    
C2    C39   S    
O16   C6    A    
C12   C20   A    
O1    C3    A    
C37   H13   S    
C13   Cl4   S    
C66   H34   S    
C14   Cl3   S    
C72   H50   S    
C23   H5    S    
C68   H38   S    
V2    O20   S    
C21   C24   A    
C20   C26   A    
C24   H6    S    
C3    C43   S    
C22   C23   A    
C46   Cl2   S    
C37   C39   S    
O16   V4    S    
C71   H51   S    
C10   C14   A    
C44   C48   A    
C71   C72   S    
C70   H45   S    
C63   C64   S    
C70   H44   S    
O17   C7    A    
O6    V2    S    
C69   C70   S    
O10   C6    A    
O18   C8    A    
C58   H22   S    
C62   H25   S    
O2    V4    S    
C5    C31   S    
C66   H35   S    
C12   C14   A    
C65   H36   S    
C36   C42   S    
C67   H41   S    
C29   C31   S    
V4    O20   S    
O9    C5    A    
O13   V1    S    
C42   H16   S    
C62   H24   S    
O14   V2    S    
O2    C4    A    
C12   H4    S    
C70   H43   S    
C8    C10   S    
C47   H20   S    
O4    V2    S    
C15   C71   S    
C15   C17   A    
C51   C55   A    
V3    O19   S    
C38   C40   S    
C35   C37   S    
C34   H12   S    
C17   C21   A    
C66   H33   S    
O12   V4    S    
C35   C40   S    
C63   H32   S    
C68   H39   S    
