data_mof_unit_39307.cif
_audit_creation_date              2012-12-10T20:27:59-0500
_audit_creation_method            fapswitch 2.2
_symmetry_space_group_name_H-M    P1
_symmetry_Int_Tables_number       1
_space_group_crystal_system       triclinic
_cell_length_a                    12.902087
_cell_length_b                    10.785367
_cell_length_c                    9.889811
_cell_angle_alpha                 89.865641
_cell_angle_beta                  97.422357
_cell_angle_gamma                 91.684494
_cell_volume                      1364.08156834

loop_
_atom_site_label
_atom_site_type_symbol
_atom_type_description
_atom_site_fract_x
_atom_site_fract_y
_atom_site_fract_z
_atom_type_partial_charge
C1    C     C_R   0.499392 0.260304 0.499681 0.894776
C2    C     C_R   0.454970 0.936895 0.375339 -0.035485
C3    C     C_R   0.492264 0.871885 0.496255 -0.166770
C4    C     C_R   0.298227 0.500864 0.473160 0.897287
C5    C     C_R   0.537651 0.936379 0.612690 -0.018999
C6    C     C_3   0.506742 0.931096 0.754423 -0.200739
C7    C     C_3   0.505950 0.072119 0.751394 -0.239316
C8    C     C_R   0.412519 0.462820 0.056666 0.156079
C9    C     C_R   0.582736 0.546936 0.087004 0.004091
C10   C     C_R   0.583117 0.548461 0.943346 0.032710
C11   C     C_R   0.412056 0.464630 0.914063 0.139801
C12   C     C_R   0.028310 0.482840 0.560056 0.148877
C13   C     C_3   0.357300 0.341651 0.897325 -0.496457
C14   C     C_3   0.361254 0.336667 0.051028 0.210915
C15   C     C_R   0.495286 0.739559 0.498786 0.843091
C16   C     C_R   0.701833 0.500337 0.526814 0.889277
C17   C     C_R   0.814005 0.497287 0.541860 -0.094291
C18   C     C_R   0.186009 0.501752 0.456830 -0.048876
C19   C     C_R   0.021036 0.517976 0.313196 -0.045750
C20   C     C_R   0.129514 0.522820 0.329154 -0.231739
C21   C     C_R   0.135438 0.480421 0.571176 -0.259798
C22   C     C_2   0.589382 0.879016 0.858094 0.500058
C23   C     C_R   0.969966 0.503651 0.430998 0.145409
C24   C     C_2   0.586034 0.141108 0.850738 0.469735
C25   C     C_2   0.672696 0.609811 0.889625 0.455279
C26   C     C_2   0.966353 0.522880 0.171975 0.472233
C27   C     C_2   0.396429 0.875657 0.252603 0.488118
C28   C     C_R   0.863095 0.514872 0.425131 -0.201646
C29   C     C_R   0.871671 0.472686 0.668010 -0.172839
C30   C     C_R   0.979212 0.466512 0.677324 -0.175506
C31   C     C_R   0.539279 0.063878 0.613026 -0.024924
C32   C     C_R   0.501165 0.128569 0.496975 -0.127341
C33   C     C_R   0.464053 0.065514 0.376396 -0.122472
Cl1   Cl    Cl    0.234497 0.334987 0.104104 -0.625379
H1    H     H_    0.817499 0.540218 0.330273 0.201289
H2    H     H_    0.179389 0.464126 0.670192 0.164177
H3    H     H_    0.433604 0.116826 0.286376 0.202033
H4    H     H_    0.427841 0.887231 0.757295 0.187260
H5    H     H_    0.670452 0.879257 0.839236 0.044594
H6    H     H_    0.654906 0.184886 0.816511 0.076235
H7    H     H_    0.662099 0.655860 0.792205 0.094923
H8    H     H_    0.000299 0.577308 0.095379 0.080181
H9    H     H_    0.356595 0.786501 0.260438 0.061159
H10   H     H_    0.425376 0.106261 0.746764 0.164758
H11   H     H_    0.648778 0.585209 0.154014 0.185670
H12   H     H_    0.277394 0.347643 0.841110 0.218756
H13   H     H_    0.406321 0.272798 0.857186 0.203058
H14   H     H_    0.413110 0.264399 0.099880 0.172112
H15   H     H_    0.833920 0.457965 0.758600 0.201877
H16   H     H_    0.023934 0.449219 0.775768 0.169500
H17   H     H_    0.169872 0.540300 0.241244 0.194512
N1    N     N_R   0.499290 0.499140 0.142710 -0.158501
N2    N     N_R   0.499290 0.499180 0.857070 -0.159456
O1    O     O_R   0.500010 0.316790 0.614690 -0.636122
O2    O     O_2   0.573827 0.148102 0.970785 -0.538896
O3    O     O_2   0.758835 0.615970 0.957096 -0.581673
O4    O     O_2   0.887557 0.459398 0.137315 -0.525417
O5    O     O_2   0.389847 0.925897 0.141110 -0.515743
O6    O     O_R   0.500000 0.316760 0.385350 -0.606738
O7    O     O_R   0.346360 0.499990 0.595720 -0.626829
O8    O     O_R   0.346350 0.499960 0.366370 -0.598492
O9    O     O_R   0.500000 0.683240 0.614650 -0.640230
O10   O     O_R   0.499990 0.683210 0.385310 -0.625532
O11   O     O_R   0.653650 0.500040 0.633630 -0.657990
O12   O     O_R   0.653640 0.500010 0.404280 -0.617421
O13   O     O_2   0.566350 0.842151 0.967399 -0.527583
Zn1   Zn    Zn3+2 0.500010 0.500020 0.653130 0.940934
Zn2   Zn    Zn3+2 0.499990 0.499980 0.346870 0.994188

loop_
_geom_bond_atom_site_label_1
_geom_bond_atom_site_label_2
_ccdc_geom_bond_type
C14   Cl1   S    
C19   C23   A    
C1    O1    A    
C6    H4    S    
C9    H11   S    
C6    C7    S    
O1    Zn1   S    
O6    Zn2   S    
C18   C21   A    
C17   C29   A    
C9    C10   A    
C8    N1    A    
C31   C32   A    
O8    Zn2   S    
C25   O3    D    
C3    C5    A    
O12   Zn2   S    
C4    C18   S    
C32   C33   A    
C4    O7    A    
C2    C3    A    
C30   H16   S    
O7    Zn1   S    
C21   H2    S    
C29   H15   S    
C13   C14   S    
C24   O2    D    
C11   C13   S    
C12   C23   A    
C11   N2    A    
C29   C30   A    
C9    N1    A    
O9    Zn1   S    
C8    C11   A    
C22   H5    S    
C12   C21   A    
C10   C25   S    
C24   H6    S    
C15   O9    A    
C20   H17   S    
C18   C20   A    
C1    O6    A    
C2    C27   S    
C5    C6    S    
N2    Zn1   S    
C26   O4    D    
C33   H3    S    
C14   H14   S    
C7    C31   S    
C23   C28   A    
C7    C24   S    
C6    C22   S    
O11   Zn1   S    
C27   H9    S    
C3    C15   S    
C26   H8    S    
C25   H7    S    
C13   H13   S    
C19   C26   S    
C15   O10   A    
C13   H12   S    
C10   N2    A    
C8    C14   S    
C16   O12   A    
C16   O11   A    
C12   C30   A    
O10   Zn2   S    
C7    H10   S    
C17   C28   A    
C4    O8    A    
C1    C32   S    
C22   O13   D    
C19   C20   A    
C28   H1    S    
C2    C33   A    
C16   C17   S    
C5    C31   A    
C27   O5    D    
N1    Zn2   S    
