data_mof_unit_55427.cif
_audit_creation_date              2012-10-26T17:13:10-0400
_audit_creation_method            fapswitch 2.2
_symmetry_space_group_name_H-M    P1
_symmetry_Int_Tables_number       1
_space_group_crystal_system       triclinic
_cell_length_a                    16.903418
_cell_length_b                    16.738668
_cell_length_c                    16.884687
_cell_angle_alpha                 68.104752
_cell_angle_beta                  68.505359
_cell_angle_gamma                 68.100568
_cell_volume                      3966.9181431

loop_
_atom_site_label
_atom_site_type_symbol
_atom_type_description
_atom_site_fract_x
_atom_site_fract_y
_atom_site_fract_z
_atom_type_partial_charge
C1    C     C_R   0.308142 0.010519 0.432159 -0.001260
C2    C     C_R   0.691363 0.989760 0.568968 -0.003627
C3    C     C_R   0.002629 0.433138 0.311225 -0.006962
C4    C     C_R   0.996441 0.568292 0.689410 0.001263
C5    C     C_R   0.449757 0.322288 0.957732 -0.005148
C6    C     C_R   0.550491 0.677230 0.044174 0.010532
C7    C     C_R   0.553671 0.039638 0.677128 -0.004299
C8    C     C_R   0.445679 0.960911 0.323550 -0.002257
C9    C     C_R   0.689195 0.568368 0.996660 -0.011482
C10   C     C_R   0.311004 0.431799 0.003968 0.002795
C11   C     C_R   0.042606 0.677857 0.550740 -0.009313
C12   C     C_R   0.956946 0.322823 0.449941 0.005927
C13   C     C_R   0.450649 0.993613 0.451778 -0.033836
C14   C     C_R   0.548867 0.005675 0.549714 -0.033812
C15   C     C_R   0.991676 0.451353 0.452548 -0.035006
C16   C     C_R   0.007013 0.549962 0.548210 -0.034249
C17   C     C_R   0.452188 0.450038 0.993846 -0.033304
C18   C     C_R   0.547872 0.548957 0.009014 -0.034410
C19   C     C_R   0.029667 0.828357 0.564192 0.843049
C20   C     C_R   0.970754 0.171768 0.435728 0.809512
C21   C     C_R   0.830373 0.568643 0.018160 0.855692
C22   C     C_R   0.169989 0.431806 0.980894 0.821804
C23   C     C_R   0.565483 0.025752 0.828903 0.836138
C24   C     C_R   0.434128 0.975310 0.171041 0.827536
C25   C     C_R   0.435859 0.171794 0.970221 0.833066
C26   C     C_R   0.564066 0.828377 0.029816 0.819062
C27   C     C_R   0.981986 0.431583 0.169699 0.850702
C28   C     C_R   0.018832 0.568320 0.830235 0.823513
C29   C     C_R   0.167568 0.988074 0.430149 0.838765
C30   C     C_R   0.832035 0.013127 0.569620 0.831122
C31   C     C_R   0.401464 0.988018 0.402571 0.069630
C32   C     C_R   0.598028 0.011989 0.598521 0.069830
C33   C     C_R   0.983156 0.402681 0.404547 0.067520
C34   C     C_R   0.015854 0.598487 0.596172 0.067411
C35   C     C_R   0.404259 0.401585 0.984723 0.066859
C36   C     C_R   0.595903 0.597938 0.017202 0.070560
C37   C     C_R   0.260380 0.994233 0.388346 -0.162911
C38   C     C_R   0.738866 0.008371 0.611554 -0.168206
C39   C     C_R   0.979954 0.392046 0.265074 -0.161576
C40   C     C_R   0.020618 0.608672 0.735256 -0.183584
C41   C     C_R   0.400416 0.270700 0.955975 -0.147983
C42   C     C_R   0.599956 0.729782 0.044069 -0.193320
C43   C     C_R   0.604211 0.032417 0.732285 -0.162832
C44   C     C_R   0.394880 0.970350 0.267434 -0.163125
C45   C     C_R   0.735542 0.609556 0.019318 -0.157756
C46   C     C_R   0.265366 0.391928 0.978735 -0.184395
C47   C     C_R   0.043395 0.729859 0.600188 -0.149674
C48   C     C_R   0.956603 0.270687 0.400271 -0.162253
C49   C     C_R   0.460521 0.073039 0.697906 -0.220249
C50   C     C_R   0.538842 0.926971 0.303061 -0.223507
C51   C     C_R   0.069302 0.701949 0.457297 -0.222475
C52   C     C_R   0.930557 0.298511 0.543403 -0.225494
C53   C     C_R   0.732062 0.496558 0.957096 -0.220737
C54   C     C_R   0.267898 0.503301 0.044016 -0.223487
C55   C     C_R   0.265830 0.051241 0.502538 -0.218744
C56   C     C_R   0.733685 0.948217 0.499095 -0.220179
C57   C     C_R   0.543136 0.298283 0.931055 -0.215108
C58   C     C_R   0.457091 0.700859 0.071582 -0.216752
C59   C     C_R   0.041576 0.505292 0.268174 -0.223758
C60   C     C_R   0.956877 0.496501 0.732501 -0.223983
C61   C     C_R   0.302218 0.985084 0.301820 0.165305
C62   C     C_R   0.696162 0.021942 0.696697 0.167288
C63   C     C_R   0.953360 0.312552 0.311507 0.163935
C64   C     C_R   0.047416 0.688617 0.688687 0.166483
C65   C     C_R   0.312704 0.313198 0.949847 0.172791
C66   C     C_R   0.689229 0.689738 0.045768 0.176191
C67   C     C_R   0.685328 0.940224 0.451803 0.100462
C68   C     C_R   0.314178 0.058818 0.549974 0.101365
C69   C     C_R   0.952277 0.445953 0.685514 0.102940
C70   C     C_R   0.046052 0.555739 0.315234 0.106163
C71   C     C_R   0.409630 0.652205 0.064229 0.104328
C72   C     C_R   0.590483 0.346606 0.938955 0.105468
C73   C     C_R   0.587596 0.929318 0.353579 0.108290
C74   C     C_R   0.411827 0.070007 0.647860 0.107231
C75   C     C_R   0.314945 0.553258 0.049745 0.102493
C76   C     C_R   0.685053 0.445857 0.952766 0.105465
C77   C     C_R   0.938287 0.346883 0.590854 0.102708
C78   C     C_R   0.060844 0.654116 0.409882 0.104162
C79   C     C_R   0.728559 0.902326 0.380292 -0.198084
C80   C     C_R   0.270895 0.096606 0.621529 -0.199720
C81   C     C_R   0.924742 0.367693 0.730127 -0.199517
C82   C     C_R   0.073521 0.634025 0.270637 -0.199914
C83   C     C_R   0.317046 0.679205 0.087182 -0.197761
C84   C     C_R   0.683041 0.319478 0.916138 -0.199595
C85   C     C_R   0.680156 0.897193 0.331453 -0.201969
C86   C     C_R   0.319281 0.101927 0.670194 -0.200865
C87   C     C_R   0.270423 0.630777 0.078631 -0.196138
C88   C     C_R   0.729632 0.368089 0.924351 -0.195711
C89   C     C_R   0.916398 0.319173 0.683484 -0.204984
C90   C     C_R   0.082438 0.682114 0.317285 -0.205303
C91   C     C_R   0.543548 0.965058 0.426780 0.026154
C92   C     C_R   0.455942 0.034080 0.574794 0.025988
C93   C     C_R   0.969416 0.423402 0.545343 0.025832
C94   C     C_R   0.029304 0.577874 0.455412 0.025573
C95   C     C_R   0.407473 0.526666 0.024851 0.027377
C96   C     C_R   0.592552 0.472228 0.978149 0.026508
C97   C     C_R   0.592566 0.970925 0.475778 0.026453
C98   C     C_R   0.406946 0.028140 0.525883 0.026842
C99   C     C_R   0.455089 0.576189 0.032276 0.025005
C100  C     C_R   0.544962 0.422609 0.970924 0.025433
C101  C     C_R   0.976739 0.472895 0.592949 0.026628
C102  C     C_R   0.021779 0.528554 0.407812 0.026603
Cu1   Cu    Cu3+1 0.995180 0.995180 0.424630 0.897343
Cu2   Cu    Cu3+1 0.004820 0.004820 0.575370 0.893621
Cu3   Cu    Cu3+1 0.995180 0.424630 0.995180 0.905650
Cu4   Cu    Cu3+1 0.004820 0.575370 0.004820 0.888166
Cu5   Cu    Cu3+1 0.424630 0.995180 0.995180 0.914911
Cu6   Cu    Cu3+1 0.575370 0.004820 0.004820 0.904855
H1    H     H_    0.284209 0.130338 0.725821 0.135914
H2    H     H_    0.715251 0.868876 0.275770 0.136346
H3    H     H_    0.104539 0.742046 0.281039 0.130612
H4    H     H_    0.894463 0.259151 0.719782 0.129877
H5    H     H_    0.800350 0.343181 0.911780 0.124118
H6    H     H_    0.199722 0.655737 0.091171 0.122942
H7    H     H_    0.199443 0.121094 0.640578 0.139804
H8    H     H_    0.800006 0.877790 0.361277 0.141084
H9    H     H_    0.719362 0.259896 0.893427 0.131289
H10   H     H_    0.280725 0.738717 0.110009 0.130955
H11   H     H_    0.084766 0.659722 0.199948 0.122470
H12   H     H_    0.913176 0.342254 0.800835 0.122840
H13   H     H_    0.424918 0.104684 0.751029 0.162905
H14   H     H_    0.574446 0.895880 0.249559 0.155722
H15   H     H_    0.100561 0.755544 0.420169 0.163389
H16   H     H_    0.900065 0.244358 0.580515 0.162901
H17   H     H_    0.801843 0.480033 0.926000 0.158578
H18   H     H_    0.197907 0.520469 0.073980 0.161001
H19   H     H_    0.195394 0.081745 0.518841 0.171614
H20   H     H_    0.804135 0.917889 0.482730 0.173193
H21   H     H_    0.580229 0.244623 0.899836 0.160494
H22   H     H_    0.420139 0.754917 0.102292 0.158959
H23   H     H_    0.072165 0.522342 0.198241 0.159852
H24   H     H_    0.926155 0.479684 0.802400 0.160928
O1    O     O_R   0.124540 0.978640 0.385460 -0.585260
O2    O     O_R   0.875460 0.021360 0.614540 -0.584252
O3    O     O_R   0.978640 0.385460 0.124540 -0.559526
O4    O     O_R   0.021360 0.614540 0.875460 -0.583270
O5    O     O_R   0.385460 0.124540 0.978640 -0.573342
O6    O     O_R   0.614540 0.875460 0.021360 -0.583614
O7    O     O_R   0.614540 0.021360 0.875460 -0.560292
O8    O     O_R   0.385460 0.978640 0.124540 -0.561861
O9    O     O_R   0.875460 0.614540 0.021360 -0.563751
O10   O     O_R   0.124540 0.385460 0.978640 -0.579618
O11   O     O_R   0.021360 0.875460 0.614540 -0.568712
O12   O     O_R   0.978640 0.124540 0.385460 -0.590904
O13   O     O_R   0.013780 0.867370 0.487190 -0.608213
O14   O     O_R   0.986220 0.132630 0.512810 -0.601706
O15   O     O_R   0.867370 0.487190 0.013780 -0.603994
O16   O     O_R   0.132630 0.512810 0.986220 -0.606924
O17   O     O_R   0.487190 0.013780 0.867370 -0.596236
O18   O     O_R   0.512810 0.986220 0.132630 -0.597732
O19   O     O_R   0.512810 0.132630 0.986220 -0.596440
O20   O     O_R   0.487190 0.867370 0.013780 -0.589444
O21   O     O_R   0.986220 0.512810 0.132630 -0.606893
O22   O     O_R   0.013780 0.487190 0.867370 -0.607159
O23   O     O_R   0.132630 0.986220 0.512810 -0.596340
O24   O     O_R   0.867370 0.013780 0.487190 -0.598232
N1    N     N_2   0.249999 0.996319 0.246678 -0.390296
H25   H     H_    0.230710 0.942779 0.251234 0.257347
C103  C     C_3   0.203777 0.086455 0.206125 -0.604518
H26   H     H_    0.131657 0.098911 0.237506 0.223696
H27   H     H_    0.215453 0.093771 0.135178 0.214817
H28   H     H_    0.227480 0.137289 0.211802 0.209173
N2    N     N_2   0.745743 0.024219 0.748070 -0.388391
H29   H     H_    0.762704 0.082048 0.734317 0.250269
C104  C     C_3   0.795905 0.939998 0.795285 -0.596415
H30   H     H_    0.867476 0.935113 0.769520 0.215440
H31   H     H_    0.783797 0.881710 0.789563 0.206039
H32   H     H_    0.776818 0.937521 0.866163 0.219460
N3    N     N_2   0.919541 0.277706 0.269217 -0.396118
H33   H     H_    0.962060 0.223853 0.245675 0.268552
C105  C     C_3   0.827661 0.277561 0.306507 -0.617064
H34   H     H_    0.806633 0.258950 0.262259 0.218263
H35   H     H_    0.785612 0.345419 0.312321 0.223141
H36   H     H_    0.817871 0.228547 0.372730 0.219432
N4    N     N_2   0.095286 0.717692 0.722618 -0.405722
H37   H     H_    0.148211 0.668482 0.743206 0.248183
C106  C     C_3   0.046578 0.778599 0.778136 -0.542412
H38   H     H_    0.062438 0.749419 0.843143 0.203272
H39   H     H_    0.974099 0.794198 0.789262 0.208150
H40   H     H_    0.067579 0.841195 0.747060 0.219614
N5    N     N_2   0.282534 0.289942 0.894457 -0.420194
H41   H     H_    0.262244 0.342931 0.843508 0.245326
C107  C     C_3   0.228371 0.227844 0.934852 -0.555599
H42   H     H_    0.164925 0.258612 0.915903 0.204985
H43   H     H_    0.213685 0.207891 0.008027 0.219018
H44   H     H_    0.262733 0.167771 0.909697 0.213671
N6    N     N_2   0.726473 0.721672 0.088373 -0.400385
H45   H     H_    0.683940 0.739767 0.144715 0.236590
C108  C     C_3   0.783639 0.780260 0.034168 -0.552157
H46   H     H_    0.753382 0.847648 0.045622 0.198768
H47   H     H_    0.798780 0.786292 0.962670 0.211130
H48   H     H_    0.846193 0.753623 0.054290 0.217181

loop_
_geom_bond_atom_site_label_1
_geom_bond_atom_site_label_2
_ccdc_geom_bond_type
C27   O21   A    
C83   C87   A    
C105  H34   S    
C9    C45   A    
C104  H30   S    
C18   C96   A    
N3    H33   S    
C20   O12   A    
C11   C47   A    
N2    H29   S    
C50   H14   S    
C79   C85   A    
C12   C48   A    
Cu1   O12   S    
C60   H24   S    
C55   C68   A    
C75   C95   A    
N4    C106  S    
C65   N5    S    
N5    H41   S    
C24   O8    A    
C105  H35   S    
C81   H12   S    
C77   C89   A    
N1    H25   S    
Cu2   O2    S    
C16   C101  A    
Cu4   O9    S    
C21   O15   A    
C83   H10   S    
C23   O7    A    
N2    C104  S    
C58   H22   S    
C107  H43   S    
C19   C47   S    
C58   C71   A    
C63   N3    S    
C3    C33   A    
Cu3   O15   S    
C5    C35   A    
C1    C31   A    
C51   H15   S    
C30   C38   S    
C2    C32   A    
C74   C92   A    
C88   H5    S    
C108  H47   S    
C62   N2    S    
C6    C58   A    
C87   H6    S    
C80   C86   A    
Cu1   Cu2   S    
C16   C34   A    
C53   H17   S    
C4    C40   A    
C27   C39   S    
C84   H9    S    
C106  H39   S    
C10   C46   A    
C9    C36   A    
Cu5   Cu6   S    
C103  H27   S    
C10   C35   A    
C17   C95   A    
C7    C43   A    
C76   C88   A    
C71   C83   A    
C1    C37   A    
Cu3   O3    S    
C81   C89   A    
Cu4   O21   S    
C30   O24   A    
Cu3   O22   S    
C23   O17   A    
C3    C39   A    
N1    C103  S    
C66   N6    S    
C13   C91   A    
C28   O22   A    
C8    C31   A    
C22   O10   A    
C108  H46   S    
C82   H11   S    
C10   C54   A    
C29   O23   A    
C12   C52   A    
C14   C92   A    
C21   C45   S    
N5    C107  S    
C49   H13   S    
C7    C32   A    
C105  H36   S    
C4    C34   A    
C103  H28   S    
C92   C98   A    
Cu2   O14   S    
C86   H1    S    
C67   C79   A    
C7    C49   A    
C46   C65   A    
C85   H2    S    
C50   C73   A    
C93   C101  A    
Cu3   O10   S    
C57   C72   A    
C48   C63   A    
C41   C65   A    
C30   O2    A    
C71   C99   A    
C78   C90   A    
Cu5   O5    S    
C108  H48   S    
C25   O5    A    
C107  H42   S    
C61   N1    S    
Cu6   O19   S    
C54   H18   S    
C2    C38   A    
C103  H26   S    
C89   H4    S    
C80   H7    S    
C106  H40   S    
C59   H23   S    
C4    C60   A    
C29   O1    A    
Cu2   O11   S    
C19   O13   A    
C91   C97   A    
C64   N4    S    
C73   C91   A    
C72   C84   A    
C24   O18   A    
C69   C81   A    
Cu6   O18   S    
Cu5   O20   S    
C75   C87   A    
C22   C46   S    
C55   H19   S    
C104  H32   S    
C24   C44   S    
C20   O14   A    
C107  H44   S    
C53   C76   A    
C9    C53   A    
C18   C99   A    
C25   C41   S    
C68   C80   A    
C8    C50   A    
C47   C64   A    
Cu1   O13   S    
C14   C97   A    
C72   C100  A    
C57   H21   S    
C26   C42   S    
C5    C41   A    
C19   O11   A    
Cu5   O8    S    
C20   C48   S    
C28   O4    A    
C23   C43   S    
C90   H3    S    
C13   C31   A    
C11   C34   A    
C15   C102  A    
C84   C88   A    
C22   O16   A    
C26   O6    A    
C40   C64   A    
C15   C93   A    
Cu6   O7    S    
C37   C61   A    
C70   C102  A    
C69   C101  A    
C44   C61   A    
C74   C86   A    
C56   C67   A    
C39   C63   A    
Cu3   Cu4   S    
C16   C94   A    
C82   C90   A    
C5    C57   A    
C25   O19   A    
C27   O3    A    
C26   O20   A    
Cu1   O1    S    
C51   C78   A    
C21   O9    A    
C73   C85   A    
N4    H37   S    
C2    C56   A    
C76   C96   A    
Cu6   O6    S    
C52   H16   S    
C13   C98   A    
C60   C69   A    
C78   C94   A    
C96   C100  A    
C77   C93   A    
C6    C36   A    
C95   C99   A    
C56   H20   S    
Cu2   O23   S    
C1    C55   A    
C8    C44   A    
C70   C82   A    
C17   C100  A    
C68   C98   A    
N6    C108  S    
C11   C51   A    
C67   C97   A    
C59   C70   A    
C54   C75   A    
Cu5   O17   S    
Cu1   O24   S    
N6    H45   S    
C14   C32   A    
C94   C102  A    
Cu4   O16   S    
C104  H31   S    
C106  H38   S    
C6    C42   A    
C29   C37   S    
C45   C66   A    
C42   C66   A    
C28   C40   S    
C49   C74   A    
C17   C35   A    
C12   C33   A    
C79   H8    S    
C18   C36   A    
C15   C33   A    
C52   C77   A    
C43   C62   A    
Cu4   O4    S    
C38   C62   A    
N3    C105  S    
C3    C59   A    
