data_mof_unit_35178.cif
_audit_creation_date              2013-03-05T15:57:57-0500
_audit_creation_method            fapswitch 2.2
_symmetry_space_group_name_H-M    P1
_symmetry_Int_Tables_number       1
_space_group_crystal_system       triclinic
_cell_length_a                    15.074399
_cell_length_b                    14.97141
_cell_length_c                    16.903141
_cell_angle_alpha                 108.59935
_cell_angle_beta                  106.292571
_cell_angle_gamma                 109.107653
_cell_volume                      3084.6336277

loop_
_atom_site_label
_atom_site_type_symbol
_atom_site_description
_atom_site_fract_x
_atom_site_fract_y
_atom_site_fract_z
_atom_type_partial_charge
C1    C     C_R   0.091679 0.278235 0.022163 -0.110646
C2    C     C_R   0.916651 0.712804 0.919892 -0.127675
H1    H     H_    0.172939 0.297709 0.048721 0.102066
H2    H     H_    0.839492 0.685589 0.868745 0.114776
N1    N     N_R   0.055660 0.348550 0.045620 -0.042499
N2    N     N_R   0.944340 0.651450 0.954380 -0.043011
C3    C     C_R   0.936422 0.450538 0.734761 -0.116395
C4    C     C_R   0.064848 0.480338 0.253230 -0.154079
H3    H     H_    0.858054 0.400794 0.681380 0.116786
H4    H     H_    0.143372 0.499580 0.295438 0.102578
N3    N     N_R   0.960830 0.507850 0.823700 -0.045053
N4    N     N_R   0.039170 0.492150 0.176300 -0.040996
C5    C     C_R   0.720672 0.214538 0.822982 -0.135164
C6    C     C_R   0.223668 0.797772 0.187235 -0.118860
H5    H     H_    0.690844 0.161380 0.850348 0.090587
H6    H     H_    0.233993 0.861420 0.168383 0.102874
N5    N     N_R   0.811290 0.303410 0.871650 -0.040643
N6    N     N_R   0.188710 0.696590 0.128350 -0.042094
C7    C     C_R   0.300771 0.598582 0.006202 -0.154818
C8    C     C_R   0.736851 0.461981 0.047175 -0.138748
H7    H     H_    0.328428 0.658616 0.984313 0.103245
H8    H     H_    0.713960 0.420863 0.085818 0.114862
N7    N     N_R   0.205200 0.552990 0.997670 -0.038734
N8    N     N_R   0.794800 0.447010 0.002330 -0.043329
C9    C     C_R   0.727078 0.310593 0.746575 -0.095878
C10   C     C_R   0.217746 0.702280 0.265332 -0.118065
H9    H     H_    0.704153 0.347838 0.704977 0.100287
H10   H     H_    0.222662 0.676839 0.318618 0.101230
N9    N     N_R   0.814800 0.361830 0.823700 -0.043013
N10   N     N_R   0.185200 0.638170 0.176300 -0.040885
C11   C     C_R   0.295776 0.500561 0.080817 -0.130177
C12   C     C_R   0.750200 0.563009 0.973268 -0.116990
H11   H     H_    0.318238 0.467188 0.126355 0.106271
H12   H     H_    0.743172 0.617786 0.946171 0.117557
N11   N     N_R   0.201680 0.494570 0.045620 -0.041231
N12   N     N_R   0.798320 0.505430 0.954380 -0.044386
C13   C     C_R   0.109928 0.535843 0.812850 -0.125791
C14   C     C_R   0.892516 0.396662 0.176875 -0.124244
H13   H     H_    0.192157 0.564748 0.832283 0.097761
H14   H     H_    0.812350 0.339068 0.149267 0.096449
N13   N     N_R   0.068420 0.560530 0.871650 -0.044228
N14   N     N_R   0.931580 0.439470 0.128350 -0.043257
C15   C     C_R   0.917877 0.193303 0.947675 -0.119537
C16   C     C_R   0.087818 0.795978 0.999404 -0.145731
H15   H     H_    0.837778 0.134311 0.907813 0.113650
H16   H     H_    0.169326 0.842903 0.023539 0.123198
N15   N     N_R   0.948070 0.295860 0.997670 -0.044771
N16   N     N_R   0.051930 0.704140 0.002330 -0.043223
C17   C     C_R   0.006565 0.179335 0.958483 0.055367
C18   C     C_R   0.005822 0.804517 0.946127 0.070023
C19   C     C_R   0.028864 0.464668 0.726007 0.099367
C20   C     C_R   0.974516 0.419810 0.255615 0.109468
C21   C     C_R   0.665298 0.217162 0.743885 0.087779
C22   C     C_R   0.239995 0.803627 0.274048 0.060460
C23   C     C_R   0.359092 0.566504 0.057258 0.072193
C24   C     C_R   0.707433 0.534193 0.028506 0.066770
C25   C     C_R   0.919998 0.887811 0.865850 -0.213827
C26   C     C_R   0.104517 0.075708 0.955986 -0.222713
H17   H     H_    0.848534 0.814364 0.827486 0.148078
H18   H     H_    0.177212 0.147509 0.989629 0.134799
H19   H     H_    0.918579 0.069441 0.745487 0.145665
H20   H     H_    0.264212 0.099470 0.125009 0.157590
C27   C     C_R   0.012392 0.890923 0.918901 0.046594
C28   C     C_R   0.009807 0.077342 0.921045 0.047149
C29   C     C_R   0.107371 0.982695 0.952129 0.052522
C30   C     C_R   0.918928 0.979611 0.862044 0.049700
C31   C     C_R   0.841025 0.020800 0.735016 -0.187489
C32   C     C_R   0.283746 0.051908 0.076183 -0.231118
Ni1   Ni    Ni4+2 0.119340 0.493420 0.109960 0.224400
Ni2   Ni    Ni4+2 0.880660 0.506580 0.890040 0.224880
Ni3   Ni    Ni4+2 0.872590 0.372590 0.000000 0.213668
Ni4   Ni    Ni4+2 0.127410 0.627410 0.000000 0.218566
C33   C     C_R   0.654630 0.943680 0.648904 -0.170635
C34   C     C_R   0.405711 0.990234 0.044485 -0.162766
H21   H     H_    0.509655 0.659502 0.460772 0.190441
H22   H     H_    0.464070 0.368944 0.607574 0.182122
C35   C     C_R   0.522886 0.718560 0.362210 -0.132190
C36   C     C_R   0.464458 0.344520 0.726062 -0.161978
H23   H     H_    0.524025 0.792199 0.401657 0.156918
H24   H     H_    0.427471 0.259125 0.688100 0.157333
C37   C     C_R   0.529410 0.698779 0.278099 -0.138610
C38   C     C_R   0.490521 0.392073 0.820239 -0.151210
H25   H     H_    0.535843 0.758010 0.253341 0.151765
H26   H     H_    0.474026 0.342435 0.854176 0.141538
C39   C     C_R   0.528234 0.603639 0.226292 -0.110477
C40   C     C_R   0.533484 0.502560 0.869791 -0.085067
C41   C     C_R   0.518626 0.526402 0.259607 0.437550
C42   C     C_R   0.551334 0.566271 0.823436 0.425058
C43   C     C_R   0.512669 0.548032 0.344659 0.271737
C44   C     C_R   0.527456 0.516947 0.729031 0.240212
C45   C     C_R   0.514918 0.643613 0.395560 -0.263157
C46   C     C_R   0.483845 0.406647 0.680656 -0.244964
C47   C     C_R   0.620875 0.576263 0.126973 -0.231711
C48   C     C_R   0.467932 0.564745 0.979750 -0.228261
H27   H     H_    0.681603 0.581597 0.183778 0.155399
H28   H     H_    0.406104 0.554194 0.920325 0.138780
C49   C     C_R   0.624920 0.554188 0.041505 0.055649
C50   C     C_R   0.459069 0.579336 0.062237 0.058879
C51   C     C_R   0.547045 0.547025 0.966794 0.034075
C52   C     C_R   0.535999 0.586741 0.137634 0.047363
C53   C     C_R   0.755152 0.008074 0.664666 0.272624
C54   C     C_R   0.380284 0.052484 0.106753 0.275025
C55   C     C_R   0.968309 0.377747 0.322702 0.055869
C56   C     C_R   0.039319 0.419800 0.640049 0.060148
C57   C     C_R   0.146049 0.440343 0.556318 0.541567
C58   C     C_R   0.865015 0.297069 0.391643 0.557022
C59   C     C_R   0.137505 0.453954 0.639284 -0.346421
C60   C     C_R   0.871626 0.316028 0.316958 -0.339471
C61   C     C_R   0.950134 0.354408 0.556356 -0.157693
C62   C     C_R   0.059478 0.407326 0.397891 -0.199047
C63   C     C_R   0.956229 0.344767 0.473523 -0.010123
C64   C     C_R   0.054626 0.394371 0.474831 0.001050
H29   H     H_    0.134670 0.450309 0.401289 0.181211
H30   H     H_    0.874665 0.321397 0.556170 0.194249
H31   H     H_    0.800608 0.287427 0.257171 0.138558
H32   H     H_    0.207700 0.497944 0.703101 0.128111
C65   C     C_R   0.557481 0.143579 0.676214 0.127033
C66   C     C_R   0.281370 0.899944 0.359857 0.113448
C67   C     C_R   0.390097 0.089408 0.443535 -0.169374
C68   C     C_R   0.407578 0.972279 0.607125 -0.230251
C69   C     C_R   0.319315 0.999710 0.361009 -0.137895
C70   C     C_R   0.499829 0.052886 0.682252 -0.192754
C71   C     C_R   0.298919 0.893585 0.443425 -0.272945
C72   C     C_R   0.514847 0.159071 0.599688 -0.265224
C73   C     C_R   0.373398 0.982143 0.525842 0.191713
C74   C     C_R   0.423895 0.078829 0.524312 0.156813
H33   H     H_    0.555679 0.229456 0.594267 0.139302
H34   H     H_    0.264981 0.818192 0.444147 0.125078
H35   H     H_    0.528965 0.040183 0.741705 0.126698
H36   H     H_    0.302288 0.008232 0.298132 0.140507
H37   H     H_    0.425882 0.164441 0.442426 0.169868
H38   H     H_    0.368300 0.899158 0.609872 0.137443
H39   H     H_    0.588123 0.932355 0.593554 0.147003
H40   H     H_    0.480386 0.990425 0.068089 0.137468
C75   C     C_R   0.639737 0.894335 0.704941 -0.117485
C76   C     C_R   0.334378 0.927112 0.951568 -0.159089
H41   H     H_    0.561674 0.845770 0.693338 0.154593
H42   H     H_    0.354096 0.878903 0.903484 0.132978
C77   C     C_R   0.725353 0.907025 0.775543 -0.128439
C78   C     C_R   0.237161 0.925323 0.920896 -0.142326
H43   H     H_    0.712305 0.868135 0.818274 0.162906
H44   H     H_    0.181923 0.875196 0.849054 0.127459
C79   C     C_R   0.826981 0.969813 0.790817 0.055936
C80   C     C_R   0.210984 0.986938 0.983404 0.066962
O1    O     O_3   0.511879 0.428822 0.210855 -0.724707
H45   H     H_    0.498670 0.415703 0.146517 0.317566
O2    O     O_3   0.592086 0.675405 0.867253 -0.762141
H46   H     H_    0.611853 0.700628 0.934247 0.319222
I1    I     I_    0.495368 0.434395 0.395645 -0.275816
I2    I     I_    0.555548 0.607892 0.657443 -0.398740
O3    O     O_3   0.242053 0.479343 0.554835 -0.749523
H47   H     H_    0.297444 0.508791 0.617728 0.331840
O4    O     O_3   0.770230 0.239624 0.388497 -0.725557
H48   H     H_    0.715658 0.208276 0.324941 0.344092
I3    I     I_    0.777101 0.085809 0.582147 -0.417050
I4    I     I_    0.485285 0.144740 0.247430 -0.392997

loop_
_geom_bond_atom_site_label_1
_geom_bond_atom_site_label_2
_geom_bond_distance
_ccdc_geom_bond_type
N4    Ni1   1.864733 S    
C27   C29   1.421890 A    
C20   C55   1.472332 S    
C54   I4    2.104574 S    
N5    N9    1.367721 A    
C6    N6    1.335813 A    
C7    N7    1.318746 A    
O2    H46   0.988920 S    
C69   H36   1.080091 S    
C76   C78   1.398682 A    
C31   C79   1.408083 A    
O1    H45   0.988719 S    
N3    Ni2   1.864730 S    
C3    N3    1.338570 A    
C57   C59   1.400364 A    
C66   C71   1.402497 A    
C31   C53   1.398703 A    
N8    N12   1.367722 A    
N2    N16   1.388021 A    
C55   C62   1.400929 A    
C1    N1    1.337522 A    
C12   N12   1.317188 A    
C60   H31   1.080533 S    
C7    H7    1.082539 S    
C65   C72   1.400927 A    
C32   C54   1.397096 A    
C14   N14   1.337733 A    
C61   C63   1.393422 A    
C56   C61   1.398178 A    
C13   C19   1.388077 A    
C21   C65   1.464382 S    
C25   H17   1.080657 S    
C14   C20   1.386255 A    
C53   I3    2.109913 S    
C26   H18   1.081198 S    
C40   C42   1.422393 A    
C23   C50   1.429786 S    
N2    Ni2   1.831640 S    
H19   C31   1.082911 S    
N4    N14   1.388021 A    
C2    C18   1.399155 A    
C37   H25   1.083557 S    
C77   C79   1.406313 A    
C8    N8    1.333891 A    
C16   H16   1.067923 S    
C34   C76   1.398710 A    
N1    Ni1   1.831641 S    
O3    H47   0.991815 S    
C11   H11   1.080106 S    
C32   C80   1.404265 A    
C55   C60   1.403229 A    
N6    N10   1.367721 A    
C43   C45   1.398433 A    
C15   N15   1.333338 A    
C25   C30   1.401295 A    
C70   H35   1.080725 S    
H21   C45   1.082622 S    
C34   C54   1.399204 A    
C33   C53   1.396352 A    
C47   H27   1.084621 S    
C17   C28   1.477944 S    
C9    N9    1.329398 A    
C18   C27   1.488803 S    
C2    N2    1.346806 A    
C24   C49   1.428350 S    
N16   Ni4   1.862211 S    
C10   C22   1.390302 A    
C49   C51   1.408460 A    
N12   Ni2   1.865224 S    
C25   C27   1.405784 A    
C5    C21   1.383709 A    
C58   C63   1.405353 A    
C67   C69   1.385492 A    
N6    Ni4   1.857046 S    
C44   C46   1.397878 A    
C57   O3    1.382905 S    
C39   C41   1.423633 A    
C33   C75   1.396603 A    
C76   H42   1.082437 S    
C29   C80   1.474239 S    
C68   C73   1.398949 A    
C15   C17   1.390981 A    
C30   C79   1.486636 S    
C26   C28   1.395242 A    
C36   C46   1.393874 A    
C19   C56   1.470489 S    
C38   C40   1.402731 A    
C1    H1    1.077588 S    
C66   C69   1.405127 A    
C12   H12   1.078335 S    
C2    H2    1.080335 S    
C65   C70   1.405317 A    
N1    N15   1.388020 A    
C36   C38   1.392248 A    
C26   C29   1.388568 A    
C67   H37   1.084272 S    
C47   C52   1.391694 A    
C35   C37   1.395587 A    
C4    N4    1.334594 A    
C58   O4    1.381211 S    
C35   H23   1.082877 S    
C48   H28   1.086134 S    
C40   C51   1.483224 S    
C15   H15   1.075967 S    
C62   H29   1.079127 S    
N15   Ni3   1.862210 S    
C61   H30   1.080465 S    
H22   C46   1.082548 S    
N13   Ni4   1.857159 S    
C6    C22   1.386636 A    
C57   C64   1.406906 A    
C42   C44   1.404732 A    
C10   N10   1.335202 A    
C38   H26   1.083584 S    
C5    H5    1.080178 S    
C73   C74   1.410315 A    
C6    H6    1.076200 S    
C8    H8    1.080996 S    
C47   C49   1.399310 A    
N10   Ni1   1.831965 S    
C68   C70   1.391288 A    
C72   C74   1.382555 A    
N9    Ni2   1.831963 S    
C7    C23   1.365076 A    
C75   H41   1.082244 S    
C4    C20   1.386817 A    
C35   C45   1.394443 A    
C41   O1    1.382549 S    
C63   C64   1.414951 A    
C68   H38   1.083804 S    
C10   H10   1.077824 S    
N7    Ni4   1.863141 S    
C78   C80   1.404820 A    
C9    C21   1.381594 A    
C44   I2    2.111502 S    
N5    Ni3   1.857047 S    
C78   H44   1.083240 S    
H20   C32   1.083343 S    
C9    H9    1.079204 S    
C75   C77   1.398787 A    
C50   C52   1.406351 A    
C5    N5    1.339557 A    
C22   C66   1.463415 S    
C3    C19   1.396851 A    
C13   H13   1.077661 S    
C39   C52   1.483055 S    
C14   H14   1.079976 S    
C77   H43   1.082775 S    
C71   H34   1.081735 S    
C58   C60   1.401723 A    
C48   C51   1.362810 A    
C34   H40   1.082379 S    
C11   N11   1.335343 A    
C43   I1    2.115696 S    
N14   Ni3   1.857158 S    
C42   O2    1.382452 S    
N3    N13   1.388020 A    
C36   H24   1.079999 S    
C8    C24   1.384930 A    
C13   N13   1.334905 A    
N7    N11   1.367719 A    
C62   C64   1.392601 A    
C59   H32   1.080365 S    
C71   C73   1.388796 A    
C67   C74   1.396215 A    
C3    H3    1.077797 S    
N11   Ni1   1.865223 S    
C16   C18   1.381111 A    
C4    H4    1.079322 S    
C33   H39   1.081858 S    
C72   H33   1.079936 S    
C41   C43   1.405069 A    
C48   C50   1.392451 A    
C11   C23   1.375269 A    
O4    H48   0.990383 S    
C1    C17   1.400676 A    
C12   C24   1.373364 A    
C56   C59   1.404206 A    
C37   C39   1.405394 A    
C16   N16   1.325516 A    
N8    Ni3   1.863141 S    
C28   C30   1.415103 A    
