data_mof_unit_37460.cif
_audit_creation_date              2012-10-26T18:44:08-0400
_audit_creation_method            fapswitch 2.2
_symmetry_space_group_name_H-M    P1
_symmetry_Int_Tables_number       1
_space_group_crystal_system       triclinic
_cell_length_a                    19.427864
_cell_length_b                    9.080214
_cell_length_c                    7.766264
_cell_angle_alpha                 89.911986
_cell_angle_beta                  89.999878
_cell_angle_gamma                 90.000735
_cell_volume                      1370.03851285

loop_
_atom_site_label
_atom_site_type_symbol
_atom_type_description
_atom_site_fract_x
_atom_site_fract_y
_atom_site_fract_z
_atom_type_partial_charge
Br1   Br    Br    0.305783 0.735503 0.751828 -0.483761
Br2   Br    Br    0.696941 0.693658 0.199365 -0.475724
Br3   Br    Br    0.696986 0.306418 0.800622 -0.475729
Br4   Br    Br    0.305804 0.264459 0.248174 -0.483761
C1    C     C_R   0.499974 0.219967 0.500081 0.567909
C2    C     C_R   0.255354 0.403295 0.390318 0.124686
C3    C     C_R   0.182755 0.595392 0.613043 0.007555
C4    C     C_R   0.818477 0.573396 0.366130 0.007996
C5    C     C_R   0.818494 0.426719 0.633778 0.007981
C6    C     C_R   0.182764 0.404598 0.386844 0.007560
C7    C     C_R   0.146348 0.500000 0.499925 -0.002608
C8    C     C_R   0.854856 0.500051 0.499934 -0.003831
C9    C     C_R   0.291414 0.499984 0.499992 0.024812
C10   C     C_R   0.709377 0.500041 0.499993 0.018816
C11   C     C_R   0.930930 0.500034 0.499893 0.330282
C12   C     C_R   0.499974 0.780033 0.499919 0.567908
C13   C     C_R   0.070323 0.500010 0.499893 0.329471
C14   C     C_3   0.145032 0.691339 0.743663 -0.234277
C15   C     C_3   0.136514 0.849843 0.679554 -0.394994
C16   C     C_3   0.856375 0.641341 0.213144 -0.238247
C17   C     C_3   0.866796 0.807536 0.234120 -0.386817
C18   C     C_3   0.856418 0.358725 0.786690 -0.238252
C19   C     C_3   0.866844 0.192542 0.765595 -0.386802
C20   C     C_3   0.145055 0.308667 0.256184 -0.234279
C21   C     C_3   0.136517 0.150163 0.320270 -0.395008
C22   C     C_R   0.367194 0.499994 0.499999 0.596244
C23   C     C_R   0.633091 0.500012 0.499999 0.586773
C24   C     C_1   0.499943 0.065382 0.500111 0.016946
C25   C     C_1   0.499943 0.934618 0.499889 0.016947
C26   C     C_R   0.255345 0.596677 0.609636 0.124682
C27   C     C_R   0.745863 0.577054 0.370188 0.130722
C28   C     C_R   0.745881 0.423047 0.629780 0.130774
Cu1   Cu    Cu3+1 0.500000 0.500000 0.669080 1.161195
Cu2   Cu    Cu3+1 0.500000 0.500000 0.330920 1.161198
H1    H     H_    0.187103 0.904861 0.664926 0.201068
H2    H     H_    0.827986 0.619664 0.091773 0.180248
H3    H     H_    0.817079 0.133024 0.769799 0.201772
H4    H     H_    0.892295 0.166654 0.641603 0.179392
H5    H     H_    0.899564 0.150671 0.872106 0.135558
H6    H     H_    0.907085 0.412013 0.807938 0.148522
H7    H     H_    0.828059 0.380350 0.908106 0.180192
H8    H     H_    0.187104 0.095149 0.335031 0.201066
H9    H     H_    0.109856 0.147152 0.446438 0.174003
H10   H     H_    0.105585 0.086573 0.225924 0.140273
H11   H     H_    0.093774 0.354417 0.223334 0.152284
H12   H     H_    0.109902 0.852852 0.553321 0.174004
H13   H     H_    0.172878 0.308474 0.131325 0.186847
H14   H     H_    0.105542 0.913431 0.773826 0.140258
H15   H     H_    0.093743 0.645602 0.776466 0.152298
H16   H     H_    0.172835 0.691532 0.868551 0.186828
H17   H     H_    0.817003 0.866961 0.230589 0.201868
H18   H     H_    0.892518 0.833469 0.357787 0.179340
H19   H     H_    0.899290 0.849492 0.127156 0.135559
H20   H     H_    0.907039 0.588052 0.191856 0.148506
N1    N     N_1   0.500000 0.500000 0.076820 -0.034005
N2    N     N_1   0.500000 0.500000 0.923180 -0.034011
N3    N     N_R   0.034841 0.627651 0.482375 -0.248166
N4    N     N_R   0.966427 0.372221 0.515379 -0.247800
N5    N     N_R   0.966437 0.627833 0.484397 -0.247821
N6    N     N_R   0.034830 0.372380 0.517399 -0.248158
O1    O     O_R   0.500000 0.288390 0.642760 -0.489646
O2    O     O_R   0.500000 0.711610 0.357240 -0.489634
O3    O     O_R   0.500000 0.711610 0.642760 -0.487063
O4    O     O_R   0.500000 0.288390 0.357240 -0.487056
O5    O     O_R   0.400140 0.500000 0.642830 -0.470858
O6    O     O_R   0.599860 0.500000 0.357170 -0.465586
O7    O     O_R   0.599860 0.500000 0.642830 -0.465585
O8    O     O_R   0.400140 0.500000 0.357170 -0.470864

loop_
_geom_bond_atom_site_label_1
_geom_bond_atom_site_label_2
_ccdc_geom_bond_type
C21   H8    S    
C2    C6    A    
C17   H19   S    
N1    N2    T    
C12   O3    A    
C19   H3    S    
C10   C23   S    
C1    C24   S    
C8    C11   S    
Cu1   O3    S    
C10   C27   A    
C4    C8    A    
C3    C14   S    
C18   H6    S    
C21   H9    S    
Cu1   N2    S    
Cu2   O4    S    
Cu1   Cu2   S    
C15   H12   S    
Cu1   O5    S    
Cu2   N1    S    
C23   O6    A    
C15   H1    S    
C16   C17   S    
C2    C9    A    
C3    C7    A    
C20   H13   S    
Cu2   O6    S    
C1    O4    A    
C4    C16   S    
C12   O2    A    
C19   H5    S    
C20   H11   S    
C21   H10   S    
Cu1   O1    S    
C24   C25   T    
C11   N4    A    
C22   O8    A    
C4    C27   A    
Br3   C28   S    
C5    C18   S    
C5    C8    A    
C13   N3    A    
C9    C22   S    
N3    N5    A    
C18   H7    S    
C23   O7    A    
C6    C7    A    
C13   N6    A    
N4    N6    A    
C19   H4    S    
Cu2   O2    S    
C9    C26   A    
C17   H17   S    
C20   C21   S    
C14   H16   S    
C16   H20   S    
C14   C15   S    
Cu2   O8    S    
C3    C26   A    
C18   C19   S    
Br1   C26   S    
C11   N5    A    
C5    C28   A    
C6    C20   S    
C12   C25   S    
C15   H14   S    
C22   O5    A    
Br4   C2    S    
C17   H18   S    
C7    C13   S    
Cu1   O7    S    
C1    O1    A    
C14   H15   S    
C10   C28   A    
Br2   C27   S    
C16   H2    S    
