data_mof_unit_23754.cif
_audit_creation_date              2012-12-11T15:47:03-0500
_audit_creation_method            fapswitch 2.2
_symmetry_space_group_name_H-M    P1
_symmetry_Int_Tables_number       1
_space_group_crystal_system       triclinic
_cell_length_a                    19.86348
_cell_length_b                    7.244877
_cell_length_c                    14.137738
_cell_angle_alpha                 90.000072
_cell_angle_beta                  102.760938
_cell_angle_gamma                 89.99988
_cell_volume                      1984.28743968

loop_
_atom_site_label
_atom_site_type_symbol
_atom_type_description
_atom_site_fract_x
_atom_site_fract_y
_atom_site_fract_z
_atom_type_partial_charge
O1    O     O_R   0.449560 0.506810 0.599700 -0.554112
O2    O     O_R   0.550440 0.006810 0.400300 -0.554112
O3    O     O_R   0.587960 0.180060 0.595760 -0.548045
O4    O     O_R   0.412040 0.680060 0.404240 -0.548027
C1    C     C_R   0.614902 0.344432 0.617411 0.711009
C2    C     C_R   0.385098 0.844432 0.382588 0.711040
O5    O     O_R   0.452380 0.177430 0.611700 -0.537083
O6    O     O_R   0.547620 0.677430 0.388300 -0.537094
O7    O     O_R   0.413900 0.001890 0.416350 -0.553495
O8    O     O_R   0.586100 0.501890 0.583650 -0.553493
C3    C     C_R   0.436760 0.346581 0.636892 0.762435
C4    C     C_R   0.563241 0.846580 0.363108 0.762411
O9    O     O_3   0.487530 0.337490 0.435890 -0.391589
O10   O     O_3   0.512470 0.837490 0.564110 -0.391589
V1    V     V_3+5 0.502310 0.064660 0.511890 1.357788
V2    V     V_3+5 0.497690 0.564660 0.488110 1.357789
C5    C     C_R   0.609189 0.942462 0.123907 0.067611
C6    C     C_R   0.390813 0.442466 0.876094 0.067609
H1    H     H_    0.699777 0.025244 0.012633 0.145717
H2    H     H_    0.300225 0.525248 0.987369 0.145715
C7    C     C_R   0.602140 0.860918 0.287148 -0.163653
C8    C     C_R   0.397861 0.360922 0.712853 -0.163652
C9    C     C_R   0.935031 0.789979 0.305480 -0.263964
C10   C     C_R   0.064972 0.289969 0.694523 -0.263983
C11   C     C_R   0.899272 0.739847 0.374942 -0.197050
C12   C     C_R   0.100732 0.239827 0.625064 -0.197007
C13   C     C_R   0.827293 0.752863 0.356683 0.393638
C14   C     C_R   0.172712 0.252843 0.643324 0.393631
C15   C     C_R   0.789345 0.835150 0.268453 -0.004007
C16   C     C_R   0.210658 0.335142 0.731552 -0.004078
C17   C     C_R   0.827453 0.882623 0.197115 0.018993
C18   C     C_R   0.172549 0.382620 0.802889 0.019012
C19   C     C_R   0.715596 0.864121 0.245367 0.051558
C20   C     C_R   0.284406 0.364121 0.754637 0.051550
C21   C     C_R   0.682295 0.926282 0.150800 0.077127
C22   C     C_R   0.317707 0.426285 0.849202 0.077162
C23   C     C_R   0.722337 0.971134 0.083887 -0.183651
C24   C     C_R   0.277665 0.471136 0.916116 -0.183654
C25   C     C_R   0.792965 0.951277 0.106707 -0.183412
C26   C     C_R   0.207037 0.451279 0.893296 -0.183410
C27   C     C_R   0.673565 0.837537 0.312697 -0.314169
C28   C     C_R   0.326436 0.337543 0.687305 -0.314184
C29   C     C_R   0.569332 0.917577 0.193862 0.414953
C30   C     C_R   0.430670 0.417580 0.806139 0.414941
C31   C     C_R   0.899657 0.854892 0.215676 -0.058689
C32   C     C_R   0.100346 0.354890 0.784327 -0.058689
H3    H     H_    0.694466 0.811894 0.388152 0.198327
H4    H     H_    0.305534 0.311895 0.611850 0.198325
H5    H     H_    0.990361 0.769442 0.320212 0.118289
H6    H     H_    0.009642 0.269433 0.679790 0.118289
H7    H     H_    0.927385 0.678537 0.441864 0.145450
H8    H     H_    0.072621 0.178507 0.558144 0.145460
H9    H     H_    0.820276 0.989227 0.051299 0.136020
H10   H     H_    0.179725 0.489230 0.948703 0.136019
C33   C     C_R   0.222801 0.018992 0.208910 -0.220320
C34   C     C_R   0.777198 0.518990 0.791092 -0.220322
H11   H     H_    0.204057 0.149263 0.175735 0.178134
H12   H     H_    0.795940 0.649258 0.824272 0.178132
C35   C     C_R   0.287766 0.016235 0.272545 -0.164942
C36   C     C_R   0.712232 0.516233 0.727458 -0.164951
H13   H     H_    0.316095 0.144305 0.287728 0.142708
H14   H     H_    0.683901 0.644300 0.712280 0.142717
C37   C     C_R   0.315939 0.850254 0.314953 -0.094292
C38   C     C_R   0.684062 0.350254 0.685044 -0.094298
C39   C     C_R   0.276333 0.688349 0.294585 -0.219635
C40   C     C_R   0.723671 0.188352 0.705403 -0.219621
H15   H     H_    0.295730 0.558592 0.327830 0.133089
H16   H     H_    0.704277 0.058600 0.672149 0.133108
C41   C     C_R   0.209672 0.691281 0.235202 0.413742
C42   C     C_R   0.790331 0.191284 0.764790 0.413747
C43   C     C_R   0.182800 0.856994 0.188106 -0.146785
C44   C     C_R   0.817200 0.356994 0.811892 -0.146788
O11   O     O_R   0.913920 0.203370 0.916260 -0.514163
O12   O     O_R   0.086080 0.703370 0.083740 -0.514159
O13   O     O_R   0.047620 0.535540 0.888290 -0.547364
O14   O     O_R   0.952380 0.035540 0.111710 -0.547365
C45   C     C_R   0.062305 0.367643 0.861796 0.684779
C46   C     C_R   0.937696 0.867643 0.138205 0.684782
O15   O     O_R   0.912040 0.532780 0.904220 -0.554678
O16   O     O_R   0.087960 0.032780 0.095780 -0.554682
O17   O     O_R   0.949550 0.708160 0.099720 -0.538862
O18   O     O_R   0.050450 0.208160 0.900280 -0.538864
C47   C     C_R   0.885772 0.364286 0.881949 0.679755
C48   C     C_R   0.114228 0.864286 0.118050 0.679757
O19   O     O_3   0.012480 0.375300 0.064060 -0.379631
O20   O     O_3   0.987520 0.875300 0.935940 -0.379629
V3    V     V_3+5 0.997690 0.648180 0.988110 1.434717
V4    V     V_3+5 0.002310 0.148180 0.011890 1.434710
O21   O     O_3   0.497659 0.925461 0.169986 -0.581872
C49   C     C_3   0.473376 0.107108 0.144519 -0.026627
H17   H     H_    0.422848 0.091875 0.092688 0.164714
H18   H     H_    0.507465 0.190891 0.108839 0.141672
C50   C     C_3   0.463065 0.211592 0.233485 -0.265594
H19   H     H_    0.439041 0.115709 0.275980 0.232196
H20   H     H_    0.514279 0.256634 0.275927 0.210764
C51   C     C_3   0.416044 0.379705 0.210630 -0.816783
H21   H     H_    0.442375 0.492030 0.179556 0.252135
H22   H     H_    0.403738 0.431840 0.278267 0.255452
H23   H     H_    0.366197 0.342428 0.161432 0.212548
O22   O     O_3   0.502342 0.425464 0.830013 -0.581872
C52   C     C_3   0.526626 0.607111 0.855481 -0.026625
H24   H     H_    0.577154 0.591877 0.907311 0.164715
H25   H     H_    0.492537 0.690893 0.891163 0.141672
C53   C     C_3   0.536935 0.711597 0.766514 -0.265601
H26   H     H_    0.560958 0.615715 0.724018 0.232200
H27   H     H_    0.485720 0.756640 0.724074 0.210749
C54   C     C_3   0.583956 0.879709 0.789369 -0.816778
H28   H     H_    0.557625 0.992034 0.820445 0.252134
H29   H     H_    0.596261 0.931846 0.721733 0.255455
H30   H     H_    0.633803 0.842432 0.838567 0.212545
O23   O     O_3   0.171826 0.529603 0.225076 -0.572478
C55   C     C_3   0.129311 0.530632 0.293248 0.075271
H31   H     H_    0.084139 0.621967 0.266578 0.121039
H32   H     H_    0.157315 0.580055 0.366233 0.105582
C56   C     C_3   0.104023 0.334590 0.305350 -0.265162
H33   H     H_    0.085565 0.269981 0.233254 0.229406
H34   H     H_    0.147564 0.250489 0.346609 0.197213
C57   C     C_3   0.045037 0.334086 0.358542 -0.840040
H35   H     H_    0.060458 0.408618 0.428618 0.232225
H36   H     H_    0.031383 0.189568 0.372637 0.227052
H37   H     H_    0.998764 0.401963 0.313485 0.238227
O24   O     O_3   0.828177 0.029606 0.774916 -0.572477
C58   C     C_3   0.870701 0.030645 0.706755 0.075291
H38   H     H_    0.915875 0.121960 0.733442 0.121056
H39   H     H_    0.842707 0.080095 0.633772 0.105550
C59   C     C_3   0.895984 0.834601 0.694643 -0.265181
H40   H     H_    0.914431 0.769970 0.766735 0.229403
H41   H     H_    0.852443 0.750520 0.653370 0.197222
C60   C     C_3   0.954978 0.834098 0.641467 -0.840057
H42   H     H_    0.939567 0.908647 0.571396 0.232215
H43   H     H_    0.968630 0.689581 0.627366 0.227055
H44   H     H_    0.001249 0.901957 0.686537 0.238237
C61   C     C_3   0.573827 0.971351 0.019425 -0.828583
H45   H     H_    0.582876 0.113902 0.996131 0.222329
H46   H     H_    0.595948 0.870752 0.977028 0.212829
H47   H     H_    0.517610 0.943621 0.003661 0.236442
C62   C     C_3   0.426175 0.471354 0.980576 -0.828589
H48   H     H_    0.417126 0.613904 0.003871 0.222330
H49   H     H_    0.404055 0.370755 0.022974 0.212829
H50   H     H_    0.482392 0.443623 0.996340 0.236444
O25   O     O_3   0.796189 0.674664 0.424944 -0.588600
C63   C     C_3   0.781990 0.487881 0.399894 0.052208
H51   H     H_    0.830713 0.410211 0.401505 0.125896
H52   H     H_    0.747664 0.476385 0.326132 0.135726
C64   C     C_3   0.745556 0.400879 0.473158 -0.300083
H53   H     H_    0.780835 0.400942 0.546131 0.192997
H54   H     H_    0.698936 0.483200 0.476621 0.202324
C65   C     C_3   0.723834 0.203630 0.444144 -0.825160
H55   H     H_    0.687142 0.203525 0.372416 0.237885
H56   H     H_    0.697718 0.141314 0.497990 0.228012
H57   H     H_    0.769687 0.118417 0.440452 0.236622
O26   O     O_3   0.203814 0.174634 0.575064 -0.588590
C66   C     C_3   0.218044 0.987872 0.600150 0.052191
H58   H     H_    0.169342 0.910185 0.598668 0.125875
H59   H     H_    0.252440 0.976464 0.673866 0.135773
C67   C     C_3   0.254387 0.900794 0.526808 -0.300067
H60   H     H_    0.219030 0.900721 0.453898 0.192951
H61   H     H_    0.300966 0.983149 0.523188 0.202339
C68   C     C_3   0.276173 0.703606 0.555863 -0.825210
H62   H     H_    0.312981 0.703639 0.627485 0.237894
H63   H     H_    0.302169 0.641176 0.501920 0.227982
H64   H     H_    0.230367 0.618406 0.559782 0.236655

loop_
_geom_bond_atom_site_label_1
_geom_bond_atom_site_label_2
_ccdc_geom_bond_type
C40   H16   S    
C37   C39   A    
C50   H19   S    
C9    C31   A    
C33   C35   A    
C13   C15   A    
C30   O22   S    
O23   C55   S    
O1    C3    A    
C65   H57   S    
O16   C48   A    
O2    C4    A    
C2    O7    A    
C53   H27   S    
C64   H53   S    
C58   H38   S    
C25   H9    S    
C12   C14   A    
O5    C3    A    
C62   H49   S    
C29   O21   S    
C67   H60   S    
C21   C23   A    
O14   C46   A    
C60   H42   S    
C6    C30   A    
C39   C41   A    
C58   H39   S    
C56   H33   S    
C51   H23   S    
C15   C19   A    
C36   H14   S    
C41   C43   A    
C57   H35   S    
C53   H26   S    
H1    C23   S    
C19   C21   A    
C7    C29   A    
C8    C30   A    
C17   C25   A    
C20   C28   A    
C56   H34   S    
C51   H22   S    
C61   H47   S    
C54   H28   S    
C68   H63   S    
C31   C46   S    
O12   V3    S    
C66   H59   S    
O14   V4    S    
C60   H44   S    
O5    V1    S    
O6    V2    S    
C24   C26   A    
O16   V4    S    
C54   H29   S    
C63   C64   S    
O15   V3    S    
C55   H31   S    
C64   H54   S    
C10   H6    S    
C23   C25   A    
C62   H50   S    
C35   H13   S    
C16   C20   A    
C16   C18   A    
C52   H24   S    
C55   C56   S    
C65   H55   S    
O4    C2    A    
O20   V3    S    
C58   C59   S    
C59   C60   S    
C39   H15   S    
C4    C7    S    
C34   C36   A    
C1    C38   S    
C57   H37   S    
C38   C40   A    
C2    C37   S    
O4    V2    S    
C6    C62   S    
C5    C29   A    
O11   V4    S    
C12   H8    S    
H2    C24   S    
C42   O24   S    
C49   H18   S    
C68   H62   S    
O6    C4    A    
C56   C57   S    
C51   H21   S    
C27   H3    S    
C68   H64   S    
O1    V2    S    
C28   H4    S    
C66   C67   S    
O2    V1    S    
O13   C45   A    
O17   V3    S    
C7    C27   A    
C55   H32   S    
C65   H56   S    
O13   V3    S    
C14   O26   S    
C50   C51   S    
C26   H10   S    
C33   H11   S    
C5    C61   S    
C61   H45   S    
C54   H30   S    
C63   H52   S    
C11   C13   A    
C22   C24   A    
C64   C65   S    
O3    V1    S    
C49   C50   S    
C43   C48   S    
C52   H25   S    
O19   V4    S    
C59   H41   S    
C34   C44   A    
O10   V1    S    
C18   C32   A    
C67   C68   S    
C10   C12   A    
O12   C48   A    
O3    C1    A    
C32   C45   S    
O24   C58   S    
C52   C53   S    
C62   H48   S    
C40   C42   A    
C3    C8    S    
C35   C37   A    
C11   H7    S    
C36   C38   A    
C19   C27   A    
C14   C16   A    
O21   C49   S    
C10   C32   A    
C1    O8    A    
C15   C17   A    
O8    V2    S    
O25   C63   S    
O15   C47   A    
C41   O23   S    
C46   O17   A    
C49   H17   S    
C8    C28   A    
C45   O18   A    
C59   H40   S    
O18   V4    S    
C67   H61   S    
O22   C52   S    
C13   O25   S    
C34   H12   S    
C20   C22   A    
C18   C26   A    
O7    V1    S    
C57   H36   S    
C44   C47   S    
C9    H5    S    
C9    C11   A    
O26   C66   S    
C50   H20   S    
C17   C31   A    
O9    V2    S    
C61   H46   S    
C63   H51   S    
C42   C44   A    
C5    C21   A    
C66   H58   S    
C6    C22   A    
O11   C47   A    
C53   C54   S    
C33   C43   A    
C60   H43   S    
