data_mof_unit_36854.cif
_audit_creation_date              2013-03-05T15:55:17-0500
_audit_creation_method            fapswitch 2.2
_symmetry_space_group_name_H-M    P1
_symmetry_Int_Tables_number       1
_space_group_crystal_system       triclinic
_cell_length_a                    6.931604
_cell_length_b                    16.850487
_cell_length_c                    17.068693
_cell_angle_alpha                 100.417315
_cell_angle_beta                  89.16297
_cell_angle_gamma                 90.987081
_cell_volume                      1960.35247353

loop_
_atom_site_label
_atom_site_type_symbol
_atom_site_description
_atom_site_fract_x
_atom_site_fract_y
_atom_site_fract_z
_atom_type_partial_charge
O1    O     O_R   0.494370 0.415690 0.413450 -0.552264
O2    O     O_R   0.819420 0.429360 0.578420 -0.595785
O3    O     O_R   0.994280 0.584310 0.586550 -0.614148
C1    C     C_R   0.649604 0.412341 0.603886 0.947643
O4    O     O_R   0.823790 0.406230 0.413570 -0.558669
O5    O     O_R   0.998670 0.561000 0.420530 -0.561976
C2    C     C_R   0.653671 0.383462 0.384351 1.028041
O6    O     O_R   0.489970 0.439000 0.579470 -0.589369
O7    O     O_3   0.662300 0.550810 0.502470 -0.270892
V1    V     V_3+5 0.935380 0.490570 0.499540 1.265145
O8    O     O_R   0.328650 0.570640 0.421580 -0.565295
C3    C     C_R   0.163659 0.584880 0.393469 1.027123
O9    O     O_R   0.324290 0.593770 0.586430 -0.610007
C4    C     C_R   0.155171 0.616953 0.615099 0.901988
V2    V     V_3+5 0.435930 0.509430 0.500460 1.264182
O10   O     O_3   0.159140 0.449190 0.497530 -0.230246
C5    C     C_R   0.312275 0.723954 0.717942 -0.123591
H1    H     H_    0.453256 0.704946 0.694354 0.120686
C6    C     C_R   0.300952 0.787694 0.783055 -0.086679
H2    H     H_    0.433837 0.815911 0.807444 0.124646
C7    C     C_R   0.121031 0.814666 0.816057 -0.123339
C8    C     C_R   0.952773 0.776051 0.782037 -0.112613
H3    H     H_    0.811788 0.795053 0.805627 0.125404
C9    C     C_R   0.964096 0.712309 0.716933 -0.120148
H4    H     H_    0.831202 0.684083 0.692565 0.122920
C10   C     C_R   0.144008 0.685351 0.683908 -0.118904
C11   C     C_R   0.171928 0.635418 0.329816 -0.314864
C12   C     C_R   0.098121 0.858841 0.164828 -0.337614
C13   C     C_R   0.922084 0.813236 0.274523 0.228390
C14   C     C_R   0.945100 0.866089 0.220478 -0.152237
C15   C     C_R   0.233045 0.796948 0.164240 0.326211
C16   C     C_R   0.211451 0.742918 0.219094 -0.039735
C17   C     C_R   0.054873 0.750704 0.274510 0.077688
C18   C     C_R   0.035776 0.696097 0.328537 -0.141921
C19   C     C_R   0.326556 0.627984 0.273487 0.381500
C20   C     C_R   0.341867 0.680093 0.218513 -0.160925
H5    H     H_    0.919600 0.701987 0.372027 0.180909
H6    H     H_    0.460801 0.671550 0.176198 0.198781
H7    H     H_    0.840207 0.913209 0.221465 0.173154
C21   C     C_R   0.646894 0.361004 0.666329 -0.201060
C22   C     C_R   0.619537 0.136439 0.832305 -0.231096
C23   C     C_R   0.483715 0.156595 0.706214 0.375961
C24   C     C_R   0.503163 0.110764 0.766161 -0.275488
C25   C     C_R   0.724204 0.209634 0.838277 0.124881
C26   C     C_R   0.701035 0.258570 0.779258 0.082503
C27   C     C_R   0.570164 0.234783 0.714922 -0.070670
C28   C     C_R   0.531248 0.290204 0.662438 0.168250
C29   C     C_R   0.783642 0.379653 0.726657 -0.161310
C30   C     C_R   0.805908 0.331154 0.783410 -0.088242
H8    H     H_    0.873739 0.433428 0.730522 0.137421
H9    H     H_    0.910991 0.350697 0.829194 0.161818
H10   H     H_    0.431430 0.052261 0.759617 0.167147
C31   C     C_R   0.788437 0.259422 0.298925 -0.067083
H11   H     H_    0.910847 0.263827 0.338006 0.184493
C32   C     C_R   0.781509 0.195915 0.233547 -0.094988
H12   H     H_    0.900417 0.154282 0.223357 0.128311
C33   C     C_R   0.621053 0.184983 0.183256 -0.177893
C34   C     C_R   0.468891 0.239241 0.199270 -0.212616
H13   H     H_    0.343540 0.231561 0.161264 0.171962
C35   C     C_R   0.474300 0.303704 0.264039 0.417233
C36   C     C_R   0.637556 0.315019 0.315158 -0.313121
O11   O     O_R   0.774880 0.061150 0.920630 -0.581518
O12   O     O_R   0.440980 0.093710 0.086500 -0.606440
O13   O     O_R   0.266190 0.938890 0.079390 -0.566590
C37   C     C_R   0.610063 0.116607 0.115068 0.970432
O14   O     O_R   0.445420 0.070740 0.921670 -0.594032
O15   O     O_R   0.270660 0.915760 0.913380 -0.594430
C38   C     C_R   0.615085 0.087166 0.895962 1.001332
O16   O     O_R   0.770400 0.084270 0.086640 -0.599903
O17   O     O_3   0.602590 0.949210 0.997500 -0.246939
V3    V     V_3+5 0.329470 0.009420 0.000470 1.229529
O18   O     O_R   0.940650 0.906250 0.913470 -0.603791
C39   C     C_R   0.109807 0.883078 0.884836 0.957344
O19   O     O_R   0.936210 0.929220 0.078300 -0.582031
C40   C     C_R   0.102321 0.912797 0.104432 1.024559
V4    V     V_3+5 0.828930 0.990510 0.999490 1.232361
O20   O     O_3   0.105680 0.050790 0.002500 -0.267671
N1    N     N_R   0.385163 0.786386 0.105535 0.233706
O21   O     O_R   0.563672 0.800141 0.126963 -0.397306
O22   O     O_R   0.344554 0.766965 0.030247 -0.400029
I1    I     I_    0.282625 0.277616 0.586924 -0.239348
N2    N     N_R   0.398001 0.117543 0.633162 0.249838
O23   O     O_R   0.239281 0.075426 0.634750 -0.360674
O24   O     O_R   0.499241 0.109202 0.567435 -0.338171
I2    I     I_    0.901708 0.247921 0.940617 -0.317984
N3    N     N_R   0.311539 0.356074 0.276050 0.227590
O25   O     O_R   0.197775 0.354273 0.336869 -0.404553
O26   O     O_R   0.244844 0.384297 0.215891 -0.343748
N4    N     N_R   0.471582 0.567896 0.270637 0.233077
O27   O     O_R   0.494338 0.515487 0.205328 -0.338342
O28   O     O_R   0.615127 0.581873 0.319708 -0.388015
I3    I     I_    0.678822 0.832229 0.352764 -0.327858

loop_
_geom_bond_atom_site_label_1
_geom_bond_atom_site_label_2
_geom_bond_distance
_ccdc_geom_bond_type
C21   C28   1.417830 A    
O14   C38   1.292242 A    
C32   H12   1.083208 S    
O12   C37   1.301285 A    
C7    C39   1.491365 S    
C18   H5    1.080752 S    
C19   C20   1.398053 A    
C23   N2    1.432569 S    
C1    O6    1.303142 A    
C15   C16   1.423880 A    
C31   H11   1.080223 S    
O19   V4    1.996794 S    
C5    C10   1.406411 A    
C16   C20   1.402467 A    
C6    C7    1.409132 A    
C9    C10   1.409147 A    
O5    C3    1.311144 A    
N3    O26   1.300893 A    
C24   H10   1.084637 S    
C34   C35   1.403210 A    
V2    O10   2.152031 S    
C13   C17   1.410964 A    
O16   V4    2.006990 S    
C23   C27   1.421819 A    
O13   V3    1.990764 S    
C2    C36   1.498083 S    
O8    V2    1.996849 S    
C1    C21   1.488921 S    
C30   H9    1.079345 S    
O17   V3    2.158875 S    
O15   C39   1.296726 A    
N4    O28   1.300759 A    
O7    V1    2.158924 S    
O18   V4    2.005524 S    
C29   H8    1.084222 S    
O9    C4    1.302368 A    
C22   C24   1.396575 A    
O11   V4    1.994629 S    
C31   C36   1.407006 A    
C17   C18   1.419042 A    
C22   C38   1.481648 S    
C31   C32   1.400245 A    
C11   C18   1.406591 A    
O19   C40   1.293024 A    
C3    C11   1.496672 S    
V4    O20   2.152025 S    
O4    C2    1.311038 A    
C35   N3    1.433779 S    
N3    O25   1.298864 A    
C11   C19   1.421222 A    
C34   H13   1.083867 S    
C26   C27   1.430689 A    
C4    C10   1.491523 S    
C35   C36   1.428118 A    
O2    C1    1.294312 A    
C13   C14   1.399097 A    
O14   V3    1.991246 S    
O9    V2    2.005585 S    
C26   C30   1.403179 A    
C5    H1    1.082730 S    
N1    O22   1.301181 A    
C9    H4    1.082746 S    
O3    C4    1.296752 A    
O1    V2    2.005218 S    
C19   N4    1.433145 S    
C29   C30   1.387478 A    
O12   V3    2.003031 S    
O6    V2    1.994073 S    
N2    O24   1.301614 A    
C32   C33   1.404085 A    
O17   V4    1.703615 S    
C22   C25   1.408471 A    
C8    C9    1.401207 A    
C23   C24   1.398186 A    
C25   I2    2.146933 S    
O2    V1    1.991143 S    
V3    O20   1.708918 S    
C25   C26   1.424866 A    
C15   N1    1.434782 S    
C21   C29   1.399568 A    
C27   C28   1.437240 A    
O1    C2    1.291506 A    
C12   C15   1.411387 A    
C33   C37   1.484102 S    
O18   C39   1.302374 A    
O5    V1    1.990775 S    
O8    C3    1.289516 A    
O11   C38   1.301315 A    
C16   C17   1.421234 A    
C6    H2    1.082754 S    
C20   H6    1.082177 S    
O7    V2    1.704315 S    
O4    V1    2.003099 S    
O3    V1    2.003625 S    
V1    O10   1.708822 S    
N1    O21   1.300472 A    
C33   C34   1.399093 A    
C37   O16   1.295009 A    
C12   C14   1.405449 A    
C5    C6    1.401282 A    
O13   C40   1.304916 A    
C14   H7    1.083540 S    
O15   V3    2.003446 S    
C28   I1    2.151680 S    
N2    O23   1.301534 A    
C8    H3    1.082740 S    
N4    O27   1.300411 A    
C7    C8    1.406346 A    
C12   C40   1.492428 S    
C13   I3    2.127772 S    
