data_mof_unit_26970.cif
_audit_creation_date              2012-12-10T16:58:27-0500
_audit_creation_method            fapswitch 2.2
_symmetry_space_group_name_H-M    P1
_symmetry_Int_Tables_number       1
_space_group_crystal_system       triclinic
_cell_length_a                    7.777489
_cell_length_b                    8.553641
_cell_length_c                    23.451042
_cell_angle_alpha                 91.699967
_cell_angle_beta                  85.376538
_cell_angle_gamma                 93.546817
_cell_volume                      1551.56768425

loop_
_atom_site_label
_atom_site_type_symbol
_atom_type_description
_atom_site_fract_x
_atom_site_fract_y
_atom_site_fract_z
_atom_type_partial_charge
C1    C     C_R   0.545647 0.794675 0.498587 0.948929
C2    C     C_R   0.454354 0.205329 0.501485 0.951581
C3    C     C_R   0.652253 0.441747 0.755174 0.537065
C4    C     C_R   0.664239 0.514983 0.234798 0.532005
C5    C     C_R   0.641022 0.439863 0.696393 -0.211331
C6    C     C_R   0.656189 0.513553 0.294099 -0.224635
C7    C     C_R   0.509731 0.515298 0.672435 -0.262278
C8    C     C_R   0.496945 0.493854 0.326739 -0.272764
C9    C     C_R   0.388946 0.597889 0.708262 0.446979
C10   C     C_R   0.342115 0.474392 0.298678 0.428071
C11   C     C_R   0.395139 0.592816 0.767118 -0.108167
C12   C     C_R   0.349532 0.486201 0.239655 -0.109160
C13   C     C_R   0.525438 0.516680 0.790687 0.055596
C14   C     C_R   0.508433 0.504128 0.207582 0.061069
C15   C     C_2   0.569826 0.958088 0.497759 -0.354828
C16   C     C_2   0.430175 0.041923 0.502435 -0.357608
C17   C     C_R   0.502444 0.505080 0.610484 0.882325
C18   C     C_R   0.498021 0.496766 0.389275 0.889083
C19   C     C_R   0.464557 0.370854 0.117900 0.556230
C20   C     C_R   0.575494 0.649452 0.880044 0.554671
C21   C     C_R   0.553791 0.643419 0.119670 0.565322
C22   C     C_R   0.471340 0.380520 0.878782 0.563106
C23   C     C_R   0.559895 0.647342 0.060143 -0.048063
C24   C     C_R   0.467658 0.376151 0.938218 -0.046634
C25   C     C_R   0.513217 0.509791 0.029125 -0.096134
C26   C     C_R   0.517562 0.512963 0.969126 -0.096345
C27   C     C_R   0.462297 0.369342 0.058073 -0.059017
C28   C     C_R   0.571652 0.652613 0.940070 -0.061067
C29   C     C_R   0.612333 0.785530 0.031414 -0.249294
C30   C     C_R   0.414459 0.238176 0.966955 -0.249059
C31   C     C_R   0.619765 0.789850 0.971582 0.453621
C32   C     C_R   0.411538 0.232750 0.026654 0.452383
N1    N     N_R   0.509343 0.506309 0.146850 -0.373815
N2    N     N_R   0.525646 0.515136 0.851339 -0.376085
N3    N     N_2   0.950330 0.457950 0.484560 0.187533
N4    N     N_2   0.049670 0.542050 0.515440 0.183622
O1    O     O_R   0.389250 0.738570 0.503790 -0.642191
O2    O     O_R   0.610750 0.261430 0.496210 -0.638898
O3    O     O_R   0.678390 0.711620 0.493890 -0.572552
O4    O     O_R   0.321610 0.288380 0.506110 -0.575316
O5    O     O_R   0.355400 0.513520 0.588790 -0.615923
O6    O     O_R   0.644600 0.486480 0.411210 -0.629945
O7    O     O_R   0.644550 0.486570 0.578900 -0.579047
O8    O     O_R   0.355450 0.513430 0.421100 -0.565059
O9    O     O_2   0.423975 0.238618 0.147308 -0.443360
O10   O     O_2   0.628527 0.778439 0.850169 -0.436079
O11   O     O_2   0.592751 0.775014 0.150412 -0.488198
O12   O     O_2   0.420980 0.251599 0.848347 -0.491230
Zn1   Zn    Zn3+2 0.306930 0.518000 0.506610 1.064497
Zn2   Zn    Zn3+2 0.693070 0.482000 0.493390 1.060338
H1    H     H_    0.648796 0.890875 0.055451 0.216114
H2    H     H_    0.375489 0.133435 0.942996 0.213857
O13   O     O_3   0.673161 0.926663 0.943651 -0.689512
H3    H     H_    0.702887 0.010068 0.972096 0.331477
O14   O     O_3   0.358150 0.095952 0.054596 -0.689865
H4    H     H_    0.325954 0.013169 0.026229 0.332133
O15   O     O_3   0.787330 0.368912 0.775870 -0.703361
H5    H     H_    0.789442 0.390925 0.817469 0.347171
O16   O     O_3   0.825716 0.526285 0.205494 -0.725595
H6    H     H_    0.814560 0.507095 0.164119 0.339898
H7    H     H_    0.735626 0.378177 0.669335 0.211245
H8    H     H_    0.776542 0.526590 0.314538 0.233226
O17   O     O_3   0.266353 0.686865 0.687882 -0.713134
H9    H     H_    0.315559 0.733957 0.651628 0.336262
O18   O     O_3   0.183001 0.439480 0.326861 -0.714265
H10   H     H_    0.198926 0.357538 0.354580 0.365097
H11   H     H_    0.300535 0.652114 0.794980 0.194143
H12   H     H_    0.231089 0.474566 0.218097 0.211327
H13   H     H_    0.701835 0.008847 0.493254 0.193045
H14   H     H_    0.298166 0.991166 0.506955 0.193586
O19   O     O_3   0.027270 0.344797 0.453413 -0.663606
H15   H     H_    0.932402 0.286885 0.434528 0.340814
O20   O     O_3   0.971348 0.651070 0.548414 -0.644778
H16   H     H_    0.065807 0.708086 0.567791 0.344778

loop_
_geom_bond_atom_site_label_1
_geom_bond_atom_site_label_2
_ccdc_geom_bond_type
O8    Zn1   S    
C22   O12   S    
O14   H4    S    
C19   O9    S    
O7    Zn2   S    
O2    Zn2   S    
C18   O8    A    
C2    C16   S    
C25   C27   A    
O1    Zn1   S    
O20   H16   S    
C2    O2    A    
C32   O14   S    
C26   C28   A    
N3    N4    D    
C3    C13   A    
C1    O1    A    
C3    C5    A    
C20   N2    A    
O19   H15   S    
C6    H8    S    
C14   N1    S    
C17   O7    A    
C27   C32   A    
N3    O19   S    
C13   N2    S    
C29   C31   A    
O13   H3    S    
C31   O13   S    
C22   N2    A    
C30   C32   A    
C9    C11   A    
C24   C26   A    
O15   H5    S    
C10   C12   A    
N3    Zn2   S    
C1    C15   S    
C23   C29   A    
C4    O16   S    
C8    C10   A    
O6    Zn2   S    
C8    C18   S    
C24   C30   A    
C23   C25   A    
C21   C23   A    
C4    C14   A    
C15   H13   S    
C17   O5    A    
C11   C13   A    
C21   N1    A    
N4    O20   S    
C1    O3    A    
C29   H1    S    
C5    H7    S    
O4    Zn1   S    
C20   C28   A    
C2    O4    A    
C12   C14   A    
O16   H6    S    
O3    Zn2   S    
C19   C27   A    
C4    C6    A    
O18   H10   S    
C19   N1    A    
C10   O18   S    
O5    Zn1   S    
C7    C9    A    
C30   H2    S    
C5    C7    A    
C6    C8    A    
C16   H14   S    
C18   O6    A    
C21   O11   S    
C25   C26   A    
C9    O17   S    
C12   H12   S    
C28   C31   A    
C20   O10   S    
N4    Zn1   S    
C15   C16   D    
C22   C24   A    
C11   H11   S    
O17   H9    S    
C3    O15   S    
C7    C17   S    
