data_mof_unit_19725.cif
_audit_creation_date              2012-12-10T20:01:40-0500
_audit_creation_method            fapswitch 2.2
_symmetry_space_group_name_H-M    P1
_symmetry_Int_Tables_number       1
_space_group_crystal_system       triclinic
_cell_length_a                    14.240597
_cell_length_b                    14.96181
_cell_length_c                    16.680498
_cell_angle_alpha                 87.316248
_cell_angle_beta                  95.724796
_cell_angle_gamma                 86.472387
_cell_volume                      3524.58363112

loop_
_atom_site_label
_atom_site_type_symbol
_atom_type_description
_atom_site_fract_x
_atom_site_fract_y
_atom_site_fract_z
_atom_type_partial_charge
C1    C     C_R   0.503433 0.327316 0.501688 0.984608
C2    C     C_R   0.497076 0.672554 0.500791 0.984028
C3    C     C_R   0.568640 0.179038 0.460070 0.008341
C4    C     C_R   0.443735 0.812313 0.563964 0.047329
C5    C     C_R   0.513514 0.230085 0.510705 -0.195233
C6    C     C_R   0.487563 0.769710 0.501203 -0.195719
C7    C     C_R   0.478151 0.186637 0.577315 0.355701
C8    C     C_R   0.508082 0.821065 0.432743 0.360484
C9    C     C_R   0.474648 0.094575 0.579241 -0.166745
C10   C     C_R   0.499889 0.913417 0.433978 -0.156777
C11   C     C_R   0.506934 0.045908 0.517325 -0.050430
C12   C     C_R   0.475513 0.954725 0.502789 -0.027452
C13   C     C_R   0.113158 0.413430 0.504540 0.354784
C14   C     C_R   0.880296 0.536663 0.426334 0.292014
C15   C     C_R   0.212579 0.420135 0.512104 -0.086224
C16   C     C_R   0.782180 0.540955 0.435332 -0.145963
C17   C     C_R   0.191924 0.575180 0.477249 0.523072
C18   C     C_R   0.810790 0.452159 0.557740 0.550188
C19   C     C_R   0.094069 0.572845 0.480475 -0.277352
C20   C     C_R   0.908517 0.458311 0.556205 -0.268603
C21   C     C_R   0.051986 0.492492 0.490303 -0.022097
C22   C     C_R   0.945611 0.495577 0.489391 0.000691
C23   C     C_R   0.513179 0.502909 0.653837 1.009334
C24   C     C_R   0.486219 0.499705 0.345850 0.981966
C25   C     C_R   0.522405 0.500259 0.742096 -0.233572
C26   C     C_R   0.473873 0.510044 0.257529 -0.267786
C27   C     C_R   0.452672 0.456578 0.778664 -0.174575
C28   C     C_R   0.545834 0.551628 0.221715 -0.167738
C29   C     C_R   0.452484 0.449535 0.861586 0.077883
C30   C     C_R   0.537338 0.574246 0.139894 0.087860
C31   C     C_R   0.528774 0.481758 0.909746 0.122592
C32   C     C_R   0.457041 0.550362 0.091710 0.126567
C33   C     C_R   0.608105 0.511361 0.874159 0.266396
C34   C     C_R   0.377727 0.522476 0.127649 0.315108
C35   C     C_R   0.599728 0.532612 0.790193 0.252663
C36   C     C_R   0.388283 0.493014 0.210197 0.307199
C37   C     C_R   0.574484 0.085025 0.472462 0.381373
C38   C     C_R   0.424600 0.905966 0.556379 0.389606
H1    H     H_    0.608131 0.570088 0.258377 0.226275
H2    H     H_    0.396904 0.427526 0.741895 0.243829
H3    H     H_    0.257461 0.359498 0.523215 0.238734
H4    H     H_    0.732784 0.572601 0.387702 0.228463
H5    H     H_    0.049101 0.634137 0.470662 0.234201
H6    H     H_    0.957317 0.427943 0.605135 0.237116
H7    H     H_    0.447958 0.061226 0.629722 0.243758
H8    H     H_    0.518424 0.953392 0.383067 0.221890
N1    N     N_2   0.524668 0.488998 0.993193 -0.129807
N2    N     N_2   0.459736 0.543940 0.007809 -0.126900
N3    N     N_R   0.252470 0.499980 0.500000 -0.176388
N4    N     N_R   0.747530 0.500020 0.500000 -0.170960
O1    O     O_R   0.579480 0.369070 0.499990 -0.593356
O2    O     O_R   0.420520 0.630930 0.500010 -0.576350
O3    O     O_R   0.420520 0.369060 0.499990 -0.587892
O4    O     O_R   0.579480 0.630940 0.500010 -0.558349
O5    O     O_R   0.588340 0.499180 0.616130 -0.507030
O6    O     O_R   0.411660 0.500820 0.383870 -0.508404
O7    O     O_R   0.429390 0.499170 0.616130 -0.645143
O8    O     O_R   0.570610 0.500830 0.383870 -0.645531
Zn1   Zn    Zn3+2 0.606140 0.500010 0.500000 1.095518
Zn2   Zn    Zn3+2 0.393860 0.499990 0.500000 1.100041
S1    S     S_3+6 0.226491 0.675403 0.431560 0.118802
O9    O     O_2   0.141684 0.726236 0.386037 -0.207751
O10   O     O_2   0.265880 0.733098 0.495952 -0.293611
O11   O     O_3   0.305817 0.654671 0.365748 -0.475825
H9    H     H_    0.301930 0.709475 0.329580 0.403945
S2    S     S_3+6 0.780306 0.364399 0.624961 0.106150
O12   O     O_2   0.727036 0.296620 0.578973 -0.275499
O13   O     O_2   0.869244 0.316211 0.666149 -0.263844
O14   O     O_3   0.717571 0.401739 0.697731 -0.488333
H10   H     H_    0.728758 0.355164 0.742419 0.397340
C39   C     C_3   0.611048 0.629412 0.105969 -0.305549
C40   C     C_3   0.569845 0.723549 0.077904 -0.693497
H11   H     H_    0.512668 0.720637 0.027882 0.254167
H12   H     H_    0.541002 0.757715 0.128750 0.305264
H13   H     H_    0.626242 0.763346 0.055796 0.270610
H14   H     H_    0.672301 0.635729 0.151722 0.254156
H15   H     H_    0.638876 0.596511 0.055036 0.274562
C41   C     C_3   0.375419 0.398966 0.896192 -0.327736
C42   C     C_3   0.276331 0.439443 0.865028 -0.648359
H16   H     H_    0.268964 0.511366 0.878139 0.294852
H17   H     H_    0.261245 0.433096 0.799104 0.232982
H18   H     H_    0.222432 0.402680 0.894225 0.288111
H19   H     H_    0.381870 0.328462 0.878103 0.244973
H20   H     H_    0.383365 0.396149 0.963062 0.250613
S3    S     S_3+6 0.720834 0.505167 0.931777 0.087960
O15   O     O_2   0.750358 0.597251 0.950328 -0.246834
O16   O     O_2   0.718646 0.450565 0.009493 -0.274339
O17   O     O_3   0.801326 0.454729 0.878706 -0.467079
H21   H     H_    0.862596 0.457515 0.911977 0.405803
S4    S     S_3+6 0.264883 0.539476 0.071313 0.094096
O18   O     O_2   0.268004 0.609015 0.003771 -0.288607
O19   O     O_2   0.236475 0.453232 0.036703 -0.276261
O20   O     O_3   0.183688 0.575747 0.131041 -0.428234
H22   H     H_    0.122206 0.575087 0.097682 0.409324
S5    S     S_3+6 0.676091 0.610699 0.750416 0.107461
O21   O     O_2   0.771005 0.564968 0.741479 -0.140456
O22   O     O_2   0.635778 0.652415 0.669811 -0.335795
O23   O     O_3   0.692276 0.694074 0.813517 -0.447507
H23   H     H_    0.630302 0.706338 0.834334 0.328692
S6    S     S_3+6 0.298107 0.431598 0.251536 0.114922
O24   O     O_2   0.340240 0.362762 0.315550 -0.325927
O25   O     O_2   0.231629 0.495998 0.288267 -0.181698
O26   O     O_3   0.236092 0.376481 0.180955 -0.453116
H24   H     H_    0.181409 0.355618 0.207248 0.407553
S7    S     S_3+6 0.681359 0.021524 0.458124 0.035557
O27   O     O_2   0.682282 0.000792 0.370859 -0.293389
O28   O     O_2   0.764424 0.075222 0.482440 -0.213404
O29   O     O_3   0.691788 0.925219 0.515549 -0.541509
H25   H     H_    0.749453 0.892411 0.500537 0.394553
S8    S     S_3+6 0.314608 0.953457 0.584140 0.054560
O30   O     O_2   0.285498 0.038696 0.534066 -0.231998
O31   O     O_2   0.238386 0.889437 0.569266 -0.202303
O32   O     O_3   0.323493 0.975934 0.682342 -0.570596
H26   H     H_    0.263156 0.009515 0.689901 0.417741
C43   C     C_3   0.620391 0.222333 0.393897 -0.314506
C44   C     C_3   0.552076 0.262526 0.323577 -0.785698
H27   H     H_    0.504211 0.211561 0.300428 0.291433
H28   H     H_    0.509871 0.320256 0.342790 0.250418
H29   H     H_    0.592317 0.286591 0.274016 0.263525
H30   H     H_    0.666852 0.273555 0.418178 0.258340
H31   H     H_    0.668041 0.173298 0.367490 0.279196
C45   C     C_3   0.420625 0.760655 0.639776 -0.302468
C46   C     C_3   0.475335 0.792515 0.715525 -0.763145
H32   H     H_    0.551284 0.796079 0.707073 0.301033
H33   H     H_    0.447761 0.859863 0.730024 0.305501
H34   H     H_    0.468171 0.745304 0.767616 0.231477
H35   H     H_    0.343870 0.767753 0.646115 0.274040
H36   H     H_    0.438905 0.687901 0.638340 0.185192
S9    S     S_3+6 0.449860 0.242489 0.663894 0.039112
O33   O     O_2   0.363148 0.304621 0.644021 -0.293014
O34   O     O_2   0.431962 0.176802 0.730800 -0.260650
O35   O     O_3   0.541638 0.301441 0.695524 -0.560957
H37   H     H_    0.594485 0.255756 0.711014 0.380937
S10   S     S_3+6 0.549030 0.773816 0.346315 0.042970
O36   O     O_2   0.486987 0.701197 0.319769 -0.315582
O37   O     O_2   0.546961 0.843434 0.278061 -0.258903
O38   O     O_3   0.660493 0.730278 0.368966 -0.557776
H38   H     H_    0.696909 0.781395 0.386717 0.371845
S11   S     S_3+6 0.070474 0.304786 0.508765 0.092490
O39   O     O_2   0.976035 0.303549 0.459861 -0.241583
O40   O     O_2   0.139643 0.239310 0.476291 -0.210912
O41   O     O_3   0.060026 0.273854 0.605468 -0.510246
H39   H     H_    0.035349 0.213431 0.603692 0.422142
S12   S     S_3+6 0.915767 0.578735 0.333810 0.095261
O42   O     O_2   0.004325 0.527985 0.314386 -0.175476
O43   O     O_2   0.838850 0.569718 0.266649 -0.275990
O44   O     O_3   0.936048 0.687763 0.340369 -0.461915
H40   H     H_    0.876056 0.716631 0.354925 0.360974

loop_
_geom_bond_atom_site_label_1
_geom_bond_atom_site_label_2
_ccdc_geom_bond_type
S2    O13   D    
C9    H7    S    
O20   H22   S    
C43   H31   S    
O5    Zn1   S    
C27   C29   A    
S5    O21   D    
C24   O6    A    
S10   O38   S    
C30   C39   S    
S5    O23   S    
C46   H32   S    
S3    O15   D    
O29   H25   S    
S7    O28   D    
N3    Zn2   S    
C1    C5    S    
N4    Zn1   S    
C13   S11   S    
C19   C21   A    
C24   C26   S    
S9    O33   D    
O14   H10   S    
S12   O44   S    
C39   H14   S    
S11   O41   S    
C46   H33   S    
S2    O14   S    
C43   C44   S    
C44   H27   S    
S1    O10   D    
C45   H35   S    
C11   C37   A    
C33   S3    S    
S8    O30   D    
C1    O3    A    
O2    Zn2   S    
C17   S1    S    
C41   H19   S    
C29   C41   S    
O44   H40   S    
O35   H37   S    
C10   H8    S    
C31   C33   A    
C38   S8    S    
C18   C20   A    
S9    O35   S    
C23   C25   S    
S2    O12   D    
C31   N1    S    
C21   C22   S    
C45   H36   S    
C32   N2    S    
C2    C6    S    
C40   H13   S    
C10   C12   A    
C20   H6    S    
O3    Zn2   S    
C19   H5    S    
O4    Zn1   S    
S3    O16   D    
S7    O29   S    
C14   S12   S    
C8    S10   S    
C24   O8    A    
C15   H3    S    
C40   H12   S    
C2    O4    A    
C17   N3    A    
C5    C7    A    
C41   C42   S    
S12   O42   D    
C46   H34   S    
S10   O37   D    
C28   H1    S    
O8    Zn1   S    
S6    O26   S    
O6    Zn2   S    
C32   C34   A    
S1    O11   S    
C34   S4    S    
C37   S7    S    
C1    O1    A    
S4    O19   D    
N1    N2    D    
C27   H2    S    
S11   O39   D    
S6    O25   D    
C4    C45   S    
C36   S6    S    
C9    C11   A    
S8    O32   S    
C2    O2    A    
C25   C35   A    
C23   O7    A    
S12   O43   D    
C4    C38   A    
O23   H23   S    
C13   C15   A    
C14   C16   A    
C4    C6    A    
C18   S2    S    
C17   C19   A    
C16   H4    S    
C39   H15   S    
C18   N4    A    
S4    O20   S    
C42   H17   S    
O32   H26   S    
O38   H38   S    
S3    O17   S    
C26   C36   A    
C7    C9    A    
C20   C22   A    
C40   H11   S    
C3    C5    A    
C42   H18   S    
C6    C8    A    
C11   C12   S    
S5    O22   D    
C23   O5    A    
S10   O36   D    
C35   S5    S    
C25   C27   A    
S7    O27   D    
C26   C28   A    
C44   H29   S    
O11   H9    S    
C14   C22   A    
C28   C30   A    
C39   C40   S    
C29   C31   A    
C3    C43   S    
C13   C21   A    
C30   C32   A    
S11   O40   D    
S4    O18   D    
S6    O24   D    
C33   C35   A    
C44   H28   S    
C34   C36   A    
C15   N3    A    
C12   C38   A    
S1    O9    D    
C16   N4    A    
S8    O31   D    
C7    S9    S    
C42   H16   S    
C41   H20   S    
O7    Zn2   S    
O1    Zn1   S    
O17   H21   S    
C3    C37   A    
C8    C10   A    
C43   H30   S    
O26   H24   S    
O41   H39   S    
C45   C46   S    
S9    O34   D    
