data_mof_unit_15825.cif
_audit_creation_date              2012-12-10T18:42:28-0500
_audit_creation_method            fapswitch 2.2
_symmetry_space_group_name_H-M    P1
_symmetry_Int_Tables_number       1
_space_group_crystal_system       triclinic
_cell_length_a                    8.66711
_cell_length_b                    10.624427
_cell_length_c                    9.868724
_cell_angle_alpha                 91.158981
_cell_angle_beta                  98.575561
_cell_angle_gamma                 90.645289
_cell_volume                      898.305268161

loop_
_atom_site_label
_atom_site_type_symbol
_atom_type_description
_atom_site_fract_x
_atom_site_fract_y
_atom_site_fract_z
_atom_type_partial_charge
C1    C     C_R   0.501364 0.260322 0.498817 0.901980
C2    C     C_R   0.498636 0.739678 0.501183 0.901982
C3    C     C_R   0.201795 0.499573 0.464659 0.916102
C4    C     C_R   0.798204 0.500427 0.535341 0.916101
C5    C     C_2   0.038280 0.483121 0.447392 -0.048049
C6    C     C_2   0.961720 0.516878 0.552608 -0.048047
C7    C     C_R   0.614644 0.062565 0.437641 0.218953
C8    C     C_R   0.385354 0.937435 0.562358 0.218953
C9    C     C_R   0.613524 0.933042 0.442697 -0.320987
C10   C     C_R   0.386475 0.066958 0.557303 -0.320989
C11   C     C_R   0.499366 0.872051 0.503830 -0.071939
C12   C     C_R   0.500633 0.127949 0.496170 -0.071939
C13   C     C_R   0.571633 0.594699 0.084412 -0.161330
C14   C     C_R   0.428367 0.405300 0.915588 -0.161332
C15   C     C_R   0.574037 0.595330 0.940194 0.270452
C16   C     C_R   0.425964 0.404670 0.059806 0.270455
H1    H     H_    0.701547 0.879962 0.399598 0.146736
H2    H     H_    0.298452 0.120038 0.600402 0.146735
H3    H     H_    0.628873 0.668180 0.151387 0.164863
H4    H     H_    0.371128 0.331820 0.848613 0.164862
N1    N     N_R   0.499960 0.499970 0.857200 -0.127188
N2    N     N_R   0.500040 0.500030 0.142800 -0.127188
O1    O     O_R   0.499990 0.316750 0.614620 -0.636355
O2    O     O_R   0.500010 0.683250 0.385380 -0.636354
O3    O     O_R   0.499990 0.316780 0.385290 -0.593749
O4    O     O_R   0.500010 0.683220 0.614710 -0.593754
O5    O     O_R   0.271750 0.499990 0.587840 -0.582469
O6    O     O_R   0.728250 0.500010 0.412160 -0.582469
O7    O     O_R   0.271750 0.500010 0.358510 -0.652233
O8    O     O_R   0.728250 0.499990 0.641490 -0.652234
Zn1   Zn    Zn3+2 0.500000 0.499980 0.653120 0.939762
Zn2   Zn    Zn3+2 0.500000 0.500020 0.346880 0.939764
N3    N     N_2   0.966005 0.411939 0.329593 -0.283054
H5    H     H_    0.018613 0.326637 0.317581 0.204960
C17   C     C_3   0.940557 0.480699 0.203022 -0.706963
H6    H     H_    0.856021 0.427553 0.126667 0.229450
H7    H     H_    0.051021 0.492090 0.160067 0.225791
H8    H     H_    0.892483 0.575184 0.220111 0.237920
N4    N     N_2   0.033995 0.588060 0.670408 -0.283052
H9    H     H_    0.981387 0.673362 0.682419 0.204961
C18   C     C_3   0.059443 0.519300 0.796979 -0.706971
H10   H     H_    0.143976 0.572447 0.873334 0.229450
H11   H     H_    0.107519 0.424816 0.779889 0.237921
H12   H     H_    0.948979 0.507907 0.839932 0.225793
N5    N     N_2   0.734774 0.126905 0.381735 -0.302077
H13   H     H_    0.845016 0.099616 0.424209 0.205579
C19   C     C_3   0.715544 0.123219 0.233579 -0.735744
H14   H     H_    0.725160 0.025115 0.194831 0.218315
H15   H     H_    0.807713 0.181929 0.198108 0.232181
H16   H     H_    0.600485 0.161137 0.190378 0.283364
N6    N     N_2   0.265224 0.873096 0.618265 -0.302080
H17   H     H_    0.154982 0.900392 0.575798 0.205580
C20   C     C_3   0.284463 0.876773 0.766421 -0.735740
H18   H     H_    0.274858 0.974876 0.805177 0.218316
H19   H     H_    0.399520 0.838846 0.809615 0.283369
H20   H     H_    0.192291 0.818066 0.801892 0.232181
N7    N     N_2   0.654494 0.692772 0.880030 -0.279194
H21   H     H_    0.724923 0.661556 0.811878 0.264626
C21   C     C_3   0.717467 0.801662 0.961296 -0.908686
H22   H     H_    0.761261 0.871565 0.893463 0.257364
H23   H     H_    0.816365 0.773878 0.039445 0.238730
H24   H     H_    0.625086 0.847227 0.011144 0.252886
N8    N     N_2   0.345508 0.307227 0.119971 -0.279188
H25   H     H_    0.275077 0.338443 0.188121 0.264623
C22   C     C_3   0.282538 0.198336 0.038705 -0.908682
H26   H     H_    0.238747 0.128432 0.106538 0.257364
H27   H     H_    0.374921 0.152772 0.988857 0.252884
H28   H     H_    0.183640 0.226117 0.960555 0.238728

loop_
_geom_bond_atom_site_label_1
_geom_bond_atom_site_label_2
_ccdc_geom_bond_type
N6    C20   S    
O2    Zn2   S    
C16   N8    S    
C14   H4    S    
C19   H16   S    
N4    C18   S    
C15   N7    S    
C18   H10   S    
C18   H11   S    
C20   H19   S    
C17   H6    S    
C15   N1    A    
C22   H28   S    
N8    C22   S    
N1    Zn1   S    
O3    Zn2   S    
C3    O5    A    
N3    H5    S    
C21   H22   S    
C19   H15   S    
N5    H13   S    
C1    O3    A    
C9    C11   A    
C8    N6    S    
N7    H21   S    
C5    C6    D    
C1    C12   S    
N2    Zn2   S    
C10   H2    S    
C8    C11   A    
C2    C11   S    
C10   C12   A    
C14   N1    A    
C8    C10   A    
N3    C17   S    
C13   N2    A    
C1    O1    A    
O7    Zn2   S    
C7    C9    A    
C13   C15   A    
C2    O2    A    
O8    Zn1   S    
C18   H12   S    
C14   C16   A    
C7    C12   A    
N7    C21   S    
C4    C6    S    
C21   H23   S    
C13   H3    S    
O5    Zn1   S    
N6    H17   S    
C7    N5    S    
O6    Zn2   S    
C17   H8    S    
N5    C19   S    
C17   H7    S    
C2    O4    A    
C22   H26   S    
C4    O6    A    
C20   H20   S    
C9    H1    S    
N4    H9    S    
C3    O7    A    
C6    N4    S    
C21   H24   S    
C16   N2    A    
C22   H27   S    
C20   H18   S    
O4    Zn1   S    
C4    O8    A    
C19   H14   S    
O1    Zn1   S    
N8    H25   S    
C3    C5    S    
C5    N3    S    
