data_mof_unit_13308.cif
_audit_creation_date              2012-12-11T14:08:32-0500
_audit_creation_method            fapswitch 2.2
_symmetry_space_group_name_H-M    P1
_symmetry_Int_Tables_number       1
_space_group_crystal_system       triclinic
_cell_length_a                    11.041505
_cell_length_b                    11.153725
_cell_length_c                    18.762973
_cell_angle_alpha                 90.255782
_cell_angle_beta                  89.585406
_cell_angle_gamma                 60.220412
_cell_volume                      2005.44474193

loop_
_atom_site_label
_atom_site_type_symbol
_atom_type_description
_atom_site_fract_x
_atom_site_fract_y
_atom_site_fract_z
_atom_type_partial_charge
C1    C     C_R   0.230374 0.647127 0.605871 0.486171
C2    C     C_2   0.775851 0.154125 0.709690 0.358463
C3    C     C_2   0.151330 0.670055 0.672968 0.267654
C4    C     C_R   0.650732 0.618368 0.603024 0.630621
C5    C     C_2   0.168887 0.679521 0.832472 -0.075371
C6    C     C_2   0.176140 0.572874 0.795725 0.462717
C7    C     C_2   0.189785 0.561695 0.717571 0.450807
C8    C     C_2   0.650166 0.642836 0.315729 0.224837
C9    C     C_2   0.628539 0.663056 0.155858 -0.054710
C10   C     C_2   0.700662 0.545126 0.191396 0.363738
C11   C     C_2   0.689322 0.534365 0.269276 0.274511
C12   C     C_3   0.703673 0.531359 0.802940 0.276473
C13   C     C_2   0.632640 0.196661 0.319457 0.371369
C14   C     C_2   0.636091 0.200869 0.162891 -0.049796
C15   C     C_2   0.527400 0.221601 0.202417 -0.052258
C16   C     C_R   0.625982 0.230929 0.602444 0.563762
C17   C     C_2   0.520065 0.258864 0.276504 0.383324
C18   C     C_2   0.115427 0.683367 0.347949 0.298025
C19   C     C_2   0.124067 0.686031 0.187498 0.380356
C20   C     C_2   0.037882 0.785421 0.233474 0.367512
C21   C     C_2   0.084265 0.790567 0.305328 0.323246
C22   C     C_R   0.702475 0.105243 0.900453 0.577535
C23   C     C_3   0.696056 0.671731 0.814747 -0.076437
C24   C     C_R   0.722296 0.687366 0.889713 0.636752
C25   C     C_R   0.113150 0.710306 0.905589 0.593036
C26   C     C_R   0.673156 0.113046 0.101016 0.573785
C27   C     C_R   0.691313 0.688366 0.093454 0.564368
C28   C     C_R   0.215400 0.651499 0.405261 0.580734
C29   C     C_R   0.090475 0.711334 0.113417 0.587293
C30   C     C_R   0.639615 0.617410 0.391583 0.571283
C31   C     C_R   0.613412 0.235132 0.393571 0.605628
C32   C     C_3   0.549104 0.788956 0.791293 0.042522
C33   C     C_3   0.530782 0.772591 0.710983 0.117211
C34   C     C_3   0.665384 0.643397 0.678866 -0.049275
C35   C     C_3   0.811954 0.678561 0.768358 0.689419
C36   C     C_3   0.004298 0.121290 0.710606 0.020790
C37   C     C_3   0.507173 0.381145 0.887072 -0.091408
C38   C     C_3   0.528335 0.081228 0.706580 -0.073652
C39   C     C_3   0.330207 0.920043 0.844781 -0.060345
C40   C     C_3   0.963618 0.861455 0.627535 0.015301
C41   C     C_3   0.872910 0.314952 0.289976 -0.008693
C42   C     C_3   0.675163 0.834231 0.321691 -0.098446
C43   C     C_3   0.156593 0.947059 0.277838 -0.073158
C44   C     C_3   0.006029 0.563958 0.383493 -0.091326
C45   C     C_3   0.784859 0.676636 0.687423 0.653398
C46   C     C_3   0.495714 0.509816 0.706852 -0.082659
C47   C     C_3   0.709006 0.505875 0.722336 0.583442
C48   C     C_2   0.657234 0.179600 0.675729 0.269546
C49   C     C_2   0.691063 0.181485 0.835936 0.340050
C50   C     C_2   0.789941 0.111385 0.785314 0.389660
Cr1   Cr    Cr6+3 0.393010 0.398050 0.501480 1.108660
Cr2   Cr    Cr6+3 0.398820 0.707980 0.501630 1.076927
Cr3   Cr    Cr6+3 0.708140 0.393940 0.496850 1.106695
Cr4   Cr    Cr6+3 0.937950 0.938450 0.008940 1.104064
Cr5   Cr    Cr6+3 0.626180 0.937030 0.994750 1.052054
Cr6   Cr    Cr6+3 0.937790 0.625760 0.001410 1.182921
F1    F     F_    0.847545 0.414704 0.705402 -0.482088
F2    F     F_    0.915273 0.893654 0.211340 -0.614512
F3    F     F_    0.405081 0.778401 0.697966 -0.652062
F4    F     F_    0.249445 0.578913 0.207291 -0.623842
F5    F     F_    0.821059 0.794484 0.785883 -0.585028
F6    F     F_    0.746595 0.801924 0.656495 -0.718956
F7    F     F_    0.819086 0.422415 0.834553 -0.554258
F8    F     F_    0.938123 0.563507 0.783232 -0.454098
F9    F     F_    0.906252 0.580711 0.652316 -0.500759
F10   F     F_    0.900584 0.985268 0.800549 -0.614283
F11   F     F_    0.184063 0.462796 0.831084 -0.529576
F12   F     F_    0.251457 0.430296 0.691085 -0.551345
F13   F     F_    0.796424 0.429770 0.155547 -0.639341
F14   F     F_    0.391253 0.352369 0.302119 -0.559586
F15   F     F_    0.761910 0.102678 0.295276 -0.645240
H1    H     H_    0.548400 0.887738 0.800026 0.126758
H2    H     H_    0.072614 0.147648 0.678647 0.190292
H3    H     H_    0.436382 0.491732 0.875844 0.122379
H4    H     H_    0.578277 0.376585 0.930066 0.112094
H5    H     H_    0.441084 0.337485 0.904967 0.188257
H6    H     H_    0.619080 0.992691 0.730757 0.180154
H7    H     H_    0.517337 0.060625 0.649615 0.160775
H8    H     H_    0.432449 0.099682 0.735427 0.172482
H9    H     H_    0.288741 0.976851 0.794138 0.153758
H10   H     H_    0.362493 0.978645 0.880589 0.137322
H11   H     H_    0.244469 0.913406 0.871918 0.163912
H12   H     H_    0.182013 0.757855 0.804991 0.130529
H13   H     H_    0.958676 0.786643 0.589619 0.149736
H14   H     H_    0.006296 0.920475 0.599938 0.138651
H15   H     H_    0.854987 0.933195 0.642082 0.194207
H16   H     H_    0.934569 0.368468 0.282729 0.116088
H17   H     H_    0.896639 0.241285 0.245144 0.201598
H18   H     H_    0.909667 0.253526 0.339427 0.172672
H19   H     H_    0.786347 0.774860 0.304524 0.165655
H20   H     H_    0.665480 0.841876 0.380791 0.115897
H21   H     H_    0.632474 0.940501 0.301170 0.191531
H22   H     H_    0.085805 0.997438 0.232300 0.162601
H23   H     H_    0.535023 0.749701 0.178164 0.115410
H24   H     H_    0.257959 0.859259 0.258829 0.133379
H25   H     H_    0.178676 0.024668 0.302491 0.142367
H26   H     H_    0.936802 0.529940 0.359866 0.135752
H27   H     H_    0.938581 0.659153 0.415482 0.071523
H28   H     H_    0.079191 0.479637 0.418631 0.175275
H29   H     H_    0.461747 0.562561 0.656098 0.184430
H30   H     H_    0.451475 0.577326 0.754272 0.149002
H31   H     H_    0.456339 0.437850 0.709247 0.232559
H32   H     H_    0.448158 0.199528 0.182695 0.161543
H33   H     H_    0.710932 0.229111 0.182508 0.199593
H34   H     H_    0.516933 0.864702 0.683059 0.163448
H35   H     H_    0.612474 0.534447 0.829026 0.150914
H36   H     H_    0.065545 0.009220 0.721650 0.182628
H37   H     H_    0.978364 0.182204 0.761031 0.219232
O1    O     O_R   0.507110 0.256280 0.580300 -0.484174
O2    O     O_R   0.837080 0.593860 0.915300 -0.381517
O3    O     O_R   0.064770 0.636080 0.932550 -0.422389
O4    O     O_R   0.280830 0.527190 0.577940 -0.472161
O5    O     O_R   0.068250 0.829200 0.092940 -0.519438
O6    O     O_R   0.799650 0.057040 0.080330 -0.452167
O7    O     O_R   0.586130 0.079760 0.077080 -0.529658
O8    O     O_R   0.627700 0.809630 0.066580 -0.519031
O9    O     O_R   0.816140 0.597180 0.075920 -0.434479
O10   O     O_R   0.045360 0.639170 0.081440 -0.500654
O11   O     O_3   0.833980 0.833750 0.001700 -0.287760
O12   O     O_R   0.524640 0.695370 0.425100 -0.481207
O13   O     O_R   0.261360 0.738990 0.584270 -0.489829
O14   O     O_R   0.532590 0.694780 0.574370 -0.485675
O15   O     O_R   0.744470 0.503750 0.577000 -0.406518
O16   O     O_R   0.698520 0.277230 0.571620 -0.455544
O17   O     O_R   0.498530 0.256920 0.419280 -0.502061
O18   O     O_R   0.272880 0.527780 0.428680 -0.457073
O19   O     O_R   0.252780 0.739630 0.423250 -0.493810
O20   O     O_3   0.884715 0.152770 0.670087 -0.558751
O21   O     O_3   0.581473 0.314821 0.823948 -0.569310
O22   O     O_3   0.543061 0.197001 0.715285 -0.538760
O23   O     O_R   0.735890 0.504390 0.415980 -0.538215
O24   O     O_3   0.442202 0.784950 0.832205 -0.570644
O25   O     O_3   0.040155 0.799238 0.690129 -0.526041
O26   O     O_3   0.726703 0.404292 0.295526 -0.562095
O27   O     O_3   0.598277 0.776971 0.291976 -0.640027
O28   O     O_3   0.093005 0.904295 0.329660 -0.545612
O29   O     O_3   0.078903 0.585523 0.327399 -0.545434
O30   O     O_3   0.640512 0.432457 0.704743 -0.540659
O31   O     O_R   0.690560 0.277820 0.422350 -0.479795
O32   O     O_3   0.499990 0.499990 0.499980 -0.315884
O33   O     O_R   0.089190 0.825870 0.932320 -0.514818
O34   O     O_R   0.819070 0.053960 0.931440 -0.469382
O35   O     O_R   0.607070 0.076440 0.916460 -0.529435
O36   O     O_R   0.647110 0.806550 0.917690 -0.508552

loop_
_geom_bond_atom_site_label_1
_geom_bond_atom_site_label_2
_ccdc_geom_bond_type
C41   H18   S    
C37   H3    S    
Cr1   O4    S    
C36   H37   S    
C18   C21   D    
Cr6   O9    S    
C40   H13   S    
C19   C20   D    
C16   C48   S    
C32   H1    S    
Cr5   O11   S    
C46   H31   S    
C12   C23   S    
C44   O29   S    
Cr5   O7    S    
Cr5   O8    S    
C38   O22   S    
C3    C7    D    
C1    O4    A    
C5    C6    D    
C5    H12   S    
C44   H28   S    
C39   O24   S    
C30   O23   A    
Cr3   O32   S    
Cr4   O5    S    
C45   F6    S    
C42   H20   S    
C44   H26   S    
C40   H15   S    
C26   O7    A    
C46   H29   S    
C2    C50   S    
Cr2   O32   S    
C7    F12   S    
Cr2   O14   S    
C22   O35   A    
C43   H24   S    
C23   C24   S    
C35   F8    S    
Cr3   O23   S    
C9    C10   D    
Cr6   O3    S    
C28   O19   A    
C46   O30   S    
C27   O8    A    
C37   H4    S    
C17   F14   S    
C33   F3    S    
Cr4   O11   S    
C8    O27   S    
C23   C32   S    
C48   O22   S    
C36   O20   S    
C44   H27   S    
C12   C47   S    
Cr6   O2    S    
C41   O26   S    
Cr2   O19   S    
C28   O18   A    
C16   O1    A    
C43   H25   S    
C27   O9    A    
C41   H16   S    
C46   H30   S    
C4    C34   S    
Cr5   O35   S    
C4    O14   A    
Cr1   O17   S    
C39   H9    S    
C33   H34   S    
C39   H10   S    
Cr3   O15   S    
C11   O26   S    
C12   F7    S    
C13   F15   S    
C2    C48   D    
C49   O21   S    
C4    O15   A    
C42   O27   S    
C1    C3    S    
C40   H14   S    
C18   O29   S    
C26   O6    A    
C47   F1    S    
Cr2   O13   S    
C14   H33   S    
C22   O34   A    
C33   C34   S    
C18   C28   S    
C35   F5    S    
C34   C45   S    
C14   C26   S    
C50   F10   S    
C22   C49   S    
C5    C25   S    
Cr2   O12   S    
C6    F11   S    
Cr4   O34   S    
C37   H5    S    
C23   C35   S    
C45   F9    S    
Cr6   O11   S    
C31   O17   A    
C20   F2    S    
C35   C45   S    
C32   O24   S    
C9    C27   S    
C40   O25   S    
C15   C17   S    
C41   H17   S    
C29   O5    A    
Cr5   O36   S    
C21   O28   S    
Cr3   O31   S    
Cr1   O18   S    
Cr6   O10   S    
C13   C31   S    
C25   O33   A    
C39   H11   S    
C9    H23   S    
Cr3   O16   S    
C6    C7    S    
C38   H6    S    
C19   F4    S    
C38   H7    S    
C29   O10   A    
C13   C17   D    
C8    C30   S    
C32   C33   S    
C16   O16   A    
C19   C29   S    
Cr1   O32   S    
C12   H35   S    
C30   O12   A    
C24   O36   A    
C8    C11   D    
C24   O2    A    
Cr4   O6    S    
C47   O30   S    
C43   H22   S    
C37   O21   S    
C42   H21   S    
C43   O28   S    
C1    O13   A    
C10   C11   S    
C25   O3    A    
C10   F13   S    
C15   H32   S    
Cr4   O33   S    
C20   C21   S    
Cr1   O1    S    
C49   C50   D    
C38   H8    S    
C3    O25   S    
C14   C15   D    
C34   C47   S    
C42   H19   S    
C31   O31   A    
C36   H2    S    
C36   H36   S    
C2    O20   S    
