data_mof_unit_9020.cif
_audit_creation_date              2012-12-10T18:46:14-0500
_audit_creation_method            fapswitch 2.2
_symmetry_space_group_name_H-M    P1
_symmetry_Int_Tables_number       1
_space_group_crystal_system       triclinic
_cell_length_a                    9.869471
_cell_length_b                    10.666989
_cell_length_c                    13.052201
_cell_angle_alpha                 90.382354
_cell_angle_beta                  70.44829
_cell_angle_gamma                 89.493591
_cell_volume                      1294.75435525

loop_
_atom_site_label
_atom_site_type_symbol
_atom_type_description
_atom_site_fract_x
_atom_site_fract_y
_atom_site_fract_z
_atom_type_partial_charge
C1    C     C_R   0.500584 0.739895 0.497425 0.910804
C2    C     C_R   0.420213 0.557570 0.988677 -0.009576
C3    C     C_R   0.456136 0.577385 0.876443 0.042023
C4    C     C_R   0.531853 0.567244 0.033322 0.116009
C5    C     C_R   0.661141 0.629353 0.975965 0.165192
C6    C     C_R   0.679871 0.675779 0.872574 -0.221926
C7    C     C_R   0.579430 0.648012 0.822341 -0.169326
C8    C     C_R   0.523262 0.506302 0.128815 -0.168609
C9    C     C_R   0.749799 0.593556 0.125842 -0.172559
C10   C     C_R   0.367064 0.526270 0.822293 -0.103355
C11   C     C_R   0.577018 0.934980 0.552238 -0.213621
C12   C     C_R   0.420255 0.507695 0.704313 0.869803
C13   C     C_R   0.578496 0.063417 0.552757 -0.136151
C14   C     C_R   0.502606 0.127976 0.496625 -0.078285
C15   C     C_R   0.428210 0.066398 0.437618 -0.214692
C16   C     C_R   0.428149 0.937600 0.435045 0.406333
C17   C     C_R   0.501161 0.872466 0.494471 -0.110669
C18   C     C_R   0.958985 0.419509 0.433888 0.469602
C19   C     C_R   0.102227 0.419376 0.434507 -0.119031
C20   C     C_R   0.041063 0.580307 0.566202 0.462770
C21   C     C_R   0.898137 0.580732 0.565237 -0.184839
C22   C     C_R   0.500712 0.260182 0.499363 0.895002
C23   C     C_R   0.579359 0.501864 0.295423 0.894272
C24   C     C_R   0.769664 0.642096 0.022687 -0.179252
C25   C     C_R   0.624695 0.526874 0.179454 -0.068542
C26   C     C_R   0.228990 0.485014 0.882724 -0.236288
C27   C     C_R   0.181261 0.492298 0.995542 -0.166034
C28   C     C_R   0.275233 0.528251 0.049612 0.381105
H1    H     H_    0.829090 0.611348 0.164728 0.195204
H2    H     H_    0.635801 0.112232 0.598534 0.167654
H3    H     H_    0.372667 0.118454 0.392222 0.180432
H4    H     H_    0.181190 0.355470 0.381769 0.182460
H5    H     H_    0.820518 0.646225 0.616357 0.163690
H6    H     H_    0.775004 0.727999 0.828637 0.185082
H7    H     H_    0.867787 0.691534 0.980625 0.172821
H8    H     H_    0.435562 0.443496 0.166340 0.185580
H9    H     H_    0.157054 0.449085 0.842733 0.193407
H10   H     H_    0.070981 0.469084 0.041099 0.191088
H11   H     H_    0.597058 0.684418 0.741955 0.153646
H12   H     H_    0.633236 0.884509 0.598032 0.165224
N1    N     N_R   0.142790 0.500030 0.500030 -0.125776
N2    N     N_R   0.857180 0.499940 0.500010 -0.134149
O1    O     O_R   0.385370 0.683250 0.500010 -0.515947
O2    O     O_R   0.614700 0.683220 0.500010 -0.638184
O3    O     O_R   0.328400 0.499990 0.653620 -0.577920
O4    O     O_R   0.557730 0.499960 0.653620 -0.629874
O5    O     O_R   0.385300 0.316780 0.499990 -0.639155
O6    O     O_R   0.614630 0.316750 0.499990 -0.571004
O7    O     O_R   0.442270 0.500040 0.346380 -0.585041
O8    O     O_R   0.671600 0.500010 0.346380 -0.568437
Zn1   Zn    Zn3+2 0.346870 0.500020 0.500000 1.049512
Zn2   Zn    Zn3+2 0.653130 0.499980 0.500000 1.012855
Cl1   Cl    Cl    0.342551 0.863259 0.352306 -0.518307
Cl2   Cl    Cl    0.915544 0.316510 0.344637 -0.555789
Cl3   Cl    Cl    0.084701 0.683662 0.655123 -0.609010
Cl4   Cl    Cl    0.197209 0.560700 0.189950 -0.590224

loop_
_geom_bond_atom_site_label_1
_geom_bond_atom_site_label_2
_ccdc_geom_bond_type
C22   O6    A    
C26   H9    S    
C15   H3    S    
C6    C7    A    
O5    Zn1   S    
C2    C28   A    
C1    O2    A    
O8    Zn2   S    
C9    H1    S    
C4    C8    A    
O1    Zn1   S    
C10   C26   A    
C11   H12   S    
C18   N2    A    
C2    C3    A    
C28   Cl4   S    
C9    C25   A    
C9    C24   A    
C3    C10   A    
C13   C14   A    
C8    C25   A    
C11   C13   A    
O2    Zn2   S    
C26   C27   A    
C5    C6    A    
C5    C24   A    
C10   C12   S    
C20   Cl3   S    
C19   H4    S    
N1    Zn1   S    
C20   N1    A    
C3    C7    A    
C23   C25   S    
C14   C22   S    
C22   O5    A    
C23   O7    A    
C24   H7    S    
C21   H5    S    
C18   Cl2   S    
C27   H10   S    
C15   C16   A    
C2    C4    A    
O4    Zn2   S    
C13   H2    S    
O6    Zn2   S    
C20   C21   A    
C12   O4    A    
C18   C19   A    
C8    H8    S    
C19   N1    A    
C27   C28   A    
O3    Zn1   S    
C14   C15   A    
C16   C17   A    
C23   O8    A    
C7    H11   S    
C21   N2    A    
C16   Cl1   S    
C4    C5    A    
C1    C17   S    
C1    O1    A    
C11   C17   A    
C6    H6    S    
N2    Zn2   S    
C12   O3    A    
O7    Zn1   S    
