data_mof_unit_29894.cif
_audit_creation_date              2012-12-10T16:57:06-0500
_audit_creation_method            fapswitch 2.2
_symmetry_space_group_name_H-M    P1
_symmetry_Int_Tables_number       1
_space_group_crystal_system       triclinic
_cell_length_a                    7.896922
_cell_length_b                    8.561429
_cell_length_c                    16.602863
_cell_angle_alpha                 93.86738
_cell_angle_beta                  77.698708
_cell_angle_gamma                 93.019061
_cell_volume                      1093.38789249

loop_
_atom_site_label
_atom_site_type_symbol
_atom_type_description
_atom_site_fract_x
_atom_site_fract_y
_atom_site_fract_z
_atom_type_partial_charge
C1    C     C_R   0.543027 0.794540 0.500647 0.847151
C2    C     C_R   0.456562 0.206049 0.499101 0.926148
C3    C     C_2   0.548507 0.958170 0.517942 -0.231627
C4    C     C_2   0.446511 0.043028 0.483193 -0.189882
C5    C     C_R   0.474388 0.512303 0.655005 0.887768
C6    C     C_R   0.527480 0.496558 0.344959 0.882272
C7    C     C_R   0.462507 0.552019 0.743422 -0.053989
C8    C     C_R   0.559714 0.529175 0.257789 -0.053998
C9    C     C_R   0.583824 0.484530 0.779272 -0.164866
C10   C     C_R   0.482009 0.661107 0.239414 -0.201937
C11   C     C_R   0.603660 0.533551 0.857532 -0.174578
C12   C     C_R   0.530474 0.721192 0.162625 -0.158942
C13   C     C_R   0.504996 0.654132 0.901913 0.069778
C14   C     C_R   0.650625 0.645030 0.100347 0.078251
C15   C     C_R   0.378988 0.723024 0.868797 -0.006654
C16   C     C_R   0.730876 0.510402 0.116600 0.022487
C17   C     C_R   0.354541 0.670722 0.788969 0.027195
C18   C     C_R   0.686183 0.451331 0.196520 0.057678
C19   C     C_2   0.512812 0.687807 0.988550 -0.151511
C20   C     C_2   0.660915 0.684427 0.014907 -0.181629
H1    H     H_    0.665948 0.393564 0.745950 0.179827
H2    H     H_    0.386287 0.721191 0.285823 0.198426
H3    H     H_    0.783126 0.675806 0.970554 0.211832
H4    H     H_    0.389215 0.692720 0.032434 0.178568
H5    H     H_    0.467635 0.823939 0.150369 0.163301
H6    H     H_    0.694764 0.474143 0.884021 0.172480
N1    N     N_2   0.953500 0.457650 0.478520 -0.200809
N2    N     N_2   0.046500 0.542350 0.521480 -0.200506
O1    O     O_R   0.388470 0.738640 0.505270 -0.608480
O2    O     O_R   0.611530 0.261360 0.494730 -0.609298
O3    O     O_R   0.679650 0.711510 0.491500 -0.593713
O4    O     O_R   0.320350 0.288490 0.508500 -0.602684
O5    O     O_R   0.337210 0.515200 0.623500 -0.638466
O6    O     O_R   0.662790 0.484800 0.376500 -0.629887
O7    O     O_R   0.628380 0.488060 0.609730 -0.585228
O8    O     O_R   0.371620 0.511940 0.390270 -0.576835
Zn1   Zn    Zn3+2 0.305580 0.518120 0.509190 1.016118
Zn2   Zn    Zn3+2 0.694420 0.481880 0.490810 1.019858
C21   C     C_3   0.768696 0.304738 0.214954 -0.414451
C22   C     C_3   0.959001 0.336003 0.218695 -0.721755
H7    H     H_    0.037603 0.371217 0.158652 0.260281
H8    H     H_    0.971188 0.430376 0.266597 0.286898
H9    H     H_    0.012199 0.227049 0.234044 0.262479
H10   H     H_    0.700414 0.258006 0.274236 0.251198
H11   H     H_    0.757000 0.208949 0.167805 0.249457
C23   C     C_3   0.210756 0.739034 0.756065 -0.348507
C24   C     C_3   0.043116 0.639713 0.780753 -0.705819
H12   H     H_    0.040910 0.537205 0.736310 0.272615
H13   H     H_    0.029817 0.595660 0.843258 0.265793
H14   H     H_    0.929742 0.711925 0.782811 0.267095
H15   H     H_    0.187873 0.861407 0.780886 0.228681
H16   H     H_    0.244860 0.752448 0.688676 0.223207
C25   C     C_2   0.277159 0.851848 0.917999 0.895789
O9    O     O_2   0.353001 0.966822 0.943458 -0.604585
O10   O     O_R   0.096008 0.840270 0.936713 -0.793691
H17   H     H_    0.042509 0.934755 0.970968 0.366286
C26   C     C_2   0.854110 0.428810 0.048644 0.858433
O11   O     O_2   0.819160 0.295721 0.023966 -0.619312
O12   O     O_R   0.009030 0.506159 0.012219 -0.805807
H18   H     H_    0.082483 0.439352 0.966532 0.349411
C27   C     C_2   0.605035 0.014945 0.595125 0.908486
O13   O     O_2   0.757000 0.010754 0.599213 -0.547288
O14   O     O_R   0.483759 0.076617 0.662199 -0.833772
H19   H     H_    0.537312 0.111556 0.711097 0.339318
C28   C     C_2   0.390771 0.992090 0.405348 0.870322
O15   O     O_2   0.250091 0.924744 0.407077 -0.544095
O16   O     O_R   0.496774 0.030386 0.330118 -0.855944
H20   H     H_    0.439726 0.003088 0.281553 0.327463
C29   C     C_2   0.021924 0.312482 0.444983 1.107781
O17   O     O_2   0.976896 0.194277 0.482436 -0.538054
O18   O     O_R   0.132025 0.302924 0.367276 -0.835029
H21   H     H_    0.166875 0.192024 0.348569 0.337064
C30   C     C_2   0.973518 0.681321 0.561130 1.122013
O19   O     O_2   0.011456 0.805272 0.528445 -0.508795
O20   O     O_R   0.870762 0.678237 0.640352 -0.845088
H22   H     H_    0.833350 0.785429 0.664885 0.348306

loop_
_geom_bond_atom_site_label_1
_geom_bond_atom_site_label_2
_ccdc_geom_bond_type
C1    C3    S    
C2    C4    S    
O10   H17   S    
O3    Zn2   S    
C21   H10   S    
C14   C20   S    
C8    C18   A    
C11   C13   A    
C30   O19   D    
C19   C20   D    
N1    C29   S    
C20   H3    S    
C21   H11   S    
C12   H5    S    
O20   H22   S    
C7    C9    A    
C22   H9    S    
C22   H8    S    
C19   H4    S    
O12   H18   S    
C24   H13   S    
C16   C18   A    
O6    Zn2   S    
C25   O9    D    
C10   H2    S    
C9    C11   A    
C9    H1    S    
C26   O11   D    
C29   O17   D    
C21   C22   S    
C10   C12   A    
N2    Zn1   S    
N2    C30   S    
C5    O7    A    
C2    O4    A    
C22   H7    S    
C6    O8    A    
C24   H14   S    
C5    C7    S    
C16   C26   S    
C25   O10   S    
C13   C15   A    
C27   O13   D    
C14   C16   A    
C1    O1    A    
C26   O12   S    
C29   O18   S    
C2    O2    A    
C30   O20   S    
C3    C27   S    
O16   H20   S    
C15   C25   S    
C24   H12   S    
C23   H16   S    
C1    O3    A    
O7    Zn2   S    
O18   H21   S    
C17   C23   S    
O2    Zn2   S    
C27   O14   S    
C28   O15   D    
C23   C24   S    
O1    Zn1   S    
N1    N2    D    
C15   C17   A    
C18   C21   S    
C13   C19   S    
C4    C28   S    
O8    Zn1   S    
C6    C8    S    
N1    Zn2   S    
C11   H6    S    
C28   O16   S    
O4    Zn1   S    
C23   H15   S    
C8    C10   A    
O5    Zn1   S    
C3    C4    D    
C6    O6    A    
C12   C14   A    
O14   H19   S    
C7    C17   A    
C5    O5    A    
