data_mof_unit_32020.cif
_audit_creation_date              2012-12-10T19:00:43-0500
_audit_creation_method            fapswitch 2.2
_symmetry_space_group_name_H-M    P1
_symmetry_Int_Tables_number       1
_space_group_crystal_system       triclinic
_cell_length_a                    15.047846
_cell_length_b                    10.832225
_cell_length_c                    9.557138
_cell_angle_alpha                 89.911873
_cell_angle_beta                  89.338133
_cell_angle_gamma                 90.822616
_cell_volume                      1557.56254937

loop_
_atom_site_label
_atom_site_type_symbol
_atom_type_description
_atom_site_fract_x
_atom_site_fract_y
_atom_site_fract_z
_atom_type_partial_charge
C1    C     C_R   0.501628 0.262426 0.500109 0.858009
C2    C     C_R   0.908102 0.580811 0.432052 0.143543
C3    C     C_R   0.951517 0.311154 0.666585 0.408482
C4    C     C_R   0.044112 0.313780 0.664600 -0.194602
C5    C     C_R   0.092430 0.400568 0.584736 -0.019651
C6    C     C_R   0.046233 0.489040 0.506582 0.032122
C7    C     C_R   0.093821 0.579005 0.427274 0.131439
C8    C     C_R   0.048395 0.668967 0.352572 -0.175463
C9    C     C_R   0.956125 0.670638 0.356129 -0.135224
C10   C     C_R   0.186038 0.402488 0.583300 0.335093
C11   C     C_R   0.232239 0.492148 0.503053 -0.126618
C12   C     C_R   0.328893 0.497570 0.500804 0.868717
C13   C     C_R   0.186318 0.578664 0.424718 -0.300691
C14   C     C_R   0.505745 0.063701 0.626092 0.180483
C15   C     C_R   0.510471 0.129577 0.500527 -0.076913
C16   C     C_R   0.527000 0.065361 0.375543 -0.180596
C17   C     C_R   0.526605 0.936690 0.375576 -0.213174
C18   C     C_R   0.509773 0.871174 0.500396 -0.093249
C19   C     C_R   0.505209 0.936431 0.626142 0.126715
C20   C     C_3   0.436742 0.929532 0.740685 -0.479754
C21   C     C_3   0.437913 0.069431 0.740957 -0.436751
C22   C     C_R   0.571809 0.545056 0.071838 0.307391
C23   C     C_R   0.501490 0.737737 0.499961 0.780582
C24   C     C_R   0.433574 0.443777 0.075680 -0.079397
C25   C     C_R   0.433568 0.443831 0.926955 -0.068440
C26   C     C_R   0.571735 0.544384 0.924371 0.292095
C27   C     C_3   0.610221 0.671013 0.913072 -0.501881
C28   C     C_3   0.608434 0.674498 0.072074 -0.293164
C29   C     C_R   0.670936 0.498111 0.499685 0.864175
C30   C     C_R   0.816110 0.583608 0.434211 -0.237920
C31   C     C_R   0.767215 0.490819 0.500983 -0.146558
C32   C     C_R   0.809320 0.394585 0.572654 0.372145
C33   C     C_R   0.903481 0.396037 0.583627 -0.059338
C34   C     C_R   0.952500 0.488185 0.507460 -0.030541
Cu1   Cu    Cu3+1 0.500000 0.499980 0.640670 0.999069
Cu2   Cu    Cu3+1 0.500000 0.500020 0.359330 0.969426
H1    H     H_    0.782028 0.658785 0.384435 0.148255
H2    H     H_    0.535357 0.889395 0.277214 0.151915
H3    H     H_    0.372594 0.888589 0.705462 0.212860
H4    H     H_    0.462616 0.890245 0.839161 0.198967
H5    H     H_    0.374365 0.109152 0.706185 0.253686
H6    H     H_    0.465514 0.109991 0.838308 0.212702
H7    H     H_    0.379043 0.399817 0.132134 0.163644
H8    H     H_    0.379039 0.400058 0.872625 0.197950
H9    H     H_    0.677684 0.670707 0.864209 0.228548
H10   H     H_    0.564044 0.737069 0.865183 0.195810
H11   H     H_    0.560407 0.741856 0.114555 0.133136
H12   H     H_    0.077874 0.247681 0.729359 0.234602
H13   H     H_    0.223025 0.647553 0.363989 0.159594
H14   H     H_    0.084304 0.738669 0.292186 0.154226
H15   H     H_    0.922148 0.741665 0.298319 0.160173
H16   H     H_    0.536047 0.113796 0.277046 0.174173
N1    N     N_R   0.500570 0.500930 0.147930 -0.217185
N2    N     N_R   0.500570 0.500890 0.852020 -0.202293
O1    O     O_R   0.500000 0.319640 0.618810 -0.549638
O2    O     O_R   0.500010 0.319680 0.381230 -0.590230
O3    O     O_R   0.370250 0.499950 0.618800 -0.555229
O4    O     O_R   0.370260 0.499990 0.381220 -0.592870
O5    O     O_R   0.499990 0.680320 0.618770 -0.588535
O6    O     O_R   0.500000 0.680360 0.381190 -0.599927
O7    O     O_R   0.629740 0.500010 0.618780 -0.556086
O8    O     O_R   0.629750 0.500050 0.381200 -0.569175
C35   C     C_2   0.699528 0.686222 0.133635 0.434284
H17   H     H_    0.716230 0.767390 0.194784 0.049621
O9    O     O_2   0.755834 0.608142 0.111883 -0.516962
Cl1   Cl    Cl    0.741183 0.268805 0.629658 -0.538196
Cl2   Cl    Cl    0.903760 0.206338 0.788458 -0.498460
Cl3   Cl    Cl    0.246025 0.289888 0.676080 -0.708924

loop_
_geom_bond_atom_site_label_1
_geom_bond_atom_site_label_2
_ccdc_geom_bond_type
C7    C13   A    
C11   C12   S    
C35   O9    D    
C28   H11   S    
C6    C7    A    
C1    C15   S    
C10   Cl3   S    
C32   Cl1   S    
C19   C20   S    
C9    H15   S    
C2    C30   A    
C30   C31   A    
Cu1   O3    S    
C12   O4    A    
C32   C33   A    
C27   H9    S    
C17   C18   A    
C1    O1    A    
C24   C25   A    
C5    C10   A    
C29   C31   S    
C22   C28   S    
C4    C5    A    
C25   N2    A    
Cu1   N2    S    
C23   O5    A    
C23   O6    A    
C11   C13   A    
C2    C34   A    
C26   C27   S    
C13   H13   S    
C18   C23   S    
C21   H5    S    
C12   O3    A    
C26   N2    A    
C14   C21   S    
Cu1   O5    S    
Cu2   O2    S    
C1    O2    A    
C33   C34   A    
C22   N1    A    
Cu2   O4    S    
C17   H2    S    
C22   C26   A    
C5    C6    A    
C20   H4    S    
C31   C32   A    
C29   O7    A    
C6    C34   A    
C10   C11   A    
C3    C33   A    
C35   H17   S    
Cu1   O1    S    
C15   C16   A    
C28   C35   S    
C8    H14   S    
C7    C8    A    
C20   C21   S    
C27   H10   S    
Cu1   O7    S    
C18   C19   A    
C4    H12   S    
C25   H8    S    
C27   C28   S    
C20   H3    S    
C24   H7    S    
C14   C15   A    
C16   C17   A    
Cu2   N1    S    
Cu2   O6    S    
C24   N1    A    
C29   O8    A    
C2    C9    A    
C14   C19   A    
C21   H6    S    
C3    Cl2   S    
C3    C4    A    
C16   H16   S    
C30   H1    S    
C8    C9    A    
Cu2   O8    S    
Cu1   Cu2   S    
