data_mof_unit_39918.cif
_audit_creation_date              2012-10-26T19:40:40-0400
_audit_creation_method            fapswitch 2.2
_symmetry_space_group_name_H-M    P1
_symmetry_Int_Tables_number       1
_space_group_crystal_system       triclinic
_cell_length_a                    9.809237
_cell_length_b                    10.929165
_cell_length_c                    13.369254
_cell_angle_alpha                 91.610611
_cell_angle_beta                  72.749179
_cell_angle_gamma                 90.619282
_cell_volume                      1368.25430873

loop_
_atom_site_label
_atom_site_type_symbol
_atom_type_description
_atom_site_fract_x
_atom_site_fract_y
_atom_site_fract_z
_atom_type_partial_charge
C1    C     C_R   0.502090 0.733876 0.496262 0.584179
C2    C     C_R   0.378437 0.502814 0.815695 -0.019643
C3    C     C_2   0.604608 0.066347 0.491118 0.432380
C4    C     C_R   0.422732 0.496872 0.700113 0.604266
C5    C     C_2   0.487710 0.137212 0.529370 0.212569
C6    C     C_2   0.602873 0.935646 0.508276 0.432314
C7    C     C_2   0.508473 0.864094 0.479915 0.392018
C8    C     C_2   0.042959 0.551065 0.570125 0.348995
C9    C     C_2   0.893890 0.507526 0.581475 0.610398
C10   C     C_R   0.497433 0.266159 0.505301 0.583848
C11   C     C_R   0.576873 0.495862 0.300190 0.584574
C12   C     C_R   0.479711 0.531663 0.960193 -0.032267
C13   C     C_R   0.749466 0.347577 0.037665 0.492553
C14   C     C_R   0.620892 0.474487 0.186342 -0.025584
C15   C     C_R   0.266354 0.581873 0.868250 0.120163
C16   C     C_R   0.290436 0.665206 0.943413 0.214124
C17   C     C_R   0.403776 0.643422 0.984350 0.468941
C18   C     C_R   0.474837 0.465534 0.868934 -0.126592
C19   C     C_R   0.562945 0.485709 0.021368 -0.065066
C20   C     C_R   0.661877 0.389691 0.979517 -0.113726
C21   C     C_R   0.663599 0.331493 0.884240 0.539186
C22   C     C_R   0.565394 0.364038 0.833144 0.491377
C23   C     C_R   0.537696 0.521371 0.127555 0.397188
C24   C     C_R   0.731114 0.391871 0.139508 0.391632
Cu1   Cu    Cu3+1 0.361370 0.499980 0.499980 1.296044
Cu2   Cu    Cu3+1 0.638630 0.500020 0.500020 1.360485
F1    F     F_    0.811571 0.343995 0.195758 -0.494565
F2    F     F_    0.556056 0.292799 0.750468 -0.533750
F3    F     F_    0.729447 0.113903 0.429915 -0.517264
F4    F     F_    0.702004 0.889199 0.549569 -0.545790
F5    F     F_    0.418172 0.911566 0.430958 -0.575147
F6    F     F_    0.809863 0.475881 0.677289 -0.585786
F7    F     F_    0.914053 0.579862 0.427073 -0.513137
F8    F     F_    0.752211 0.235917 0.844211 -0.439092
F9    F     F_    0.848427 0.258928 0.998494 -0.456483
F10   F     F_    0.420341 0.587974 0.178840 -0.509989
F11   F     F_    0.443287 0.732056 0.043374 -0.490949
H1    H     H_    0.172109 0.175514 0.755697 0.425615
H2    H     H_    0.021666 0.800741 0.499437 0.397260
H3    H     H_    0.251257 0.223829 0.333043 0.385840
H4    H     H_    0.096017 0.407011 0.005554 0.381736
H5    H     H_    0.224568 0.886874 0.119490 0.403021
N1    N     N_2   0.152660 0.501340 0.501130 -0.121287
N2    N     N_2   0.846520 0.501370 0.501160 0.062943
O1    O     O_R   0.382960 0.678040 0.499980 -0.441898
O2    O     O_2   0.354482 0.983035 0.685143 -0.222624
O3    O     O_3   0.262536 0.206488 0.707707 -0.451585
O4    O     O_2   0.916921 0.736073 0.700112 -0.161043
O5    O     O_2   0.169087 0.701633 0.681361 -0.199767
O6    O     O_3   0.104455 0.798253 0.527402 -0.381164
O7    O     O_2   0.040660 0.276594 0.501650 -0.193585
O8    O     O_2   0.050308 0.399753 0.349396 -0.127743
O9    O     O_3   0.279163 0.305061 0.355475 -0.468279
O10   O     O_2   0.993298 0.633923 0.876664 -0.112610
O11   O     O_2   0.083483 0.431884 0.805078 -0.200553
O12   O     O_R   0.617100 0.678080 0.500020 -0.477132
O13   O     O_3   0.029533 0.474343 0.004828 -0.443445
O14   O     O_2   0.143653 0.849005 0.896250 -0.111803
O15   O     O_2   0.042077 0.754394 0.065906 -0.175405
O16   O     O_3   0.257560 0.902573 0.043433 -0.382361
O17   O     O_R   0.325800 0.499940 0.650950 -0.475119
O18   O     O_R   0.559930 0.499980 0.650990 -0.454889
O19   O     O_R   0.382900 0.321920 0.499980 -0.457653
O20   O     O_R   0.617040 0.321960 0.500020 -0.428831
O21   O     O_R   0.440070 0.500020 0.349010 -0.425283
O22   O     O_R   0.674200 0.500060 0.349050 -0.419459
O23   O     O_2   0.219080 0.052629 0.569550 -0.119433
S1    S     S_3+6 0.327770 0.088820 0.623987 0.139435
S2    S     S_3+6 0.057895 0.697961 0.624915 0.182827
S3    S     S_3+6 0.126055 0.370132 0.428085 0.218468
S4    S     S_3+6 0.089361 0.530809 0.884063 0.130837
S5    S     S_3+6 0.178566 0.794270 0.987543 0.212567

loop_
_geom_bond_atom_site_label_1
_geom_bond_atom_site_label_2
_ccdc_geom_bond_type
C12   C17   A    
C14   C23   A    
C2    C4    S    
C24   F1    S    
Cu2   O20   S    
O2    S1    D    
C6    C7    D    
H5    O16   S    
O7    S3    D    
Cu1   O1    S    
C2    C18   A    
C15   S4    S    
O15   S5    D    
C19   C23   A    
C19   C20   A    
C16   S5    S    
C8    N1    D    
O4    S2    D    
C3    C6    S    
C1    O1    A    
Cu1   N1    S    
C10   O19   A    
C18   C22   A    
Cu2   O18   S    
Cu2   N2    S    
C5    C10   S    
O5    S2    D    
C21   C22   A    
O13   S4    S    
C2    C15   A    
O14   S5    D    
H1    O3    S    
C14   C24   A    
C5    S1    S    
O9    S3    S    
Cu1   O17   S    
C12   C19   A    
C6    F4    S    
O6    S2    S    
C13   F9    S    
N1    S3    S    
O16   S5    S    
Cu1   O19   S    
C11   C14   S    
C10   O20   A    
C9    F6    S    
C7    F5    S    
C17   F11   S    
H4    O13   S    
O23   S1    D    
Cu2   O22   S    
C4    O18   A    
O3    S1    S    
H2    O6    S    
O8    S3    D    
C20   C21   A    
C23   F10   S    
H3    O9    S    
C12   C18   A    
C3    F3    S    
Cu1   O21   S    
C8    S2    S    
C16   C17   A    
C9    N2    D    
C22   F2    S    
C21   F8    S    
C13   C20   A    
Cu1   Cu2   S    
C1    C7    S    
F7    N2    S    
C11   O21   A    
C4    O17   A    
C1    O12   A    
O11   S4    D    
O10   S4    D    
C15   C16   A    
C13   C24   A    
C8    C9    S    
C3    C5    D    
C11   O22   A    
Cu2   O12   S    
