data_mof_unit_12269.cif
_audit_creation_date              2012-12-11T15:39:31-0500
_audit_creation_method            fapswitch 2.2
_symmetry_space_group_name_H-M    P1
_symmetry_Int_Tables_number       1
_space_group_crystal_system       triclinic
_cell_length_a                    14.299899
_cell_length_b                    14.813021
_cell_length_c                    33.240478
_cell_angle_alpha                 97.967919
_cell_angle_beta                  90.433917
_cell_angle_gamma                 118.682197
_cell_volume                      6095.24454376

loop_
_atom_site_label
_atom_site_type_symbol
_atom_type_description
_atom_site_fract_x
_atom_site_fract_y
_atom_site_fract_z
_atom_type_partial_charge
C1    C     C_R   0.616689 0.910375 0.436905 0.539108
C2    C     C_R   0.711524 0.435741 0.949572 0.558184
C3    C     C_R   0.532876 0.727558 0.762221 -0.044171
C4    C     C_R   0.537594 0.740169 0.721376 -0.075110
C5    C     C_R   0.635514 0.776636 0.703519 0.030066
C6    C     C_R   0.727768 0.796624 0.726674 -0.100171
C7    C     C_R   0.722786 0.783268 0.767397 -0.076085
C8    C     C_R   0.625834 0.750697 0.785444 0.063600
C9    C     C_R   0.562345 0.733457 0.631059 -0.106721
C10   C     C_R   0.558276 0.764561 0.593758 -0.110499
C11   C     C_R   0.718348 0.929597 0.616542 -0.118609
C12   C     C_R   0.710401 0.739308 0.950253 0.541959
C13   C     C_R   0.836089 0.460705 0.168057 0.121803
C14   C     C_R   0.836636 0.479467 0.128110 -0.097573
C15   C     C_R   0.744169 0.314187 0.240752 0.127631
C16   C     C_R   0.736425 0.302388 0.281702 -0.061974
C17   C     C_R   0.718699 0.371284 0.309760 0.027161
C18   C     C_R   0.710421 0.453448 0.297030 -0.103846
C19   C     C_R   0.719111 0.466286 0.256284 -0.123874
C20   C     C_R   0.734913 0.396407 0.227970 0.050893
C21   C     C_R   0.738082 0.409267 0.185096 0.052897
C22   C     C_R   0.586946 0.299830 0.358939 -0.154446
C23   C     C_R   0.594481 0.206476 0.456991 0.562607
C24   C     C_R   0.556874 0.260137 0.394832 -0.151636
C25   C     C_R   0.743924 0.325110 0.417546 0.096682
C26   C     C_R   0.774071 0.364165 0.380552 0.122668
C27   C     C_R   0.694305 0.348020 0.350945 0.005538
C28   C     C_R   0.633713 0.268052 0.423662 0.006667
C29   C     C_R   0.243348 0.877126 0.393547 0.020216
C30   C     C_R   0.232763 0.958851 0.380812 -0.127336
C31   C     C_R   0.207470 0.955257 0.339773 -0.116632
C32   C     C_R   0.722566 0.898182 0.653880 -0.102260
C33   C     C_R   0.191653 0.869766 0.311067 0.037270
C34   C     C_R   0.194855 0.784990 0.323763 -0.095313
C35   C     C_R   0.295371 0.892603 0.434416 0.545374
C36   C     C_R   0.220371 0.788440 0.364807 -0.110924
C37   C     C_R   0.193270 0.805272 0.163476 -0.092332
C38   C     C_R   0.166906 0.785384 0.121527 -0.113877
C39   C     C_R   0.088013 0.899019 0.130169 -0.122686
C40   C     C_R   0.114056 0.918407 0.172244 -0.112600
C41   C     C_R   0.163184 0.868479 0.189011 0.042334
C42   C     C_1   0.173282 0.872945 0.232321 -0.008189
C43   C     C_R   0.642222 0.801485 0.661900 0.035071
C44   C     C_1   0.180552 0.872301 0.268353 -0.011213
C45   C     C_R   0.109736 0.828346 0.104671 0.022408
C46   C     C_R   0.636330 0.879490 0.395061 0.017836
C47   C     C_R   0.614097 0.905446 0.551589 0.543033
C48   C     C_R   0.550597 0.803126 0.367628 -0.127042
C49   C     C_R   0.562232 0.792465 0.325850 -0.114254
C50   C     C_R   0.659650 0.857308 0.311203 0.035730
C51   C     C_R   0.747447 0.928199 0.338440 -0.105824
C52   C     C_R   0.736036 0.939167 0.380188 -0.115653
C53   C     C_R   0.776966 0.923441 0.174399 -0.090037
C54   C     C_R   0.633686 0.864590 0.586777 0.022798
C55   C     C_R   0.792783 0.908961 0.133102 -0.112713
C56   C     C_R   0.617876 0.754554 0.121110 -0.118681
C57   C     C_R   0.602169 0.769402 0.162307 -0.109797
C58   C     C_R   0.683228 0.851538 0.189184 0.043660
C59   C     C_R   0.589052 0.198290 0.571214 0.551311
C60   C     C_1   0.674488 0.855297 0.232199 -0.015670
C61   C     C_1   0.667729 0.855944 0.268230 -0.020165
C62   C     C_R   0.715211 0.821641 0.106446 0.022058
C63   C     C_R   0.618548 0.242688 0.614941 0.022790
C64   C     C_R   0.550122 0.269112 0.637754 -0.120300
C65   C     C_R   0.052122 0.781260 0.063835 0.546091
C66   C     C_R   0.561595 0.285222 0.680281 -0.093576
C67   C     C_R   0.641713 0.275637 0.700451 0.047796
C68   C     C_R   0.714480 0.256155 0.678177 -0.089974
C69   C     C_R   0.703265 0.240046 0.635620 -0.109029
C70   C     C_R   0.761516 0.353695 0.844173 -0.128327
C71   C     C_R   0.290554 0.887866 0.549082 0.553562
C72   C     C_R   0.775733 0.386885 0.885924 -0.145868
C73   C     C_R   0.582864 0.308574 0.889150 0.109930
C74   C     C_R   0.568897 0.274841 0.846444 0.150109
C75   C     C_R   0.659370 0.302485 0.824116 0.034543
C76   C     C_R   0.744494 0.487139 0.066183 0.549143
C77   C     C_1   0.650880 0.288569 0.780387 0.057151
C78   C     C_1   0.646627 0.282007 0.743895 0.037622
C79   C     C_R   0.687957 0.371061 0.908618 -0.002197
C80   C     C_R   0.077431 0.759453 0.910736 0.004876
C81   C     C_R   0.133830 0.863461 0.903525 0.083094
C82   C     C_R   0.163817 0.882971 0.864535 -0.088646
C83   C     C_R   0.740419 0.450154 0.105240 0.000509
C84   C     C_R   0.139328 0.800339 0.832885 0.020758
C85   C     C_R   0.090543 0.697355 0.840658 0.104330
C86   C     C_R   0.060454 0.677574 0.879555 -0.120773
C87   C     C_R   0.743046 0.789430 0.066392 0.538165
C88   C     C_R   0.256423 0.859065 0.775885 0.151926
C89   C     C_R   0.265949 0.872930 0.734778 0.143179
C90   C     C_R   0.173562 0.847297 0.709760 0.028543
C91   C     C_R   0.074564 0.813697 0.725816 -0.115539
C92   C     C_R   0.065549 0.801438 0.766412 -0.109993
C93   C     C_R   0.155194 0.821673 0.791198 0.030112
C94   C     C_R   0.202242 0.940375 0.651273 -0.125111
C95   C     C_R   0.642852 0.397206 0.122218 -0.123931
C96   C     C_R   0.229219 0.950099 0.611387 -0.125679
C97   C     C_R   0.198877 0.772326 0.599838 -0.090665
C98   C     C_R   0.023818 0.733377 0.948125 0.559742
C99   C     C_R   0.171895 0.762297 0.639752 0.113339
C100  C     C_R   0.178486 0.848457 0.666031 0.044541
C101  C     C_R   0.233162 0.867923 0.586070 0.002138
C102  C     C_R   0.662762 0.740134 0.911201 -0.024726
C103  C     C_R   0.606862 0.646802 0.883616 -0.102336
C104  C     C_R   0.588599 0.648967 0.842556 0.079051
C105  C     C_R   0.624270 0.745390 0.829097 0.030886
C106  C     C_R   0.671168 0.838436 0.857513 0.093814
C107  C     C_R   0.641778 0.376392 0.161884 -0.129656
C108  C     C_R   0.690753 0.835320 0.898279 -0.097010
Cr1   Cr    Cr6+3 0.424820 0.846020 0.489780 1.036919
Cr2   Cr    Cr6+3 0.657880 0.078580 0.505700 1.064319
Cr3   Cr    Cr6+3 0.417280 0.075360 0.504550 1.024214
Cr4   Cr    Cr6+3 0.903360 0.812540 0.006510 1.068982
Cr5   Cr    Cr6+3 0.914630 0.587050 0.006280 1.040663
Cr6   Cr    Cr6+3 0.673560 0.582680 0.008540 1.056237
H1    H     H_    0.567866 0.374571 0.105267 0.145353
H2    H     H_    0.823356 0.978199 0.327301 0.122917
H3    H     H_    0.803535 0.998551 0.400535 0.144583
H4    H     H_    0.472657 0.756473 0.378066 0.134147
H5    H     H_    0.529222 0.713608 0.173538 0.116041
H6    H     H_    0.493993 0.737000 0.304886 0.117104
H7    H     H_    0.857031 0.432341 0.899811 0.151995
H8    H     H_    0.777306 0.249440 0.693642 0.135166
H9    H     H_    0.756906 0.219291 0.619026 0.138841
H10   H     H_    0.483937 0.271464 0.622817 0.134956
H11   H     H_    0.505494 0.301206 0.697378 0.147486
H12   H     H_    0.184549 0.730586 0.102669 0.138647
H13   H     H_    0.017974 0.597446 0.884688 0.143302
H14   H     H_    0.740270 0.237324 0.291446 0.144440
H15   H     H_    0.203118 0.962468 0.858511 0.177809
H16   H     H_    0.200085 0.707640 0.580623 0.158924
H17   H     H_    0.585865 0.572752 0.893106 0.167985
H18   H     H_    0.733273 0.907783 0.919419 0.161872
H19   H     H_    0.784668 0.952198 0.677377 0.123442
H20   H     H_    0.465648 0.725407 0.704197 0.153437
H21   H     H_    0.457698 0.702268 0.775970 0.168535
H22   H     H_    0.803778 0.824016 0.713426 0.104944
H23   H     H_    0.231577 0.766507 0.176203 0.132973
H24   H     H_    0.794953 0.800708 0.785198 0.121710
H25   H     H_    0.500589 0.657894 0.636427 0.122774
H26   H     H_    0.492606 0.712287 0.571223 0.135487
H27   H     H_    0.566010 0.337488 0.175011 0.124540
H28   H     H_    0.777339 0.007151 0.612045 0.132317
H29   H     H_    0.711468 0.529492 0.246576 0.121732
H30   H     H_    0.472211 0.217564 0.398854 0.140509
H31   H     H_    0.182311 0.718249 0.301694 0.145571
H32   H     H_    0.250061 0.028343 0.402110 0.129323
H33   H     H_    0.840066 0.987394 0.195092 0.133308
H34   H     H_    0.228038 0.724388 0.373563 0.149660
H35   H     H_    0.556545 0.686862 0.101273 0.132248
H36   H     H_    0.831254 0.373530 0.827132 0.159278
H37   H     H_    0.003871 0.794372 0.706581 0.125833
H38   H     H_    0.987846 0.773363 0.778385 0.129930
H39   H     H_    0.206854 0.006749 0.671419 0.135194
H40   H     H_    0.254758 0.024543 0.601504 0.138811
H41   H     H_    0.694788 0.505805 0.318434 0.127628
H42   H     H_    0.525525 0.287774 0.336229 0.125723
H43   H     H_    0.090491 0.967524 0.191828 0.113954
H44   H     H_    0.043062 0.932414 0.118173 0.130331
H45   H     H_    0.912948 0.522450 0.115869 0.154692
H46   H     H_    0.204866 0.021102 0.330218 0.113229
H47   H     H_    0.868699 0.961647 0.122754 0.134020
I1    I     I_    0.985627 0.520417 0.202176 -0.374316
I2    I     I_    0.054779 0.568430 0.794420 -0.338013
I3    I     I_    0.763124 0.202373 0.199494 -0.361719
I4    I     I_    0.519999 0.505314 0.801724 -0.354164
I5    I     I_    0.722146 0.986903 0.840218 -0.299972
I6    I     I_    0.864512 0.356817 0.464248 -0.284771
I7    I     I_    0.938286 0.446908 0.368234 -0.322492
I8    I     I_    0.413209 0.186012 0.814547 -0.256187
I9    I     I_    0.445915 0.262597 0.923506 -0.210972
I10   I     I_    0.177056 0.995215 0.949376 -0.257648
I11   I     I_    0.133207 0.619436 0.659915 -0.331611
I12   I     I_    0.417875 0.930287 0.709757 -0.326046
I13   I     I_    0.391346 0.888327 0.814552 -0.249742
O1    O     O_R   0.318160 0.824460 0.443680 -0.509510
O2    O     O_R   0.668160 0.499860 0.053480 -0.505691
O3    O     O_R   0.689170 0.693840 0.050110 -0.502031
O4    O     O_R   0.525040 0.857250 0.449830 -0.504852
O5    O     O_R   0.803860 0.812940 0.962540 -0.496780
O6    O     O_R   0.982950 0.787950 0.964120 -0.467594
O7    O     O_R   0.007050 0.649970 0.960540 -0.517262
O8    O     O_R   0.807910 0.482370 0.965590 -0.504418
O9    O     O_R   0.643310 0.460980 0.963840 -0.478021
O10   O     O_R   0.666140 0.657800 0.967020 -0.496051
O11   O     O_3   0.830520 0.660760 0.007110 -0.259517
O12   O     O_R   0.645130 0.163230 0.552140 -0.491713
O13   O     O_R   0.684760 0.998800 0.456360 -0.503116
O14   O     O_R   0.647540 0.166310 0.470260 -0.465369
O15   O     O_R   0.500960 0.181750 0.467450 -0.521733
O16   O     O_R   0.331100 0.981120 0.457080 -0.504833
O17   O     O_R   0.315560 0.821140 0.532010 -0.507109
O18   O     O_R   0.522630 0.854180 0.531710 -0.500051
O19   O     O_R   0.682160 0.995480 0.544690 -0.515652
O20   O     O_R   0.498360 0.178430 0.555780 -0.517491
O21   O     O_R   0.328690 0.978040 0.538950 -0.501632
O22   O     O_3   0.499990 0.999990 0.500010 -0.249319
O23   O     O_R   0.828710 0.851830 0.052170 -0.512735
O24   O     O_R   0.005980 0.823990 0.047210 -0.491941
O25   O     O_R   0.031900 0.688850 0.050170 -0.515037
O26   O     O_R   0.830940 0.518420 0.048680 -0.499977

loop_
_geom_bond_atom_site_label_1
_geom_bond_atom_site_label_2
_ccdc_geom_bond_type
C41   C42   S    
C72   H7    S    
C73   C74   A    
C53   C55   A    
C19   C20   A    
C70   H36   S    
C89   I12   S    
C8    C105  S    
C81   C82   A    
C90   C91   A    
C7    C8    A    
C12   O10   A    
C22   H42   S    
C77   C78   T    
C25   I6    S    
C25   C28   A    
C29   C36   A    
C26   I7    S    
C26   C27   A    
C37   C38   A    
Cr6   O11   S    
C42   C44   T    
Cr1   O22   S    
C5    C6    A    
C106  I5    S    
Cr1   O17   S    
C97   H16   S    
C72   C79   A    
Cr5   O26   S    
C30   C31   A    
C34   H31   S    
C1    C46   S    
C49   H6    S    
C69   H9    S    
Cr1   O18   S    
C58   C60   S    
C15   C16   A    
C55   C62   A    
C46   C52   A    
C53   H33   S    
C88   I13   S    
C56   C57   A    
C59   O12   A    
C17   C18   A    
C18   C19   A    
C2    O8    A    
Cr4   O24   S    
C47   O18   A    
C57   H5    S    
C38   C45   A    
C80   C86   A    
C2    C79   S    
C103  C104  A    
C38   H12   S    
C104  I4    S    
C65   O25   A    
Cr1   O4    S    
C36   H34   S    
C96   H40   S    
C63   C69   A    
C95   H1    S    
C16   C17   A    
C74   I8    S    
C92   H38   S    
C6    H22   S    
C31   C33   A    
C102  C108  A    
C107  H27   S    
C9    C10   A    
C3    H21   S    
C31   H46   S    
Cr3   O22   S    
C39   C45   A    
C56   C62   A    
C52   H3    S    
Cr6   O2    S    
C66   C67   A    
C71   C101  S    
C83   C95   A    
C37   H23   S    
C13   C14   A    
C67   C78   S    
C10   H26   S    
C14   C83   A    
C76   C83   S    
C90   C100  S    
C104  C105  A    
C97   C99   A    
C30   H32   S    
C1    O13   A    
C59   O20   A    
Cr5   O25   S    
C15   C20   A    
C46   C48   A    
Cr2   O13   S    
C9    C43   A    
C74   C75   A    
C67   C68   A    
C17   C27   S    
C40   H43   S    
C76   O2    A    
C84   C85   A    
C55   H47   S    
C3    C8    A    
C76   O26   A    
C68   H8    S    
C91   C92   A    
C68   C69   A    
C48   H4    S    
C99   I11   S    
C25   C26   A    
C85   C86   A    
C51   C52   A    
C60   C61   T    
C64   C66   A    
C12   C102  S    
C29   C30   A    
C87   O3    A    
C75   C77   S    
C1    O4    A    
C15   I3    S    
C71   O21   A    
Cr5   O8    S    
C94   C100  A    
Cr6   O3    S    
Cr2   O14   S    
C20   C21   S    
Cr2   O19   S    
C50   C51   A    
C73   C79   A    
C13   C21   A    
C21   C107  A    
C23   C28   S    
C65   O24   A    
C82   H15   S    
C94   C96   A    
C16   H14   S    
Cr2   O12   S    
Cr5   O11   S    
C11   C54   A    
C95   C107  A    
C47   C54   S    
C23   O14   A    
C40   C41   A    
C11   C32   A    
Cr3   O15   S    
C35   O16   A    
C82   C84   A    
C22   C27   A    
Cr4   O5    S    
C39   H44   S    
C45   C65   S    
C85   I2    S    
C22   C24   A    
Cr5   O7    S    
C87   O23   A    
C98   O6    A    
C3    C4    A    
Cr4   O23   S    
C23   O15   A    
Cr4   O11   S    
C4    H20   S    
C105  C106  A    
C56   H35   S    
C88   C93   A    
C48   C49   A    
C19   H29   S    
C80   C98   S    
C86   H13   S    
C33   C44   S    
C47   O19   A    
C24   C28   A    
C80   C81   A    
C84   C93   S    
C7    H24   S    
C53   C58   A    
Cr1   O1    S    
C6    C7    A    
C62   C87   S    
C29   C35   S    
C59   C63   S    
C51   H2    S    
C66   H11   S    
Cr4   O6    S    
C14   H45   S    
C35   O1    A    
C98   O7    A    
C73   I9    S    
C64   H10   S    
C99   C100  A    
C91   H37   S    
C9    H25   S    
C57   C58   A    
C32   H19   S    
C106  C108  A    
C24   H30   S    
C94   H39   S    
Cr6   O10   S    
C92   C93   A    
C32   C43   A    
C33   C34   A    
Cr2   O22   S    
C34   C36   A    
C2    O9    A    
C81   I10   S    
C37   C41   A    
C102  C103  A    
C10   C54   A    
C11   H28   S    
C108  H18   S    
Cr3   O20   S    
C63   C64   A    
C39   C40   A    
C4    C5    A    
C12   O5    A    
C88   C89   A    
Cr3   O16   S    
C13   I1    S    
C49   C50   A    
C70   C75   A    
C50   C61   S    
C5    C43   S    
C70   C72   A    
C71   O17   A    
C89   C90   A    
C96   C101  A    
C103  H17   S    
C97   C101  A    
C18   H41   S    
Cr6   O9    S    
Cr3   O21   S    
