data_mof_unit_26021.cif
_audit_creation_date              2012-12-10T17:23:33-0500
_audit_creation_method            fapswitch 2.2
_symmetry_space_group_name_H-M    P1
_symmetry_Int_Tables_number       1
_space_group_crystal_system       triclinic
_cell_length_a                    10.246257
_cell_length_b                    10.498997
_cell_length_c                    15.742823
_cell_angle_alpha                 89.782194
_cell_angle_beta                  81.071553
_cell_angle_gamma                 94.795608
_cell_volume                      1666.92116788

loop_
_atom_site_label
_atom_site_type_symbol
_atom_type_description
_atom_site_fract_x
_atom_site_fract_y
_atom_site_fract_z
_atom_type_partial_charge
C1    C     C_R   0.555427 0.734480 0.497030 0.824029
C2    C     C_3   0.524850 0.389934 0.969874 -0.006039
C3    C     C_3   0.588671 0.595933 0.963528 0.017411
C4    C     C_3   0.403801 0.414628 0.037236 0.012503
C5    C     C_1   0.500599 0.501881 0.750445 -0.152984
C6    C     C_1   0.499287 0.500859 0.249484 -0.160526
C7    C     C_3   0.376434 0.530970 0.983509 0.037972
C8    C     C_3   0.616371 0.479756 0.016631 0.031300
C9    C     C_3   0.497842 0.505527 0.916735 0.057767
C10   C     C_3   0.495360 0.504265 0.083795 0.049746
C11   C     C_1   0.500162 0.503629 0.825624 0.004444
C12   C     C_R   0.444530 0.265453 0.508092 0.821231
C13   C     C_1   0.497507 0.502313 0.174504 0.005933
C14   C     C_2   0.586401 0.870852 0.506376 -0.198696
C15   C     C_2   0.413380 0.128856 0.523502 -0.220083
C16   C     C_3   0.685934 0.701223 0.916290 -0.417103
C17   C     C_3   0.760939 0.781142 0.977570 -0.351776
C18   C     C_3   0.837814 0.898903 0.931380 -0.860607
C19   C     C_3   0.301033 0.315761 0.087066 -0.426316
C20   C     C_3   0.246101 0.214664 0.028932 -0.336468
C21   C     C_3   0.133570 0.127592 0.079365 -0.861297
C22   C     C_2   0.433895 0.747445 0.067705 0.366098
C23   C     C_2   0.500665 0.930725 0.563099 -0.109644
C24   C     C_2   0.558759 0.260954 0.936682 0.351311
C25   C     C_3   0.748557 0.442747 0.038398 -0.424681
C26   C     C_3   0.848437 0.425503 0.956710 -0.327600
C27   C     C_3   0.950806 0.335329 0.973066 -0.900514
C28   C     C_3   0.242464 0.559664 0.959593 -0.412438
C29   C     C_3   0.251942 0.684983 0.907289 -0.347892
C30   C     C_3   0.125169 0.700004 0.870523 -0.869295
C31   C     C_2   0.295008 0.065643 0.491580 0.453515
C32   C     C_2   0.705137 0.934584 0.450959 0.450996
C33   C     C_2   0.112740 0.615674 0.611729 0.562134
C34   C     C_2   0.498608 0.068391 0.563273 -0.087143
C35   C     C_2   0.878491 0.342900 0.412902 0.591244
C36   C     C_2   0.927979 0.518023 0.502160 -0.093036
C37   C     C_2   0.075496 0.508747 0.484077 -0.033191
C38   C     C_R   0.500122 0.500225 0.661782 0.896095
C39   C     C_R   0.499865 0.499929 0.338201 0.902754
C40   C     C_3   0.467173 0.620076 0.031259 -0.009426
H1    H     H_    0.580696 0.121987 0.586982 0.206471
H2    H     H_    0.757703 0.657100 0.867305 0.211303
H3    H     H_    0.628224 0.764200 0.882207 0.203433
H4    H     H_    0.170546 0.075043 0.130939 0.277228
H5    H     H_    0.051836 0.184037 0.108852 0.261533
H6    H     H_    0.094178 0.056979 0.035406 0.248581
H7    H     H_    0.210138 0.261343 0.974789 0.231130
H8    H     H_    0.325005 0.153694 0.001739 0.227736
H9    H     H_    0.348367 0.266912 0.135581 0.204491
H10   H     H_    0.218984 0.367447 0.121725 0.214439
H11   H     H_    0.438715 0.829604 0.025078 0.050722
H12   H     H_    0.418230 0.876762 0.603123 0.192622
H13   H     H_    0.580915 0.189090 0.980781 0.062249
H14   H     H_    0.004914 0.373224 0.024691 0.265246
H15   H     H_    0.901826 0.238917 0.992394 0.269291
H16   H     H_    0.021971 0.326116 0.913084 0.251250
H17   H     H_    0.798630 0.386385 0.903524 0.248059
H18   H     H_    0.899600 0.519499 0.934582 0.220336
H19   H     H_    0.789874 0.517093 0.079152 0.196007
H20   H     H_    0.728288 0.352149 0.076755 0.201806
H21   H     H_    0.101896 0.616914 0.830416 0.257437
H22   H     H_    0.042303 0.708196 0.923843 0.262030
H23   H     H_    0.117272 0.461616 0.426306 0.176823
H24   H     H_    0.137319 0.788241 0.829965 0.264260
H25   H     H_    0.268505 0.767740 0.948910 0.215568
H26   H     H_    0.335591 0.688259 0.853195 0.225229
H27   H     H_    0.208505 0.479157 0.920806 0.213740
H28   H     H_    0.169740 0.565345 0.019331 0.208548
H29   H     H_    0.238962 0.121145 0.453982 0.096215
H30   H     H_    0.761323 0.879834 0.401936 0.070311
H31   H     H_    0.141573 0.585618 0.671555 0.034163
H32   H     H_    0.822602 0.316867 0.361542 0.059418
H33   H     H_    0.888442 0.589580 0.545782 0.201554
H34   H     H_    0.905072 0.870936 0.873521 0.276804
H35   H     H_    0.768042 0.964517 0.911442 0.272097
H36   H     H_    0.897804 0.950575 0.975402 0.244304
H37   H     H_    0.691461 0.814008 0.032586 0.230542
H38   H     H_    0.830676 0.722311 0.003947 0.217696
N1    N     N_2   0.842700 0.448880 0.465440 -0.179973
N2    N     N_2   0.157300 0.551120 0.534560 -0.155956
O1    O     O_R   0.431060 0.692470 0.506960 -0.563340
O2    O     O_2   0.561975 0.236160 0.860785 -0.572552
O3    O     O_2   0.257598 0.953362 0.507170 -0.513051
O4    O     O_2   0.742731 0.046497 0.459507 -0.538433
O5    O     O_2   0.052934 0.711352 0.610395 -0.578028
O6    O     O_2   0.962562 0.274259 0.428805 -0.586388
O7    O     O_R   0.568940 0.307530 0.493040 -0.584541
O8    O     O_R   0.651120 0.659650 0.484770 -0.622246
O9    O     O_R   0.348880 0.340350 0.515230 -0.613756
O10   O     O_R   0.389990 0.516420 0.634310 -0.642017
O11   O     O_R   0.610010 0.483580 0.365690 -0.637961
O12   O     O_R   0.610050 0.483600 0.612130 -0.599312
O13   O     O_R   0.389950 0.516400 0.387870 -0.598509
O14   O     O_2   0.403099 0.760049 0.145033 -0.559645
Zn1   Zn    Zn3+2 0.353060 0.521920 0.514810 0.984123
Zn2   Zn    Zn3+2 0.646940 0.478080 0.485190 0.961184

loop_
_geom_bond_atom_site_label_1
_geom_bond_atom_site_label_2
_ccdc_geom_bond_type
O8    Zn2   S    
C18   H35   S    
C30   H24   S    
C19   C20   S    
C27   H14   S    
O10   Zn1   S    
C26   C27   S    
C28   C29   S    
C28   H28   S    
C5    C11   T    
O1    Zn1   S    
C35   O6    D    
C27   H15   S    
C1    O1    A    
C38   O12   A    
O12   Zn2   S    
C31   O3    D    
C10   C40   S    
C24   O2    D    
C39   O13   A    
C33   O5    D    
O11   Zn2   S    
C4    C19   S    
C16   C17   S    
C7    C40   S    
C25   H20   S    
C15   C34   D    
C1    O8    A    
C18   H34   S    
C5    C38   S    
C8    C25   S    
C22   O14   D    
C34   H1    S    
C4    C7    S    
C39   O11   A    
C37   H23   S    
C21   H5    S    
C32   O4    D    
C37   N2    D    
C12   O9    A    
C28   H27   S    
C3    C8    S    
C27   H16   S    
C32   H30   S    
C25   C26   S    
C36   N1    D    
C7    C28   S    
C14   C23   D    
O9    Zn1   S    
C2    C4    S    
C29   C30   S    
C3    C9    S    
C21   H4    S    
C9    C11   S    
C19   H9    S    
C12   C15   S    
C23   C34   S    
C22   C40   S    
O7    Zn2   S    
C17   H37   S    
C17   C18   S    
N2    Zn1   S    
C26   H18   S    
C16   H3    S    
C20   H8    S    
C29   H25   S    
C8    C10   S    
C35   H32   S    
C30   H22   S    
C2    C24   S    
C4    C10   S    
C16   H2    S    
C21   H6    S    
C7    C9    S    
C36   C37   S    
C18   H36   S    
C12   O7    A    
C2    C8    S    
C14   C32   S    
C10   C13   S    
C3    C40   S    
C33   N2    S    
C15   C31   S    
C38   O10   A    
C24   H13   S    
N1    Zn2   S    
C6    C13   T    
C19   H10   S    
C23   H12   S    
C35   N1    S    
C17   H38   S    
C26   H17   S    
C20   H7    S    
C36   H33   S    
C33   H31   S    
C29   H26   S    
C31   H29   S    
C20   C21   S    
O13   Zn1   S    
C30   H21   S    
C6    C39   S    
C1    C14   S    
C25   H19   S    
C2    C9    S    
C3    C16   S    
C22   H11   S    
