data_mof_unit_33820.cif
_audit_creation_date              2012-10-26T20:19:13-0400
_audit_creation_method            fapswitch 2.2
_symmetry_space_group_name_H-M    P1
_symmetry_Int_Tables_number       1
_space_group_crystal_system       triclinic
_cell_length_a                    15.138367
_cell_length_b                    13.039348
_cell_length_c                    11.818707
_cell_angle_alpha                 100.687982
_cell_angle_beta                  93.420929
_cell_angle_gamma                 91.391029
_cell_volume                      2286.90354573

loop_
_atom_site_label
_atom_site_type_symbol
_atom_type_description
_atom_site_fract_x
_atom_site_fract_y
_atom_site_fract_z
_atom_type_partial_charge
C1    C     C_R   0.501803 0.298775 0.477680 0.497615
C2    C     C_R   0.481318 0.878905 0.647323 -0.046697
C3    C     C_R   0.516908 0.137385 0.562138 -0.030981
C4    C     C_R   0.461201 0.858304 0.438813 -0.031276
C5    C     C_R   0.494337 0.030874 0.555323 -0.017798
C6    C     C_R   0.480113 0.965661 0.444789 -0.022984
C7    C     C_R   0.407708 0.411479 0.024220 0.232223
C8    C     C_R   0.591544 0.589875 0.976582 0.228079
C9    C     C_R   0.421090 0.414586 0.143775 0.134723
C10   C     C_R   0.578437 0.585997 0.856679 0.148270
C11   C     C_R   0.537318 0.541780 0.157687 0.109706
C12   C     C_R   0.491772 0.699879 0.522442 0.542624
C13   C     C_R   0.462937 0.458408 0.843049 0.107972
C14   C     C_R   0.532703 0.533826 0.034445 -0.054647
C15   C     C_R   0.466866 0.467465 0.966408 -0.052936
C16   C     C_R   0.328997 0.500304 0.500971 0.593362
C17   C     C_R   0.671354 0.503398 0.499467 0.543015
C18   C     C_R   0.818931 0.601374 0.523534 0.231934
C19   C     C_R   0.181151 0.406542 0.470434 0.225730
C20   C     C_R   0.768786 0.505458 0.499292 0.008790
C21   C     C_R   0.232361 0.499942 0.505704 0.000864
C22   C     C_R   0.811923 0.409892 0.475766 0.231896
C23   C     C_R   0.038493 0.309784 0.468076 0.317485
C24   C     C_R   0.192636 0.592291 0.555083 0.244797
C25   C     C_R   0.904132 0.408185 0.496781 -0.001170
C26   C     C_R   0.099246 0.595773 0.554471 -0.010140
C27   C     C_R   0.954646 0.502520 0.527091 -0.137043
C28   C     C_R   0.048100 0.500822 0.526762 -0.144522
C29   C     C_R   0.911830 0.598774 0.547558 0.004965
C30   C     C_R   0.089603 0.404938 0.488140 -0.009607
C31   C     C_R   0.947129 0.312197 0.481858 0.324607
C32   C     C_R   0.056712 0.692079 0.580530 0.309434
C33   C     C_3   0.727427 0.744098 0.537487 -0.033279
C34   C     C_R   0.963641 0.692277 0.583980 0.319374
C35   C     C_3   0.265968 0.265498 0.481852 -0.044020
C36   C     C_3   0.262090 0.412534 0.967233 -0.111633
C37   C     C_3   0.737715 0.592440 0.032499 -0.100482
C38   C     C_3   0.709010 0.271457 0.443734 -0.054339
C39   C     C_3   0.259111 0.688874 0.719810 -0.089609
C40   C     C_3   0.881160 0.208786 0.589279 -0.146871
C41   C     C_3   0.107082 0.855630 0.680567 -0.058800
C42   C     C_3   0.079298 0.147681 0.501958 -0.071945
C43   C     C_3   0.906219 0.788095 0.740285 -0.154077
C44   C     C_1   0.411801 0.797076 0.338536 0.263013
C45   C     C_R   0.478454 0.813576 0.537168 -0.032949
C46   C     C_1   0.567587 0.194524 0.663786 0.224671
C47   C     C_1   0.474548 0.836704 0.752047 0.247765
C48   C     C_1   0.510511 0.158326 0.248548 0.244734
C49   C     C_1   0.498885 0.942776 0.232007 0.228959
C50   C     C_1   0.470762 0.053215 0.766861 0.229788
C51   C     C_1   0.406032 0.379146 0.772329 0.359026
C52   C     C_1   0.597048 0.617354 0.229934 0.362911
C53   C     C_1   0.632074 0.655836 0.806971 0.333786
C54   C     C_1   0.368510 0.343688 0.193898 0.341592
C55   C     C_R   0.504848 0.183219 0.463450 -0.074303
C56   C     C_R   0.489578 0.008829 0.344100 -0.032636
C57   C     C_R   0.484410 0.987602 0.655873 -0.039755
C58   C     C_R   0.498326 0.117479 0.353141 -0.056681
Cu1   Cu    Cu3+1 0.506660 0.507730 0.615930 0.966017
Cu2   Cu    Cu3+1 0.493340 0.492270 0.384070 1.016080
H1    H     H_    0.668315 0.697853 0.549624 0.136573
H2    H     H_    0.758160 0.569146 0.942730 0.102250
H3    H     H_    0.728187 0.521998 0.071809 0.129873
H4    H     H_    0.792696 0.641061 0.083457 0.173705
H5    H     H_    0.693238 0.306081 0.533359 0.095412
H6    H     H_    0.730608 0.190626 0.441854 0.165569
H7    H     H_    0.649222 0.264673 0.385164 0.155274
H8    H     H_    0.197545 0.673237 0.761874 0.076398
H9    H     H_    0.282865 0.769761 0.757611 0.153366
H10   H     H_    0.310624 0.635721 0.742061 0.153050
H11   H     H_    0.836123 0.269599 0.628364 0.113632
H12   H     H_    0.704454 0.804567 0.488904 0.152727
H13   H     H_    0.942380 0.212209 0.646874 0.088830
H14   H     H_    0.847606 0.131550 0.585611 0.151924
H15   H     H_    0.108490 0.817759 0.757471 0.078165
H16   H     H_    0.051670 0.909791 0.681290 0.158594
H17   H     H_    0.169107 0.904116 0.687593 0.141264
H18   H     H_    0.019423 0.095187 0.489654 0.186000
H19   H     H_    0.089774 0.189073 0.593348 0.061202
H20   H     H_    0.135997 0.096206 0.483914 0.137116
H21   H     H_    0.967272 0.781796 0.795093 0.091995
H22   H     H_    0.858079 0.724907 0.749669 0.130825
H23   H     H_    0.756979 0.786867 0.620706 0.164483
H24   H     H_    0.877012 0.863982 0.774182 0.155898
H25   H     H_    0.233098 0.263093 0.563040 0.116499
H26   H     H_    0.333227 0.300260 0.501482 0.147501
H27   H     H_    0.272896 0.183907 0.436583 0.158678
H28   H     H_    0.273467 0.481880 0.926638 0.097989
H29   H     H_    0.241709 0.437715 0.056792 0.131543
H30   H     H_    0.206369 0.364975 0.916647 0.151717
N1    N     N_R   0.516670 0.519360 0.790130 -0.306037
N2    N     N_1   0.645189 0.679017 0.286396 -0.233597
N3    N     N_1   0.676153 0.714210 0.771250 -0.364690
N4    N     N_1   0.326168 0.284371 0.230868 -0.215235
N5    N     N_R   0.483330 0.480640 0.209870 -0.306574
N6    N     N_1   0.372107 0.748067 0.259185 -0.265348
N7    N     N_1   0.608382 0.240026 0.744263 -0.289154
N8    N     N_1   0.468580 0.804132 0.836065 -0.270338
N9    N     N_1   0.521339 0.189509 0.164695 -0.240353
N10   N     N_1   0.506717 0.890755 0.142742 -0.213322
N11   N     N_1   0.459544 0.105012 0.855211 -0.205368
N12   N     N_1   0.360230 0.313488 0.718611 -0.324743
O1    O     O_R   0.504720 0.354460 0.582000 -0.495701
O2    O     O_3   0.217907 0.319707 0.407459 -0.501127
O3    O     O_3   0.337405 0.350592 0.965004 -0.555122
O4    O     O_3   0.660961 0.652100 0.036239 -0.556856
O5    O     O_3   0.772427 0.327907 0.395704 -0.512325
O6    O     O_3   0.245829 0.680358 0.598870 -0.522921
O7    O     O_3   0.899781 0.219128 0.475816 -0.522062
O8    O     O_3   0.103923 0.783796 0.575074 -0.496042
O9    O     O_3   0.075654 0.215971 0.421904 -0.488421
O10   O     O_3   0.923647 0.785025 0.623292 -0.543385
O11   O     O_R   0.495280 0.645540 0.418000 -0.504752
O12   O     O_R   0.493480 0.341410 0.386200 -0.504984
O13   O     O_R   0.506520 0.658590 0.613800 -0.500640
O14   O     O_R   0.375880 0.506510 0.597910 -0.530459
O15   O     O_R   0.624120 0.493490 0.402090 -0.475276
O16   O     O_R   0.364640 0.493450 0.402110 -0.482197
O17   O     O_R   0.635360 0.506550 0.597890 -0.532320
O18   O     O_3   0.789610 0.683960 0.473134 -0.513322

loop_
_geom_bond_atom_site_label_1
_geom_bond_atom_site_label_2
_ccdc_geom_bond_type
C36   H29   S    
C25   C31   A    
C26   C32   A    
C16   C21   S    
C40   H11   S    
C27   C29   A    
C34   O10   S    
C39   H8    S    
Cu2   O12   S    
C37   H2    S    
C2    C57   A    
C36   H28   S    
C51   N12   T    
C42   H20   S    
C47   N8    T    
C32   O8    S    
C19   C21   A    
C24   C26   A    
C41   H17   S    
C5    C6    A    
C35   H26   S    
C36   H30   S    
C22   O5    S    
C17   C20   S    
C40   H13   S    
C38   O5    S    
C10   C53   S    
C11   C52   S    
C33   H12   S    
C13   C51   S    
C3    C55   A    
C38   H6    S    
C40   H14   S    
Cu1   O14   S    
C22   C25   A    
C8    C14   A    
C7    O3    S    
Cu2   O16   S    
C24   O6    S    
C9    N5    A    
C17   O15   A    
C12   O13   A    
C7    C15   A    
Cu1   Cu2   S    
C13   N1    A    
C43   H24   S    
Cu2   O11   S    
C35   H27   S    
C16   O14   A    
C37   H3    S    
C4    C45   A    
C2    C45   A    
C39   H9    S    
C39   O6    S    
C53   N3    T    
C23   C30   A    
C4    C6    A    
C35   O2    S    
C4    C44   S    
C29   C34   A    
C32   C34   A    
C42   O9    S    
C44   N6    T    
C16   O16   A    
C41   H15   S    
C19   O2    S    
C38   H5    S    
C31   O7    S    
Cu2   O15   S    
C18   C29   A    
Cu1   N1    S    
C33   H23   S    
C33   O18   S    
C8    C10   A    
C46   N7    T    
C20   C22   A    
C10   N1    A    
C42   H18   S    
C41   O8    S    
C13   C15   A    
C43   H21   S    
C52   N2    T    
C1    O12   A    
C21   C24   A    
C18   O18   S    
C37   H4    S    
C12   O11   A    
C11   N5    A    
C7    C9    A    
C48   N9    T    
C1    O1    A    
Cu1   O17   S    
C36   O3    S    
C50   C57   S    
C6    C56   A    
C12   C45   S    
C3    C5    A    
C8    O4    S    
C48   C58   S    
C40   O7    S    
C2    C47   S    
C25   C27   A    
C49   C56   S    
C23   O9    S    
C3    C46   S    
C26   C28   A    
C5    C57   A    
Cu1   O1    S    
C28   C30   A    
C1    C55   S    
C37   O4    S    
C41   H16   S    
C35   H25   S    
C33   H1    S    
C11   C14   A    
C39   H10   S    
C56   C58   A    
C18   C20   A    
C54   N4    T    
C17   O17   A    
Cu2   N5    S    
C42   H19   S    
C38   H7    S    
C50   N11   T    
Cu1   O13   S    
C43   O10   S    
C55   C58   A    
C27   C28   A    
C43   H22   S    
C14   C15   A    
C9    C54   S    
C19   C30   A    
C23   C31   A    
C49   N10   T    
