data_mof_unit_5244.cif
_audit_creation_date              2012-12-10T19:44:58-0500
_audit_creation_method            fapswitch 2.2
_symmetry_space_group_name_H-M    P1
_symmetry_Int_Tables_number       1
_space_group_crystal_system       triclinic
_cell_length_a                    15.076865
_cell_length_b                    10.82871
_cell_length_c                    13.684737
_cell_angle_alpha                 89.960087
_cell_angle_beta                  89.788267
_cell_angle_gamma                 89.653109
_cell_volume                      2234.1544892

loop_
_atom_site_label
_atom_site_type_symbol
_atom_type_description
_atom_site_fract_x
_atom_site_fract_y
_atom_site_fract_z
_atom_type_partial_charge
C1    C     C_R   0.497612 0.262160 0.499846 0.801249
C2    C     C_R   0.502388 0.737840 0.500154 0.801247
C3    C     C_R   0.045582 0.478603 0.677374 -0.193265
C4    C     C_R   0.954418 0.521392 0.322626 -0.193265
C5    C     C_R   0.301399 0.248667 0.266297 -0.130016
C6    C     C_R   0.698588 0.751322 0.733712 -0.130011
C7    C     C_R   0.340268 0.189010 0.345986 -0.087815
C8    C     C_R   0.659725 0.810984 0.654021 -0.087804
C9    C     C_R   0.419367 0.121707 0.333805 0.099642
C10   C     C_R   0.580628 0.878293 0.666198 0.099639
C11   C     C_R   0.458464 0.113563 0.240691 -0.186212
C12   C     C_R   0.541529 0.886443 0.759311 -0.186220
C13   C     C_R   0.419774 0.173694 0.160137 0.016683
C14   C     C_R   0.580214 0.826309 0.839867 0.016691
C15   C     C_R   0.340880 0.241557 0.173942 -0.149305
C16   C     C_R   0.659104 0.758435 0.826065 -0.149305
C17   C     C_R   0.468048 0.933695 0.420147 -0.215625
C18   C     C_R   0.531952 0.066306 0.579853 -0.215626
C19   C     C_R   0.504277 0.871711 0.500565 -0.086349
C20   C     C_R   0.495723 0.128289 0.499435 -0.086348
C21   C     C_R   0.537536 0.938425 0.581140 0.007051
C22   C     C_R   0.462462 0.061576 0.418860 0.007050
C23   C     C_R   0.328460 0.500160 0.500133 0.814377
C24   C     C_R   0.671540 0.499839 0.499867 0.814376
C25   C     C_R   0.566525 0.440619 0.792789 0.051215
C26   C     C_R   0.433475 0.559380 0.207211 0.051213
C27   C     C_R   0.433604 0.559050 0.793582 0.041319
C28   C     C_R   0.566397 0.440951 0.206418 0.041322
C29   C     C_R   0.431709 0.559309 0.896484 -0.046176
C30   C     C_R   0.568293 0.440693 0.103516 -0.046174
C31   C     C_R   0.500219 0.499694 0.948151 0.080316
C32   C     C_R   0.499783 0.500306 0.051849 0.080310
C33   C     C_R   0.569068 0.439614 0.896117 -0.043123
C34   C     C_R   0.430933 0.560387 0.103883 -0.043105
C35   C     C_R   0.363135 0.618298 0.948393 -0.183807
C36   C     C_R   0.636868 0.381706 0.051607 -0.183778
C37   C     C_R   0.362241 0.619335 0.051045 0.237615
C38   C     C_R   0.637762 0.380668 0.948955 0.237593
C39   C     C_R   0.814981 0.510262 0.411274 -0.232821
C40   C     C_R   0.185019 0.489734 0.588725 -0.232822
C41   C     C_R   0.768353 0.499542 0.499750 -0.080332
C42   C     C_R   0.231647 0.500456 0.500251 -0.080332
C43   C     C_R   0.814405 0.488492 0.588261 -0.240465
C44   C     C_R   0.185595 0.511507 0.411739 -0.240466
C45   C     C_R   0.906764 0.488817 0.589005 0.100950
C46   C     C_R   0.093236 0.511181 0.410994 0.100948
C47   C     C_R   0.953516 0.499850 0.499940 0.064828
C48   C     C_R   0.046484 0.500147 0.500060 0.064828
C49   C     C_R   0.907394 0.510520 0.410749 0.103122
C50   C     C_R   0.092606 0.489476 0.589251 0.103122
C51   C     C_R   0.953107 0.478254 0.677252 -0.184780
C52   C     C_R   0.046893 0.521743 0.322748 -0.184781
Cu1   Cu    Cu3+1 0.500010 0.499980 0.597420 0.957808
Cu2   Cu    Cu3+1 0.499990 0.500020 0.402580 0.957809
H1    H     H_    0.779492 0.518787 0.342786 0.158624
H2    H     H_    0.220508 0.481207 0.657213 0.158626
H3    H     H_    0.441199 0.882205 0.359154 0.172771
H4    H     H_    0.558800 0.117796 0.640846 0.172771
H5    H     H_    0.617397 0.394241 0.750644 0.168433
H6    H     H_    0.382603 0.605759 0.249356 0.168432
H7    H     H_    0.382016 0.606158 0.753028 0.130328
H8    H     H_    0.617986 0.393844 0.246972 0.130329
H9    H     H_    0.310155 0.664378 0.909108 0.177525
H10   H     H_    0.689849 0.335627 0.090892 0.177528
H11   H     H_    0.778503 0.479271 0.656672 0.169736
H12   H     H_    0.221497 0.520730 0.343328 0.169738
H13   H     H_    0.917832 0.469770 0.746068 0.175750
H14   H     H_    0.082168 0.530228 0.253932 0.175749
H15   H     H_    0.080317 0.470357 0.746288 0.158885
H16   H     H_    0.919683 0.529638 0.253711 0.158884
H17   H     H_    0.309883 0.289566 0.113473 0.172626
H18   H     H_    0.690097 0.710423 0.886535 0.172628
H19   H     H_    0.240593 0.300830 0.276124 0.140932
H20   H     H_    0.759392 0.699153 0.723887 0.140929
H21   H     H_    0.309291 0.196121 0.417322 0.113617
H22   H     H_    0.690705 0.803871 0.582686 0.113614
H23   H     H_    0.519581 0.061588 0.231739 0.181308
H24   H     H_    0.480413 0.938424 0.768260 0.181314
N1    N     N_R   0.499960 0.499900 0.743810 -0.191680
N2    N     N_R   0.500040 0.500100 0.256190 -0.191683
O1    O     O_R   0.500000 0.319630 0.582270 -0.580179
O2    O     O_R   0.500000 0.680370 0.417730 -0.580178
O3    O     O_R   0.499990 0.319660 0.417730 -0.573493
O4    O     O_R   0.500010 0.680340 0.582270 -0.573494
O5    O     O_R   0.370260 0.499960 0.582280 -0.592040
O6    O     O_R   0.629740 0.500040 0.417720 -0.592041
O7    O     O_R   0.370250 0.499990 0.417740 -0.594567
O8    O     O_R   0.629750 0.500010 0.582260 -0.594569
Br1   Br    Br    0.265338 0.703001 0.114648 -0.571921
Br2   Br    Br    0.734664 0.297003 0.885352 -0.571924
C53   C     C_2   0.462239 0.166324 0.062386 0.844321
O9    O     O_2   0.425251 0.210554 0.990942 -0.587407
O10   O     O_R   0.545153 0.109229 0.051652 -0.749437
H25   H     H_    0.567473 0.110976 0.981683 0.359782
C54   C     C_2   0.537748 0.833689 0.937617 0.844320
O11   O     O_2   0.574723 0.789432 0.009058 -0.587429
O12   O     O_R   0.454847 0.890827 0.948351 -0.749427
H26   H     H_    0.432524 0.889081 0.018318 0.359775

loop_
_geom_bond_atom_site_label_1
_geom_bond_atom_site_label_2
_ccdc_geom_bond_type
O10   H25   S    
C27   C29   A    
C18   C21   A    
C44   H12   S    
C54   O11   D    
C16   H18   S    
C4    H16   S    
O12   H26   S    
C47   C49   A    
Cu1   Cu2   S    
C23   C42   S    
C4    C52   A    
Cu1   O4    S    
C3    H15   S    
C27   N1    A    
Cu2   O7    S    
C9    C22   S    
C45   C51   A    
C1    O1    A    
C34   C37   A    
C46   C52   A    
C8    H22   S    
Cu1   N1    S    
Cu1   O1    S    
C27   H7    S    
C2    O4    A    
C35   H9    S    
C26   C34   A    
C39   H1    S    
C47   C48   A    
C40   H2    S    
C12   H24   S    
C31   C33   A    
C11   H23   S    
C52   H14   S    
C40   C42   A    
C23   O7    A    
C13   C53   S    
C24   C41   S    
C41   C43   A    
C42   C44   A    
Cu2   O3    S    
C3    C50   A    
C44   C46   A    
C6    H20   S    
Cu2   N2    S    
C45   C47   A    
C10   C21   S    
C46   C48   A    
C39   C41   A    
C53   O9    D    
Cu2   O6    S    
C3    C51   A    
C6    C8    A    
C26   N2    A    
C32   C34   A    
C53   O10   S    
C9    C11   A    
C31   C32   A    
C43   H11   S    
C51   H13   S    
C48   C50   A    
C24   O8    A    
C10   C12   A    
C8    C10   A    
C39   C49   A    
C20   C22   A    
C13   C15   A    
C14   C16   A    
C2    O2    A    
C14   C54   S    
Cu2   O2    S    
C5    C7    A    
C7    C9    A    
C38   Br2   S    
C1    C20   S    
C35   C37   A    
C2    C19   S    
C25   N1    A    
C33   C38   A    
C12   C14   A    
C7    H21   S    
C54   O12   S    
C37   Br1   S    
C1    O3    A    
C15   H17   S    
C29   C35   A    
C17   C22   A    
C30   C36   A    
C4    C49   A    
C36   C38   A    
C43   C45   A    
C30   C32   A    
C11   C13   A    
C24   O6    A    
C40   C50   A    
C28   C30   A    
C17   C19   A    
C18   H4    S    
Cu1   O8    S    
C18   C20   A    
C5    H19   S    
C28   N2    A    
C5    C15   A    
C6    C16   A    
C29   C31   A    
C23   O5    A    
C17   H3    S    
Cu1   O5    S    
C25   H5    S    
C36   H10   S    
C26   H6    S    
C25   C33   A    
C19   C21   A    
C28   H8    S    
