data_mof_unit_25350.cif
_audit_creation_date              2012-12-11T15:53:57-0500
_audit_creation_method            fapswitch 2.2
_symmetry_space_group_name_H-M    P1
_symmetry_Int_Tables_number       1
_space_group_crystal_system       triclinic
_cell_length_a                    10.678628
_cell_length_b                    10.676264
_cell_length_c                    17.005388
_cell_angle_alpha                 80.7029
_cell_angle_beta                  99.309063
_cell_angle_gamma                 118.719402
_cell_volume                      1669.96866123

loop_
_atom_site_label
_atom_site_type_symbol
_atom_type_description
_atom_site_fract_x
_atom_site_fract_y
_atom_site_fract_z
_atom_type_partial_charge
C1    C     C_R   0.384400 0.284366 0.631951 0.538143
C2    C     C_R   0.515057 0.712996 0.734827 -0.151158
C3    C     C_R   0.492647 0.729159 0.810636 -0.132736
C4    C     C_3   0.095967 0.484857 0.772984 -0.251445
C5    C     C_3   0.120664 0.466418 0.691119 -0.246976
C6    C     C_R   0.400194 0.617564 0.686109 -0.001279
C7    C     C_1   0.849725 0.669428 0.702671 -0.053385
C8    C     C_1   0.896709 0.703744 0.769352 -0.055816
C9    C     C_1   0.364733 0.234186 0.714427 -0.035881
C10   C     C_1   0.333495 0.187340 0.781664 -0.033104
C11   C     C_1   0.335555 0.663971 0.277802 -0.054375
C12   C     C_R   0.413963 0.619970 0.601735 0.551041
C13   C     C_1   0.323150 0.673096 0.206984 -0.052201
C14   C     C_R   0.878991 0.690482 0.169877 0.049980
C15   C     C_R   0.930677 0.612753 0.227723 0.008231
C16   C     C_R   0.917391 0.605810 0.307168 -0.010285
C17   C     C_R   0.832547 0.782574 0.276277 -0.147017
C18   C     C_R   0.844055 0.787412 0.195260 -0.148871
C19   C     C_3   0.912351 0.462967 0.234823 -0.052697
C20   C     C_3   0.895174 0.454307 0.322958 -0.269304
C21   C     C_R   0.852711 0.678076 0.331255 0.027698
C22   C     C_R   0.295465 0.113050 0.172676 0.033188
C23   C     C_R   0.781035 0.621146 0.626218 0.533700
C24   C     C_R   0.180594 0.107281 0.204501 0.009725
C25   C     C_R   0.188083 0.121141 0.283558 0.014319
C26   C     C_R   0.415636 0.117029 0.306566 -0.136340
C27   C     C_R   0.404951 0.099295 0.225737 -0.107185
C28   C     C_3   0.097522 0.188222 0.177446 -0.241126
C29   C     C_3   0.105472 0.205667 0.264753 -0.246582
C30   C     C_R   0.313567 0.143240 0.333547 0.015278
C31   C     C_R   0.947298 0.724861 0.851554 0.553823
C32   C     C_R   0.316200 0.705639 0.898522 0.539557
C33   C     C_R   0.286522 0.118691 0.858468 0.550941
C34   C     C_R   0.349232 0.222391 0.401659 0.565563
C35   C     C_R   0.896917 0.695281 0.087424 0.567108
C36   C     C_R   0.313014 0.700479 0.123799 0.549114
C37   C     C_R   0.279219 0.096323 0.088939 0.562715
C38   C     C_R   0.365027 0.654389 0.360880 0.561747
C39   C     C_R   0.776542 0.625165 0.401733 0.560545
C40   C     C_R   0.354631 0.650779 0.837787 0.016113
C41   C     C_R   0.252382 0.535033 0.796261 0.014624
C42   C     C_R   0.275063 0.518543 0.721651 0.010677
Cr1   Cr    Cr6+3 0.608440 0.389080 0.519680 1.020855
Cr2   Cr    Cr6+3 0.288640 0.400090 0.490760 1.001912
Cr3   Cr    Cr6+3 0.602940 0.710800 0.489510 1.013621
Cr4   Cr    Cr6+3 0.052530 0.947560 0.964210 1.020415
Cr5   Cr    Cr6+3 0.059970 0.626800 0.992920 1.039711
Cr6   Cr    Cr6+3 0.373320 0.938440 0.995370 1.023178
H1    H     H_    0.617971 0.783317 0.711961 0.143184
H2    H     H_    0.786374 0.374536 0.339893 0.172899
H3    H     H_    0.984749 0.446835 0.363316 0.127139
H4    H     H_    0.509973 0.124976 0.345078 0.136873
H5    H     H_    0.486440 0.084253 0.204352 0.162373
H6    H     H_    0.986936 0.119288 0.151367 0.166413
H7    H     H_    0.158645 0.291100 0.141040 0.153476
H8    H     H_    0.169599 0.319926 0.277305 0.161916
H9    H     H_    0.999042 0.147778 0.288913 0.146349
H10   H     H_    0.578764 0.813794 0.843518 0.150761
H11   H     H_    0.065212 0.570769 0.771468 0.147261
H12   H     H_    0.028382 0.381634 0.807042 0.152855
H13   H     H_    0.067809 0.352408 0.678081 0.152753
H14   H     H_    0.103093 0.541319 0.642558 0.158968
H15   H     H_    0.790698 0.847582 0.293511 0.143958
H16   H     H_    0.817178 0.859792 0.152481 0.132281
H17   H     H_    0.011787 0.460668 0.225322 0.117592
O1    O     O_R   0.754020 0.497590 0.609930 -0.513215
O2    O     O_R   0.295080 0.533620 0.397890 -0.507948
O3    O     O_R   0.485280 0.746620 0.388440 -0.504865
O4    O     O_R   0.720550 0.696220 0.420010 -0.505837
O5    O     O_3   0.500010 0.499990 0.499980 -0.285969
O6    O     O_R   0.163320 0.092900 0.874450 -0.512661
O7    O     O_R   0.934650 0.822080 0.882840 -0.488343
O8    O     O_R   0.915520 0.604140 0.893670 -0.500664
O9    O     O_R   0.191760 0.638110 0.923230 -0.513513
O10   O     O_R   0.406180 0.826930 0.920660 -0.516902
O11   O     O_R   0.358620 0.062870 0.901950 -0.489544
O12   O     O_R   0.481420 0.271390 0.600630 -0.482214
O13   O     O_R   0.163910 0.085460 0.050210 -0.520355
O14   O     O_R   0.935200 0.815170 0.045770 -0.511339
O15   O     O_R   0.916120 0.596690 0.069430 -0.485577
O16   O     O_R   0.192310 0.631200 0.086170 -0.505797
O17   O     O_R   0.406770 0.819480 0.096420 -0.514889
O18   O     O_R   0.359170 0.055960 0.064880 -0.506953
O19   O     O_3   0.161940 0.837600 0.984160 -0.278452
O20   O     O_R   0.263810 0.254550 0.589590 -0.511614
O21   O     O_R   0.300820 0.531200 0.560890 -0.511201
O22   O     O_R   0.491480 0.744020 0.564270 -0.504104
O23   O     O_R   0.726290 0.693800 0.583010 -0.518648
O24   O     O_R   0.747830 0.500190 0.434090 -0.519077
O25   O     O_R   0.475680 0.273800 0.437630 -0.494112
O26   O     O_R   0.257620 0.257160 0.413750 -0.521003
C43   C     C_2   0.779704 0.359229 0.188227 0.588399
O27   O     O_2   0.667442 0.365982 0.182813 -0.530439
O28   O     O_R   0.787234 0.257093 0.149875 -0.719822
H18   H     H_    0.692923 0.194967 0.119112 0.333852

loop_
_geom_bond_atom_site_label_1
_geom_bond_atom_site_label_2
_ccdc_geom_bond_type
C5    C42   S    
C16   C21   A    
C1    O12   A    
C41   C42   A    
C14   C18   A    
C19   C20   S    
C32   O10   A    
C7    C8    T    
C15   C19   S    
C26   C27   A    
Cr1   O24   S    
C23   O1    A    
C28   C29   S    
Cr3   O22   S    
C20   H3    S    
C6    C12   S    
Cr4   O14   S    
C31   O8    A    
C4    C41   S    
C15   C16   A    
C35   O15   A    
Cr6   O11   S    
C34   O26   A    
C20   H2    S    
C19   C43   S    
C36   O17   A    
Cr2   O5    S    
C9    C10   T    
Cr4   O7    S    
Cr5   O16   S    
C25   C29   S    
Cr6   O10   S    
C2    C6    A    
Cr5   O15   S    
Cr2   O21   S    
C28   H7    S    
C1    O20   A    
Cr1   O25   S    
C30   C34   S    
Cr3   O4    S    
Cr3   O23   S    
C1    C9    S    
C24   C25   A    
Cr5   O8    S    
C13   C36   S    
C14   C35   S    
Cr4   O13   S    
C28   H6    S    
C22   C37   S    
C17   C21   A    
Cr6   O19   S    
C11   C38   S    
C34   O25   A    
C2    H1    S    
C26   H4    S    
C33   O11   A    
C21   C39   S    
C36   O16   A    
C16   C20   S    
C4    H12   S    
Cr3   O3    S    
C43   O28   S    
C17   C18   A    
C39   O4    A    
C5    H13   S    
Cr5   O19   S    
Cr4   O6    S    
Cr2   O26   S    
Cr4   O19   S    
C40   C41   A    
C29   H9    S    
C3    C40   A    
C26   C30   A    
Cr1   O5    S    
C23   O23   A    
C22   C24   A    
Cr2   O20   S    
C25   C30   A    
C31   O7    A    
C12   O22   A    
Cr3   O5    S    
C8    C31   S    
C24   C28   S    
Cr5   O9    S    
C38   O3    A    
C4    C5    S    
C27   H5    S    
C29   H8    S    
Cr1   O12   S    
C37   O13   A    
Cr6   O18   S    
C12   O21   A    
C22   C27   A    
C2    C3    A    
C17   H15   S    
C32   O9    A    
C11   C13   T    
C18   H16   S    
Cr1   O1    S    
C7    C23   S    
C4    H11   S    
C35   O14   A    
C43   O27   D    
Cr6   O17   S    
C5    H14   S    
C19   H17   S    
C10   C33   S    
C32   C40   S    
O28   H18   S    
C33   O6    A    
C3    H10   S    
C38   O2    A    
C6    C42   A    
C14   C15   A    
C37   O18   A    
Cr2   O2    S    
C39   O24   A    
