data_mof_unit_60317.cif
_audit_creation_date              2012-10-26T20:45:16-0400
_audit_creation_method            fapswitch 2.2
_symmetry_space_group_name_H-M    P1
_symmetry_Int_Tables_number       1
_space_group_crystal_system       triclinic
_cell_length_a                    12.740415
_cell_length_b                    13.903074
_cell_length_c                    23.520466
_cell_angle_alpha                 90.227751
_cell_angle_beta                  92.901454
_cell_angle_gamma                 97.966538
_cell_volume                      4120.45118328

loop_
_atom_site_label
_atom_site_type_symbol
_atom_type_description
_atom_site_fract_x
_atom_site_fract_y
_atom_site_fract_z
_atom_type_partial_charge
C1    C     C_R   0.483551 0.315799 0.499409 0.552210
C2    C     C_R   0.402389 0.494511 0.699235 -0.143133
C3    C     C_R   0.597862 0.505508 0.241486 -0.076312
C4    C     C_R   0.402138 0.494494 0.758513 -0.076312
C5    C     C_R   0.502271 0.500070 0.208825 0.246633
C6    C     C_R   0.497728 0.499930 0.791175 0.246633
C7    C     C_1   0.525881 0.787545 0.500930 0.002447
C8    C     C_1   0.474119 0.212455 0.499070 0.002447
C9    C     C_2   0.543572 0.978424 0.501564 -0.107970
C10   C     C_2   0.456428 0.021576 0.498436 -0.107970
C11   C     C_1   0.465571 0.125396 0.498764 -0.031272
C12   C     C_R   0.516449 0.684201 0.500591 0.552210
C13   C     C_1   0.534429 0.874604 0.501236 -0.031272
C14   C     C_2   0.028225 0.473361 0.483862 -0.154279
C15   C     C_2   0.971775 0.526639 0.516138 -0.154279
C16   C     C_R   0.500537 0.499978 0.390672 0.550745
C17   C     C_R   0.499463 0.500022 0.609328 0.550745
C18   C     C_1   0.854650 0.519239 0.511574 0.152688
C19   C     C_1   0.145350 0.480761 0.488426 0.152688
C20   C     C_R   0.503548 0.586462 0.880769 0.423259
C21   C     C_R   0.496451 0.413538 0.119231 0.423259
C22   C     C_R   0.489239 0.413188 0.879952 0.423276
C23   C     C_R   0.405767 0.494566 0.235721 0.144299
C24   C     C_R   0.510760 0.586812 0.120048 0.423275
C25   C     C_R   0.490618 0.411421 0.939608 0.033710
C26   C     C_R   0.509381 0.588579 0.060392 0.033710
C27   C     C_R   0.498951 0.499948 0.969977 -0.024090
C28   C     C_R   0.501048 0.500052 0.030023 -0.024090
C29   C     C_R   0.505228 0.588372 0.940443 0.033740
C30   C     C_R   0.494772 0.411628 0.059557 0.033740
C31   C     C_R   0.484408 0.323691 0.969485 -0.110194
C32   C     C_R   0.515592 0.676309 0.030515 -0.110194
C33   C     C_R   0.486489 0.323795 0.028852 -0.110132
C34   C     C_R   0.594232 0.505432 0.764279 0.144299
C35   C     C_R   0.513511 0.676205 0.971148 -0.110132
C36   C     C_R   0.405676 0.494557 0.295033 -0.117075
C37   C     C_R   0.594323 0.505441 0.704967 -0.117075
C38   C     C_R   0.501440 0.500016 0.328072 -0.018010
C39   C     C_R   0.498560 0.499984 0.671928 -0.018010
C40   C     C_R   0.597611 0.505491 0.300765 -0.143133
Cu1   Cu    Cu3+1 0.395330 0.493960 0.496390 1.010993
Cu2   Cu    Cu3+1 0.604670 0.506040 0.503610 1.010993
H1    H     H_    0.478018 0.254711 0.947121 0.175517
H2    H     H_    0.327626 0.490249 0.779188 0.138819
H3    H     H_    0.377917 0.979245 0.495619 0.145005
H4    H     H_    0.622083 0.020755 0.504381 0.145005
H5    H     H_    0.013962 0.577793 0.547204 0.135422
H6    H     H_    0.986038 0.422206 0.452796 0.135422
H7    H     H_    0.521981 0.745290 0.052879 0.175517
H8    H     H_    0.481494 0.254883 0.050565 0.175575
H9    H     H_    0.518505 0.745117 0.949435 0.175575
H10   H     H_    0.330585 0.490279 0.315130 0.156426
H11   H     H_    0.669415 0.509718 0.684870 0.156426
H12   H     H_    0.672562 0.509757 0.325140 0.146550
H13   H     H_    0.327438 0.490246 0.674859 0.146550
H14   H     H_    0.672374 0.509755 0.220812 0.138818
I1    I     I_    0.258856 0.486179 0.188323 -0.270751
I2    I     I_    0.741143 0.513817 0.811677 -0.270752
N1    N     N_R   0.496278 0.499827 0.852006 -0.390578
N2    N     N_R   0.503721 0.500173 0.147994 -0.390578
N3    N     N_1   0.238030 0.484870 0.490960 -0.183548
N4    N     N_1   0.761970 0.515130 0.509040 -0.183548
O1    O     O_R   0.399110 0.356330 0.496510 -0.486918
O2    O     O_2   0.490297 0.329679 0.148347 -0.470740
O3    O     O_2   0.481530 0.329255 0.850044 -0.470805
O4    O     O_2   0.518469 0.670745 0.149956 -0.470805
O5    O     O_R   0.600890 0.643670 0.503490 -0.486918
O6    O     O_R   0.575900 0.366540 0.502610 -0.488773
O7    O     O_R   0.424100 0.633460 0.497390 -0.488773
O8    O     O_R   0.411590 0.494870 0.414830 -0.496050
O9    O     O_R   0.588410 0.505130 0.585170 -0.496051
O10   O     O_R   0.588370 0.505070 0.420930 -0.496681
O11   O     O_R   0.411630 0.494930 0.579070 -0.496682
O12   O     O_2   0.509702 0.670321 0.851653 -0.470740

loop_
_geom_bond_atom_site_label_1
_geom_bond_atom_site_label_2
_ccdc_geom_bond_type
C25   C31   A    
C15   C18   S    
C17   O11   A    
C12   O7    A    
C26   C32   A    
C27   C29   A    
C34   C37   A    
Cu1   Cu2   S    
C16   O10   A    
Cu1   N3    S    
C31   H1    S    
C24   C26   A    
C2    H13   S    
C1    C8    S    
C1    O6    A    
C17   C39   S    
C9    C13   S    
C21   O2    S    
C2    C39   A    
C22   C25   A    
C31   C33   A    
C15   H5    S    
C9    C10   D    
Cu2   N4    S    
C30   C33   A    
C24   O4    S    
C37   H11   S    
C9    H4    S    
Cu2   O6    S    
C1    O1    A    
C20   C29   A    
C7    C12   S    
C12   O5    A    
C32   C35   A    
C16   O8    A    
C21   N2    A    
C4    C6    A    
C22   N1    A    
C14   C19   S    
C14   H6    S    
C4    H2    S    
C33   H8    S    
C6    C34   A    
C2    C4    A    
C22   O3    S    
C3    H14   S    
C5    C23   A    
C24   N2    A    
C10   H3    S    
Cu2   O10   S    
C20   O12   S    
C20   N1    A    
C3    C40   A    
C17   O9    A    
C40   H12   S    
C35   H9    S    
Cu2   O5    S    
Cu1   O1    S    
Cu1   O7    S    
C23   I1    S    
C5    N2    S    
C6    N1    S    
C18   N4    T    
C3    C5    A    
C36   H10   S    
C25   C27   A    
C21   C30   A    
C29   C35   A    
C26   C28   A    
C36   C38   A    
C37   C39   A    
C38   C40   A    
C19   N3    T    
C8    C11   T    
C28   C30   A    
Cu2   O9    S    
C32   H7    S    
C10   C11   S    
Cu1   O11   S    
C7    C13   T    
C23   C36   A    
C27   C28   A    
C34   I2    S    
C14   C15   D    
C16   C38   S    
Cu1   O8    S    
