data_mof_unit_54095.cif
_audit_creation_date              2012-12-11T17:25:08-0500
_audit_creation_method            fapswitch 2.2
_symmetry_space_group_name_H-M    P1
_symmetry_Int_Tables_number       1
_space_group_crystal_system       triclinic
_cell_length_a                    6.95216
_cell_length_b                    20.53032
_cell_length_c                    24.496313
_cell_angle_alpha                 90.127614
_cell_angle_beta                  90.827479
_cell_angle_gamma                 89.848328
_cell_volume                      3495.97520374

loop_
_atom_site_label
_atom_site_type_symbol
_atom_type_description
_atom_site_fract_x
_atom_site_fract_y
_atom_site_fract_z
_atom_type_partial_charge
O1    O     O_R   0.507280 0.423750 0.460310 -0.536716
O2    O     O_R   0.171030 0.555650 0.437630 -0.535860
O3    O     O_R   0.004080 0.576250 0.539690 -0.530757
C1    C     C_R   0.339018 0.575707 0.421796 0.732173
O4    O     O_R   0.177330 0.422980 0.453960 -0.539172
O5    O     O_R   0.010420 0.442640 0.556140 -0.534569
C2    C     C_R   0.345374 0.399046 0.443243 0.691876
O6    O     O_R   0.500930 0.557360 0.443860 -0.536823
O7    O     O_3   0.340310 0.506600 0.533500 -0.364909
V1    V     V_3+5 0.064140 0.498780 0.493780 1.436401
O8    O     O_R   0.680890 0.444350 0.562370 -0.537575
C3    C     C_R   0.850634 0.424412 0.578123 0.724520
O9    O     O_R   0.674590 0.577020 0.546040 -0.536814
C4    C     C_R   0.844078 0.601026 0.556627 0.691555
V2    V     V_3+5 0.564550 0.501220 0.506220 1.430687
O10   O     O_3   0.838250 0.493400 0.466500 -0.369112
C5    C     C_R   0.966271 0.839441 0.908937 -0.171869
C6    C     C_R   0.857469 0.663581 0.586455 -0.147837
C7    C     C_R   0.925529 0.722330 0.904099 -0.144726
C8    C     C_R   0.979660 0.777451 0.933910 0.324057
C9    C     C_R   0.921018 0.843563 0.852212 0.153917
C10   C     C_R   0.908243 0.785089 0.820214 0.057119
C11   C     C_R   0.875944 0.726254 0.848334 -0.130379
C12   C     C_R   0.921436 0.782261 0.761826 -0.005566
C13   C     C_R   0.845420 0.726873 0.732821 -0.072581
C14   C     C_R   0.751510 0.678018 0.763825 0.120384
C15   C     C_R   0.786938 0.673704 0.820395 0.363105
C16   C     C_R   0.024082 0.829972 0.732363 0.366610
C17   C     C_R   0.016207 0.830023 0.675247 -0.276058
C18   C     C_R   0.940165 0.777345 0.646341 0.021719
C19   C     C_R   0.868771 0.722653 0.674550 0.108367
C20   C     C_R   0.951516 0.777024 0.589228 -0.133247
C21   C     C_R   0.906982 0.721461 0.558851 0.352753
C22   C     C_R   0.841196 0.664508 0.643708 -0.255264
H1    H     H_    0.819659 0.618382 0.663624 0.136556
H2    H     H_    0.084926 0.869101 0.653150 0.119941
H3    H     H_    0.924201 0.676109 0.925265 0.161433
H4    H     H_    0.001159 0.819900 0.567882 0.139571
C23   C     C_R   0.731797 0.282055 0.739087 -0.144023
H5    H     H_    0.596231 0.306512 0.730685 0.136388
C24   C     C_R   0.891205 0.295095 0.706446 0.055850
C25   C     C_R   0.065576 0.263063 0.717693 -0.153466
H6    H     H_    0.190400 0.272436 0.692956 0.129766
C26   C     C_R   0.080556 0.218546 0.760944 -0.166345
H7    H     H_    0.216865 0.194345 0.768666 0.171046
C27   C     C_R   0.921816 0.205234 0.793940 0.030259
C28   C     C_R   0.744358 0.237661 0.782736 0.358587
C29   C     C_1   0.875517 0.341092 0.661386 -0.029479
C30   C     C_1   0.944546 0.158837 0.838690 -0.049038
C31   C     C_1   0.960191 0.120539 0.876304 -0.182205
C32   C     C_1   0.863168 0.379273 0.623605 -0.188780
H8    H     H_    0.683611 0.727242 0.315218 0.119836
C33   C     C_R   0.592234 0.782144 0.243638 0.367492
C34   C     C_R   0.439098 0.794971 0.206800 0.092823
C35   C     C_R   0.262760 0.762916 0.213871 -0.217354
H9    H     H_    0.143530 0.772211 0.185978 0.167409
C36   C     C_R   0.238088 0.718645 0.256906 -0.159617
H10   H     H_    0.100560 0.694695 0.261383 0.130333
C37   C     C_R   0.389421 0.705433 0.293770 0.101869
C38   C     C_R   0.566091 0.737289 0.286899 -0.241908
C39   C     C_1   0.460979 0.840992 0.161733 0.039939
C40   C     C_1   0.364704 0.659315 0.338536 -0.021653
C41   C     C_1   0.348929 0.621048 0.376204 -0.182235
C42   C     C_1   0.475564 0.879166 0.123954 -0.169792
C43   C     C_R   0.476553 0.162056 0.088729 -0.045402
C44   C     C_R   0.348734 0.338635 0.410556 -0.044997
C45   C     C_R   0.557447 0.276099 0.094894 -0.151724
C46   C     C_R   0.541918 0.218998 0.064630 -0.167969
C47   C     C_R   0.426712 0.162498 0.144071 -0.198362
C48   C     C_R   0.444757 0.220019 0.176672 0.050398
C49   C     C_R   0.511738 0.277698 0.150894 0.117674
C50   C     C_R   0.401585 0.221743 0.233893 0.052593
C51   C     C_R   0.426220 0.280853 0.264539 0.015221
C52   C     C_R   0.492421 0.336441 0.237029 -0.184880
C53   C     C_R   0.534357 0.335715 0.181422 0.137210
C54   C     C_R   0.334891 0.166119 0.261607 -0.169392
C55   C     C_R   0.293778 0.167822 0.316827 -0.198023
C56   C     C_R   0.315871 0.224880 0.347088 0.139012
C57   C     C_R   0.382917 0.282534 0.321865 0.098085
C58   C     C_R   0.268112 0.224577 0.402559 -0.160979
C59   C     C_R   0.282425 0.281071 0.433762 -0.166728
C60   C     C_R   0.400239 0.339427 0.355224 -0.214766
H11   H     H_    0.447200 0.385580 0.339543 0.094822
H12   H     H_    0.239936 0.280058 0.476138 0.108654
H13   H     H_    0.242329 0.123767 0.336044 0.127898
H14   H     H_    0.609018 0.318709 0.073839 0.135200
H15   H     H_    0.583019 0.219102 0.022118 0.115035
H16   H     H_    0.380328 0.116648 0.160456 0.096663
H17   H     H_    0.513881 0.381904 0.258070 0.126837
H18   H     H_    0.311559 0.119920 0.241857 0.125400
H19   H     H_    0.216067 0.180587 0.421704 0.117326
O11   O     O_R   0.323320 0.942780 0.056240 -0.538509
O12   O     O_R   0.647300 0.077050 0.046060 -0.538596
O13   O     O_R   0.813840 0.057330 0.943840 -0.537686
C61   C     C_R   0.479369 0.101060 0.056801 0.693541
O14   O     O_R   0.653250 0.944380 0.062400 -0.530387
O15   O     O_R   0.819830 0.923720 0.960300 -0.533862
C62   C     C_R   0.485246 0.924408 0.078289 0.723407
O16   O     O_R   0.317330 0.076390 0.039790 -0.536405
O17   O     O_3   0.483830 0.993470 0.966560 -0.367786
V3    V     V_3+5 0.760140 0.001210 0.006210 1.443205
O18   O     O_R   0.149290 0.922840 0.953850 -0.538790
C63   C     C_R   0.979645 0.899256 0.942878 0.702868
O19   O     O_R   0.143340 0.055500 0.937510 -0.535457
C64   C     C_R   0.973528 0.075405 0.921754 0.724317
V4    V     V_3+5 0.259690 0.998600 0.993650 1.438823
O20   O     O_3   0.986130 0.006520 0.033440 -0.366407
O21   O     O_3   0.716920 0.619862 0.847457 -0.635156
H20   H     H_    0.675762 0.633164 0.884352 0.292321
O22   O     O_3   0.580341 0.228012 0.812854 -0.653913
H21   H     H_    0.605715 0.195669 0.841943 0.291759
O23   O     O_3   0.765131 0.813813 0.236736 -0.647321
H22   H     H_    0.856137 0.800014 0.266056 0.287055
C65   C     C_3   0.604955 0.397990 0.155674 -0.782265
H23   H     H_    0.613649 0.438869 0.185380 0.210323
H24   H     H_    0.751267 0.390373 0.139183 0.212477
H25   H     H_    0.504866 0.413046 0.122268 0.212868
O24   O     O_3   0.922791 0.725416 0.502768 -0.644128
H26   H     H_    0.868386 0.685854 0.485434 0.278466
O25   O     O_3   0.028911 0.768563 0.988274 -0.639121
H27   H     H_    0.080777 0.809464 0.003890 0.282742
C66   C     C_3   0.853096 0.908576 0.829613 -0.685119
H28   H     H_    0.972492 0.944402 0.830599 0.210232
H29   H     H_    0.793094 0.904655 0.787580 0.210053
H30   H     H_    0.734114 0.927757 0.854807 0.187639
C67   C     C_3   0.589979 0.636480 0.740705 -0.690932
H31   H     H_    0.465652 0.637596 0.768705 0.226424
H32   H     H_    0.533126 0.655450 0.701291 0.196108
H33   H     H_    0.638085 0.585131 0.736441 0.214043
O26   O     O_3   0.144161 0.872944 0.759797 -0.645802
H34   H     H_    0.207598 0.901974 0.733264 0.285560

loop_
_geom_bond_atom_site_label_1
_geom_bond_atom_site_label_2
_ccdc_geom_bond_type
V3    O20   S    
C49   C53   A    
C35   H9    S    
O13   C64   A    
C13   C19   A    
C67   H31   S    
C51   C52   A    
C4    C6    S    
O2    C1    A    
C7    C8    A    
C1    O6    A    
C59   H12   S    
O19   V4    S    
C65   H23   S    
O11   C62   A    
C23   C24   A    
C33   C34   A    
O25   H27   S    
C1    C41   S    
C14   C15   A    
C40   C41   T    
C52   H17   S    
C16   C17   A    
O5    C3    A    
C18   C19   A    
C61   O16   A    
C36   C37   A    
V4    O20   S    
V2    O10   S    
C5    C8    A    
O21   H20   S    
C22   H1    S    
C24   C25   A    
C9    C66   S    
O24   H26   S    
O23   H22   S    
C7    H3    S    
O9    C4    A    
O22   H21   S    
O8    V2    S    
C29   C32   T    
O13   V3    S    
C37   C40   S    
O14   C62   A    
C31   C64   S    
C48   C49   A    
O1    V2    S    
C11   C15   A    
H8    C38   S    
O7    V1    S    
C45   C49   A    
C50   C54   A    
C42   C62   S    
C55   H13   S    
C37   C38   A    
O12   C61   A    
C9    C10   A    
C47   C48   A    
C25   C26   A    
O19   C64   A    
C33   C38   A    
C26   C27   A    
C52   C53   A    
C45   C46   A    
C12   C13   A    
O12   V3    S    
C23   H5    S    
O4    C2    A    
C56   C57   A    
C50   C51   A    
C67   H33   S    
C13   C14   A    
C55   C56   A    
C5    C9    A    
C39   C42   T    
C7    C11   A    
C17   C18   A    
C44   C60   A    
C6    C22   A    
C17   H2    S    
C43   C61   S    
C43   C46   A    
C51   C57   A    
C19   C22   A    
C53   C65   S    
C27   C28   A    
C54   C55   A    
C56   C58   A    
O15   C63   A    
C47   H16   S    
C33   O23   S    
O11   V4    S    
C60   H11   S    
O6    V2    S    
C20   H4    S    
C35   C36   A    
C10   C12   A    
C25   H6    S    
C66   H29   S    
O2    V1    S    
C8    O25   S    
C3    C32   S    
C26   H7    S    
C23   C28   A    
O16   V4    S    
C34   C35   A    
C45   H14   S    
C67   H32   S    
O1    C2    A    
C27   C30   S    
C12   C16   A    
C58   C59   A    
O5    V1    S    
C57   C60   A    
C65   H24   S    
O8    C3    A    
C34   C39   S    
O3    C4    A    
C28   O22   S    
O17   V4    S    
C20   C21   A    
C58   H19   S    
O9    V2    S    
O26   H34   S    
O7    V2    S    
O4    V1    S    
O3    V1    S    
V1    O10   S    
C2    C44   S    
C18   C20   A    
C36   H10   S    
C15   O21   S    
C66   H30   S    
C43   C47   A    
O17   V3    S    
C24   C29   S    
O18   V4    S    
C16   O26   S    
C5    C63   S    
O18   C63   A    
C6    C21   A    
C65   H25   S    
C21   O24   S    
C30   C31   T    
C46   H15   S    
C14   C67   S    
C10   C11   A    
C48   C50   A    
C66   H28   S    
O14   V3    S    
O15   V3    S    
C54   H18   S    
C44   C59   A    
