data_mof_unit_32092.cif
_audit_creation_date              2012-12-11T16:49:48-0500
_audit_creation_method            fapswitch 2.2
_symmetry_space_group_name_H-M    P1
_symmetry_Int_Tables_number       1
_space_group_crystal_system       triclinic
_cell_length_a                    22.342253
_cell_length_b                    24.190762
_cell_length_c                    8.52723
_cell_angle_alpha                 90.00009
_cell_angle_beta                  94.794446
_cell_angle_gamma                 89.600651
_cell_volume                      4592.52566727

loop_
_atom_site_label
_atom_site_type_symbol
_atom_type_description
_atom_site_fract_x
_atom_site_fract_y
_atom_site_fract_z
_atom_type_partial_charge
Ba1   Ba    Ba6+2 0.999960 0.460860 0.844880 1.724358
Ba2   Ba    Ba6+2 0.999960 0.539140 0.344880 1.719458
Ba3   Ba    Ba6+2 0.499960 0.960860 0.844880 1.724247
Ba4   Ba    Ba6+2 0.499960 0.039140 0.344880 1.719402
C1    C     C_3   0.972247 0.189090 0.469330 -0.478484
C2    C     C_R   0.820159 0.664937 0.609134 -0.159984
C3    C     C_2   0.559038 0.908083 0.322663 0.547173
C4    C     C_3   0.864907 0.175541 0.865719 -0.182714
C5    C     C_3   0.872243 0.820159 0.329625 -0.127341
C6    C     C_3   0.364783 0.676493 0.867850 -0.185031
C7    C     C_3   0.372395 0.320367 0.329603 -0.127719
C8    C     C_R   0.324432 0.832254 0.100562 -0.135943
C9    C     C_R   0.320169 0.164942 0.609120 -0.159871
C10   C     C_R   0.812242 0.286040 0.197064 0.260500
C11   C     C_R   0.806201 0.710124 0.707488 0.241901
C12   C     C_R   0.312243 0.786039 0.197098 0.262588
C13   C     C_R   0.306204 0.210125 0.707477 0.241834
C14   C     C_R   0.842082 0.282876 0.349937 -0.162265
C15   C     C_R   0.835760 0.713183 0.860440 -0.170034
C16   C     C_R   0.342038 0.782898 0.350029 -0.161541
C17   C     C_3   0.983351 0.824385 0.052713 -0.442182
C18   C     C_R   0.335755 0.213180 0.860442 -0.170138
C19   C     C_R   0.880988 0.325103 0.407188 -0.017620
C20   C     C_R   0.877384 0.672347 0.915031 0.005476
C21   C     C_R   0.380968 0.825107 0.407278 -0.017960
C22   C     C_R   0.377383 0.172347 0.915031 0.005498
C23   C     C_R   0.185878 0.661153 0.067633 -0.030498
C24   C     C_R   0.182590 0.336975 0.572698 -0.028789
C25   C     C_R   0.685888 0.161142 0.067607 -0.029696
C26   C     C_R   0.682586 0.836971 0.572721 -0.027761
C27   C     C_R   0.137074 0.625629 0.023906 0.031836
C28   C     C_3   0.472385 0.689796 0.466885 -0.478746
C29   C     C_R   0.137052 0.375393 0.522904 0.047075
C30   C     C_R   0.637075 0.125628 0.023900 0.031852
C31   C     C_R   0.637039 0.875381 0.522947 0.046256
C32   C     C_R   0.199169 0.706798 0.970012 0.255227
C33   C     C_R   0.195080 0.290855 0.476446 0.262479
C34   C     C_R   0.699186 0.206782 0.969980 0.255714
C35   C     C_R   0.695063 0.790842 0.476486 0.263448
C36   C     C_R   0.101899 0.637093 0.883882 -0.272274
C37   C     C_R   0.105571 0.368513 0.375606 -0.297033
C38   C     C_R   0.601889 0.137103 0.883897 -0.272311
C39   C     C_3   0.483398 0.324377 0.052759 -0.441978
C40   C     C_R   0.605539 0.868488 0.375684 -0.297120
C41   C     C_R   0.117869 0.677512 0.777501 -0.062465
C42   C     C_R   0.118355 0.324848 0.276595 -0.076147
C43   C     C_R   0.617858 0.177521 0.777516 -0.062566
C44   C     C_R   0.618308 0.824815 0.276694 -0.076426
C45   C     C_3   0.989027 0.253822 0.048085 0.348860
C46   C     C_3   0.001200 0.761522 0.606916 0.339568
C47   C     C_3   0.489287 0.753493 0.049475 0.347115
C48   C     C_3   0.501214 0.261539 0.606955 0.339772
C49   C     C_R   0.166516 0.712326 0.821268 -0.180895
C50   C     C_R   0.864006 0.374289 0.159416 0.020524
C51   C     C_R   0.162920 0.286035 0.327319 -0.170105
C52   C     C_R   0.666518 0.212322 0.821261 -0.181143
C53   C     C_R   0.662882 0.786008 0.327393 -0.170006
C54   C     C_3   0.965210 0.196688 0.995604 0.216849
C55   C     C_3   0.961815 0.807168 0.520255 0.224933
C56   C     C_3   0.465672 0.696418 0.995941 0.216633
C57   C     C_3   0.461880 0.307243 0.520409 0.224887
C58   C     C_3   0.179896 0.468255 0.213998 0.271980
C59   C     C_3   0.172454 0.533777 0.713094 0.259782
C60   C     C_3   0.679865 0.968234 0.213883 0.272006
C61   C     C_R   0.861961 0.623999 0.664932 0.030620
C62   C     C_3   0.672416 0.033815 0.712769 0.260151
C63   C     C_3   0.239920 0.437748 0.243173 -0.232147
C64   C     C_3   0.230312 0.567227 0.737060 -0.235968
C65   C     C_3   0.739874 0.937693 0.242982 -0.232312
C66   C     C_3   0.730256 0.067289 0.736752 -0.236186
C67   C     C_3   0.822585 0.532656 0.979606 0.229999
C68   C     C_3   0.824130 0.467165 0.479941 0.228256
C69   C     C_3   0.322590 0.032660 0.979620 0.229961
C70   C     C_3   0.324122 0.967167 0.479967 0.228266
C71   C     C_3   0.764983 0.567401 0.973242 -0.265048
C72   C     C_R   0.364007 0.874289 0.159460 0.020679
C73   C     C_3   0.767020 0.432464 0.472410 -0.267972
C74   C     C_3   0.264993 0.067410 0.973287 -0.265028
C75   C     C_3   0.267014 0.932464 0.472487 -0.267973
C76   C     C_3   0.994220 0.243230 0.545212 0.293951
C77   C     C_3   0.986751 0.761402 0.048024 0.346754
C78   C     C_3   0.494551 0.743426 0.545340 0.292711
C79   C     C_3   0.486777 0.261394 0.048060 0.346797
C80   C     C_R   0.888997 0.370610 0.313108 -0.242110
C81   C     C_R   0.887212 0.627135 0.819010 -0.193626
C82   C     C_R   0.388985 0.870613 0.313178 -0.242271
C83   C     C_R   0.361967 0.124002 0.664926 0.030635
C84   C     C_R   0.387217 0.127138 0.819006 -0.193614
C85   C     C_2   0.054901 0.234486 0.630817 0.528842
C86   C     C_2   0.051385 0.744833 0.079034 0.583570
C87   C     C_2   0.554910 0.733896 0.631922 0.529889
C88   C     C_2   0.551404 0.244809 0.079127 0.583445
C89   C     C_2   0.280251 0.466317 0.366845 0.499704
C90   C     C_2   0.274077 0.540612 0.857837 0.497288
C91   C     C_2   0.780146 0.966113 0.367104 0.499392
C92   C     C_2   0.773906 0.040835 0.858098 0.496335
C93   C     C_2   0.749357 0.582446 0.135703 0.531045
C94   C     C_R   0.824415 0.332263 0.100538 -0.135116
C95   C     C_2   0.750112 0.418683 0.634484 0.539283
C96   C     C_2   0.249360 0.082424 0.135758 0.531171
C97   C     C_2   0.250140 0.918670 0.634578 0.539165
C98   C     C_3   0.977707 0.097163 0.053727 -0.246661
C99   C     C_3   0.895331 0.840255 0.722646 -0.225094
C100  C     C_3   0.480515 0.596705 0.046454 -0.247277
C101  C     C_3   0.395323 0.340201 0.722750 -0.225260
C102  C     C_2   0.041860 0.615638 0.858875 0.492359
C103  C     C_2   0.059056 0.408097 0.322614 0.547188
C104  C     C_2   0.541848 0.115653 0.858894 0.492335
H1    H     H_    0.231612 0.394676 0.280549 0.036326
H2    H     H_    0.837407 0.472513 0.358669 0.019957
H3    H     H_    0.851818 0.841074 0.650551 0.156446
H4    H     H_    0.541289 0.657988 0.112424 0.218787
H5    H     H_    0.506878 0.567447 0.125895 0.110185
H6    H     H_    0.491454 0.588907 0.923287 0.099462
H7    H     H_    0.432097 0.588744 0.057298 0.157775
H8    H     H_    0.442814 0.389418 0.578149 0.207304
H9    H     H_    0.393484 0.373349 0.812039 0.116754
H10   H     H_    0.401109 0.299772 0.781905 0.088946
H11   H     H_    0.351840 0.340997 0.650540 0.156189
H12   H     H_    0.032392 0.572691 0.834529 0.036519
H13   H     H_    0.335650 0.027295 0.858049 0.017309
H14   H     H_    0.066757 0.441617 0.243934 0.011762
H15   H     H_    0.532374 0.072700 0.834549 0.036549
H16   H     H_    0.566754 0.941603 0.244002 0.011723
H17   H     H_    0.885775 0.184274 0.110211 0.220957
H18   H     H_    0.817119 0.172819 0.890305 0.149495
H19   H     H_    0.880561 0.133780 0.832708 0.102154
H20   H     H_    0.867958 0.204312 0.765471 0.142681
H21   H     H_    0.885003 0.755733 0.492893 0.196233
H22   H     H_    0.853323 0.796635 0.225538 0.117554
H23   H     H_    0.898566 0.855368 0.289125 0.083691
H24   H     H_    0.337387 0.972510 0.358681 0.019932
H25   H     H_    0.834012 0.836649 0.390448 0.114620
H26   H     H_    0.387336 0.681118 0.112119 0.222766
H27   H     H_    0.317369 0.672155 0.895000 0.150815
H28   H     H_    0.381035 0.635772 0.827444 0.100759
H29   H     H_    0.366282 0.707354 0.771785 0.145086
H30   H     H_    0.385055 0.255846 0.492573 0.196377
H31   H     H_    0.353438 0.296891 0.225469 0.117492
H32   H     H_    0.398775 0.355548 0.289175 0.083813
H33   H     H_    0.334193 0.336898 0.390459 0.114530
H34   H     H_    0.858488 0.554029 0.054315 0.033187
H35   H     H_    0.859989 0.445828 0.556019 0.045716
H36   H     H_    0.358498 0.054027 0.054327 0.033212
H37   H     H_    0.359987 0.945835 0.556036 0.045800
H38   H     H_    0.727329 0.543707 0.913017 0.069890
H39   H     H_    0.729498 0.455768 0.408517 0.068762
H40   H     H_    0.227339 0.043731 0.913015 0.069890
H41   H     H_    0.219894 0.609803 0.773860 0.037224
H42   H     H_    0.229481 0.955770 0.408656 0.068789
H43   H     H_    0.770580 0.605482 0.903610 0.069201
H44   H     H_    0.773881 0.393832 0.405811 0.069440
H45   H     H_    0.270597 0.105501 0.903720 0.069134
H46   H     H_    0.273862 0.893839 0.405853 0.069349
H47   H     H_    0.999442 0.273918 0.449964 -0.023945
H48   H     H_    0.970145 0.747838 0.928325 -0.073586
H49   H     H_    0.500368 0.774524 0.451507 -0.021458
H50   H     H_    0.470181 0.247836 0.928344 -0.073505
H51   H     H_    0.006527 0.171905 0.395779 0.108805
H52   H     H_    0.731533 0.894572 0.279899 0.036462
H53   H     H_    0.005538 0.842457 0.952929 0.098399
H54   H     H_    0.506805 0.672893 0.393156 0.108491
H55   H     H_    0.505602 0.342441 0.952993 0.098384
H56   H     H_    0.963540 0.158250 0.561031 0.118861
H57   H     H_    0.005660 0.840514 0.164521 0.114621
H58   H     H_    0.463171 0.658520 0.557167 0.119682
H59   H     H_    0.505701 0.340500 0.164588 0.114673
H60   H     H_    0.212649 0.653420 0.177216 0.105523
H61   H     H_    0.207723 0.343152 0.685343 0.099043
H62   H     H_    0.712669 0.153400 0.177170 0.105594
H63   H     H_    0.719791 0.109914 0.773005 0.037457
H64   H     H_    0.707736 0.843160 0.685336 0.099097
H65   H     H_    0.834026 0.248116 0.425174 0.084664
H66   H     H_    0.826707 0.747644 0.936209 0.076398
H67   H     H_    0.333946 0.748155 0.425291 0.084750
H68   H     H_    0.326696 0.247637 0.936217 0.076427
H69   H     H_    0.802122 0.336626 0.983599 0.156320
H70   H     H_    0.798178 0.660874 0.491804 0.153551
H71   H     H_    0.302164 0.836604 0.983592 0.156136
H72   H     H_    0.298192 0.160881 0.491785 0.153599
H73   H     H_    0.178044 0.744640 0.741489 0.120621
H74   H     H_    0.262616 0.435795 0.132196 0.065590
H75   H     H_    0.172650 0.251982 0.250798 0.125890
H76   H     H_    0.678051 0.244632 0.741471 0.120763
H77   H     H_    0.672612 0.751957 0.250866 0.125741
H78   H     H_    0.910905 0.406098 0.364835 0.109050
H79   H     H_    0.915644 0.593574 0.865200 0.063370
H80   H     H_    0.410891 0.906101 0.364905 0.109230
H81   H     H_    0.415654 0.093581 0.865192 0.063364
H82   H     H_    0.930145 0.196293 0.393791 0.126118
H83   H     H_    0.935806 0.837977 0.044625 0.113233
H84   H     H_    0.430464 0.697594 0.390842 0.125366
H85   H     H_    0.251401 0.570087 0.623876 0.069722
H86   H     H_    0.435860 0.337979 0.044627 0.113269
H87   H     H_    0.962806 0.285682 0.977365 0.077152
H88   H     H_    0.971847 0.727849 0.644242 0.017316
H89   H     H_    0.462522 0.785492 0.980310 0.074927
H90   H     H_    0.471823 0.227881 0.644185 0.017299
H91   H     H_    0.982638 0.260061 0.174634 -0.070204
H92   H     H_    0.026013 0.779502 0.713020 -0.041635
H93   H     H_    0.483480 0.759161 0.176649 -0.069952
H94   H     H_    0.526042 0.279469 0.713101 -0.041790
H95   H     H_    0.976921 0.189961 0.872735 0.107151
H96   H     H_    0.762634 0.935874 0.132084 0.065691
H97   H     H_    0.990230 0.826743 0.434897 0.097589
H98   H     H_    0.476638 0.690491 0.872016 0.108271
H99   H     H_    0.490342 0.326861 0.435252 0.097465
H100  H     H_    0.159871 0.473004 0.327837 -0.034047
H101  H     H_    0.152683 0.528883 0.827146 -0.015127
H102  H     H_    0.659842 0.972955 0.327737 -0.034409
H103  H     H_    0.652572 0.029009 0.826747 -0.015622
H104  H     H_    0.151141 0.443501 0.128346 0.013915
H105  H     H_    0.140298 0.556332 0.629117 0.033655
H106  H     H_    0.651095 0.943523 0.128151 0.014342
H107  H     H_    0.751466 0.069995 0.623715 0.069487
H108  H     H_    0.640307 0.056305 0.628532 0.034104
H109  H     H_    0.075505 0.193592 0.640134 -0.041207
H110  H     H_    0.083979 0.760368 0.003215 -0.109999
H111  H     H_    0.574476 0.692652 0.643425 -0.040793
H112  H     H_    0.584032 0.260360 0.003387 -0.109980
H113  H     H_    0.294648 0.508354 0.347813 0.044631
H114  H     H_    0.291365 0.499417 0.837631 0.048645
H115  H     H_    0.794524 0.008204 0.348646 0.044000
H116  H     H_    0.791248 0.999619 0.838434 0.048307
H117  H     H_    0.741367 0.550203 0.219819 0.014582
H118  H     H_    0.835650 0.527287 0.858042 0.017337
H119  H     H_    0.741107 0.451568 0.716048 0.012892
H120  H     H_    0.241353 0.050168 0.219807 0.014576
H121  H     H_    0.241131 0.951548 0.716149 0.012975
H122  H     H_    0.039919 0.157893 0.114415 0.217904
H123  H     H_    0.003983 0.068198 0.134017 0.109291
H124  H     H_    0.987682 0.088035 0.930782 0.099861
H125  H     H_    0.929349 0.090074 0.067529 0.158988
H126  H     H_    0.942787 0.889384 0.577701 0.207170
H127  H     H_    0.893571 0.873429 0.811902 0.116718
H128  H     H_    0.901099 0.799833 0.781861 0.088871
N1    N     N_2   0.769434 0.243480 0.150350 -0.226769
N2    N     N_2   0.944800 0.850471 0.627494 -0.457257
N3    N     N_2   0.495486 0.652907 0.092367 -0.437490
N4    N     N_2   0.444824 0.350482 0.627785 -0.457266
N5    N     N_2   0.900350 0.196015 0.003266 -0.440671
N6    N     N_2   0.909215 0.783552 0.432642 -0.375914
N7    N     N_2   0.400961 0.695056 0.006625 -0.442601
N8    N     N_2   0.409309 0.283689 0.432534 -0.375878
N9    N     N_2   0.763208 0.752769 0.659994 -0.229510
N10   N     N_2   0.269457 0.743466 0.150340 -0.226367
N11   N     N_2   0.263212 0.252772 0.659978 -0.229772
N12   N     N_2   0.243779 0.748029 0.014556 -0.218704
N13   N     N_2   0.238898 0.248768 0.522736 -0.223534
N14   N     N_2   0.743822 0.247992 0.014485 -0.218121
N15   N     N_2   0.738886 0.748761 0.522766 -0.223525
N16   N     N_2   0.993997 0.153508 0.095031 -0.438054
O1    O     O_2   0.882020 0.421650 0.880110 -0.460867
O2    O     O_3   0.043620 0.741779 0.506288 -0.555565
O3    O     O_3   0.550226 0.757070 0.020979 -0.595727
O4    O     O_3   0.543611 0.241784 0.506286 -0.555521
O5    O     O_3   0.068720 0.527400 0.059520 -0.539796
O6    O     O_3   0.068720 0.472600 0.559520 -0.492714
O7    O     O_3   0.568720 0.027400 0.059520 -0.539806
O8    O     O_3   0.568720 0.972600 0.559520 -0.492792
O9    O     O_3   0.931280 0.472530 0.130180 -0.479177
O10   O     O_3   0.931280 0.527470 0.630180 -0.497765
O11   O     O_3   0.431280 0.972530 0.130180 -0.479179
O12   O     O_2   0.882020 0.578350 0.380110 -0.453456
O13   O     O_3   0.431280 0.027470 0.630180 -0.497758
O14   O     O_3   0.979610 0.373300 0.637850 -0.404032
O15   O     O_3   0.979610 0.626700 0.137850 -0.424461
O16   O     O_3   0.479610 0.873300 0.637850 -0.404366
O17   O     O_3   0.479610 0.126700 0.137850 -0.424487
O18   O     O_2   0.877372 0.332603 0.733234 -0.458296
O19   O     O_2   0.878008 0.666403 0.240149 -0.450235
O20   O     O_2   0.377462 0.832513 0.733470 -0.459135
O21   O     O_2   0.378011 0.166406 0.240154 -0.450238
O22   O     O_3   0.811123 0.480961 0.041880 -0.652106
O23   O     O_2   0.382020 0.921650 0.880110 -0.460692
O24   O     O_3   0.811794 0.518907 0.541308 -0.654439
O25   O     O_3   0.311124 0.980963 0.041878 -0.652130
O26   O     O_3   0.311790 0.018912 0.541319 -0.654437
O27   O     O_3   0.953784 0.259547 0.655235 -0.616502
O28   O     O_3   0.951993 0.740404 0.164606 -0.555503
O29   O     O_3   0.453886 0.759512 0.655035 -0.617153
O30   O     O_3   0.451993 0.240408 0.164601 -0.555441
O31   O     O_2   0.117830 0.421200 0.809460 -0.451867
O32   O     O_2   0.117830 0.578800 0.309460 -0.448342
O33   O     O_2   0.617830 0.921200 0.809460 -0.451884
O34   O     O_2   0.382020 0.078350 0.380110 -0.453448
O35   O     O_2   0.617830 0.078800 0.309460 -0.448452
O36   O     O_3   0.020150 0.373220 0.051650 -0.496865
O37   O     O_3   0.020150 0.626780 0.551650 -0.454885
O38   O     O_3   0.520150 0.873220 0.051650 -0.496484
O39   O     O_3   0.520150 0.126780 0.551650 -0.454897
O40   O     O_2   0.123813 0.334061 0.956987 -0.419609
O41   O     O_2   0.122254 0.666147 0.457261 -0.427720
O42   O     O_2   0.623895 0.834206 0.957328 -0.419758
O43   O     O_2   0.622254 0.166152 0.457287 -0.427775
O44   O     O_2   0.081509 0.273584 0.693028 -0.542490
O45   O     O_3   0.186659 0.482255 0.651418 -0.631902
O46   O     O_2   0.068024 0.715129 0.189708 -0.515054
O47   O     O_2   0.582247 0.772727 0.693305 -0.543162
O48   O     O_2   0.568008 0.215088 0.189784 -0.515048
O49   O     O_2   0.297228 0.442582 0.488988 -0.615065
O50   O     O_2   0.290682 0.564989 0.978844 -0.611337
O51   O     O_2   0.797092 0.942191 0.489000 -0.615140
O52   O     O_2   0.790353 0.065368 0.978976 -0.611645
O53   O     O_2   0.745350 0.630848 0.174156 -0.579757
O54   O     O_2   0.746139 0.370592 0.675432 -0.576385
O55   O     O_2   0.245368 0.130817 0.174296 -0.579763
O56   O     O_3   0.189463 0.519954 0.148859 -0.621875
O57   O     O_2   0.246199 0.870577 0.675531 -0.576611
O58   O     O_2   0.001624 0.649508 0.846908 -0.683444
O59   O     O_2   0.009482 0.402585 0.365419 -0.595160
O60   O     O_2   0.501618 0.149524 0.846906 -0.683476
O61   O     O_2   0.509457 0.902580 0.365416 -0.595314
O62   O     O_3   0.686666 0.982248 0.651487 -0.631811
O63   O     O_3   0.689463 0.019955 0.148907 -0.621646
O64   O     O_3   0.050105 0.256971 0.021553 -0.596839
P1    P     P_3+3 0.876190 0.439990 0.052900 0.994040
P2    P     P_3+3 0.075872 0.679072 0.576763 1.053749
P3    P     P_3+3 0.577703 0.822287 0.077578 1.000311
P4    P     P_3+3 0.575865 0.179078 0.576773 1.053730
P5    P     P_3+3 0.921018 0.676044 0.110551 1.064616
P6    P     P_3+3 0.921838 0.324020 0.605904 1.016632
P7    P     P_3+3 0.421019 0.176047 0.110552 1.064633
P8    P     P_3+3 0.421867 0.823986 0.605965 1.015539
P9    P     P_3+3 0.876190 0.560010 0.552900 0.997209
P10   P     P_3+3 0.376190 0.939990 0.052900 0.994220
P11   P     P_3+3 0.376190 0.060010 0.552900 0.997216
P12   P     P_3+3 0.123690 0.439530 0.636710 1.013402
P13   P     P_3+3 0.123690 0.560470 0.136710 0.991977
P14   P     P_3+3 0.623690 0.939530 0.636710 1.013207
P15   P     P_3+3 0.623690 0.060470 0.136710 0.992230
P16   P     P_3+3 0.077682 0.322257 0.077542 1.000172

loop_
_geom_bond_atom_site_label_1
_geom_bond_atom_site_label_2
_ccdc_geom_bond_type
C99   H128  S    
C28   H58   S    
C30   C38   A    
C77   H48   S    
C39   H86   S    
C46   C55   S    
Ba2   O37   S    
C48   C57   S    
C16   H67   S    
C65   H52   S    
C32   C49   A    
C47   H89   S    
Ba2   O12   S    
C8    C12   A    
C56   N7    S    
Ba1   P1    S    
C42   C51   A    
C64   H85   S    
C20   C81   A    
C73   H39   S    
O8    P14   S    
C74   H40   S    
Ba4   O8    S    
C98   H124  S    
C60   H102  S    
O29   P8    S    
C90   O50   D    
O6    P12   S    
C58   H100  S    
C68   H2    S    
C5    H23   S    
C84   H81   S    
C19   C80   A    
C23   C27   A    
C45   H87   S    
C69   O25   S    
C78   C87   S    
C7    H32   S    
C63   H74   S    
C12   C16   A    
O18   P6    D    
O45   P12   S    
C22   P7    S    
C4    H18   S    
C24   C29   A    
C69   H13   S    
C70   C75   S    
C101  H10   S    
C48   H90   S    
O26   P11   S    
Ba1   O6    S    
O17   P7    S    
Ba4   P15   S    
Ba3   O16   S    
C37   C103  S    
C29   P12   S    
C6    N7    S    
O13   P11   S    
C65   C91   S    
C10   N1    S    
C74   H45   S    
O25   P10   S    
O5    P13   S    
Ba4   O39   S    
C62   C66   S    
Ba3   O7    S    
C91   H115  S    
C15   H66   S    
C104  O60   D    
C58   H104  S    
O1    P1    D    
C103  H14   S    
Ba1   O36   S    
O31   P12   D    
C40   C44   A    
C69   H36   S    
C5    H25   S    
C39   C79   S    
C70   H37   S    
O34   P11   D    
C44   C53   A    
C72   P10   S    
O30   P7    S    
O27   P6    S    
H21   N6    S    
O2    P2    S    
O40   P16   D    
C4    H20   S    
C71   H43   S    
O37   P2    S    
C28   H54   S    
C25   C34   A    
C76   O27   S    
O39   P4    S    
C64   H41   S    
C83   P11   S    
C86   O46   D    
C41   C49   A    
C91   O51   D    
C61   P9    S    
C73   H44   S    
C10   C94   A    
C71   H38   S    
Ba4   O35   S    
C6    H27   S    
O56   P13   S    
Ba1   O31   S    
C6    H29   S    
Ba2   O32   S    
C64   C90   S    
C94   H69   S    
C66   C92   S    
C9    C83   A    
C42   P16   S    
C60   C65   S    
C7    H33   S    
C26   H64   S    
N1    N14   D    
C27   P13   S    
C60   O63   S    
Ba3   Ba4   S    
O63   P15   S    
C76   H47   S    
C36   C102  S    
C45   H91   S    
Ba4   O17   S    
Ba3   P14   S    
C59   C64   S    
C70   O26   S    
C99   H127  S    
C53   H77   S    
O22   P1    S    
Ba3   O23   S    
C39   H59   S    
C9    H72   S    
C28   C78   S    
C93   O53   D    
C9    C13   A    
C30   P15   S    
C79   O30   S    
C56   H98   S    
C34   N14   S    
C4    N5    S    
C99   N2    S    
O38   P3    S    
C26   C35   A    
C73   C95   S    
C48   H94   S    
C62   H108  S    
C86   H110  S    
C100  H5    S    
C33   C51   A    
Ba2   O5    S    
C34   C52   A    
C65   H96   S    
C90   H114  S    
C75   C97   S    
O23   P10   D    
C47   C56   S    
C92   O52   D    
Ba3   O38   S    
C95   H119  S    
O15   P5    S    
C43   C52   A    
C81   H79   S    
O10   P9    S    
C93   H117  S    
C83   C84   A    
C82   H80   S    
C100  N3    S    
C80   H78   S    
C47   O3    S    
C50   C80   A    
C5    H22   S    
C11   C15   A    
O16   P8    S    
O12   P9    D    
C20   P5    S    
C55   N6    S    
C66   H107  S    
C17   H83   S    
C16   C21   A    
C13   N11   S    
C71   C93   S    
C17   H57   S    
C27   C36   A    
C28   H84   S    
C99   H3    S    
H126  N2    S    
C76   C85   S    
C96   H120  S    
C7    H31   S    
C96   O55   D    
C46   H88   S    
C2    C61   A    
Ba1   O14   S    
C23   H60   S    
C55   H97   S    
N11   N13   D    
N9    N15   D    
C2    H70   S    
C101  H9    S    
C59   H101  S    
O32   P13   D    
Ba1   O1    S    
Ba1   O5    S    
C62   O62   S    
C58   O56   S    
C36   C41   A    
O21   P7    D    
C59   O45   S    
C55   N2    S    
C102  O58   D    
O33   P14   D    
C25   C30   A    
O64   P16   S    
Ba4   O34   S    
C46   O2    S    
C100  H7    S    
C87   O47   D    
O9    P1    S    
C85   O44   D    
C56   N3    S    
C45   O64   S    
O28   P5    S    
C57   H99   S    
C75   H42   S    
C26   C31   A    
C19   P6    S    
C54   H95   S    
Ba4   O7    S    
C8    C72   A    
C74   C96   S    
C98   H123  S    
C67   H118  S    
C104  H15   S    
C72   C82   A    
C41   P2    S    
H30   N8    S    
C89   O49   D    
Ba3   O33   S    
C68   O24   S    
C57   N4    S    
O36   P16   S    
C18   H68   S    
C23   C32   A    
Ba2   P9    S    
C52   H76   S    
C13   C18   A    
C29   C37   A    
C15   C20   A    
C48   O4    S    
C79   H50   S    
Ba2   O15   S    
Ba1   P12   S    
C24   H61   S    
Ba3   P10   S    
C35   N15   S    
C98   H125  S    
C22   C84   A    
C18   C22   A    
C43   P4    S    
C51   H75   S    
C101  H11   S    
C44   P3    S    
C97   H121  S    
C62   H103  S    
C47   H93   S    
C39   H55   S    
C68   H35   S    
Ba3   O13   S    
C70   H24   S    
C77   O28   S    
C10   C14   A    
C54   N16   S    
C3    H16   S    
C66   H63   S    
O11   P10   S    
O41   P2    D    
O43   P4    D    
Ba2   P13   S    
C58   C63   S    
C88   O48   D    
C98   N16   S    
C24   C33   A    
C60   H106  S    
C6    H28   S    
C1    H82   S    
Ba2   O9    S    
Ba3   O8    S    
C35   C53   A    
C67   O22   S    
C95   O54   D    
Ba1   Ba2   S    
C88   H112  S    
C2    C11   A    
C63   H1    S    
C11   N9    S    
C1    H51   S    
C37   C42   A    
H17   N5    S    
C50   P1    S    
C25   H62   S    
O7    P15   S    
C57   N8    S    
C7    N8    S    
H122  N16   S    
C5    N6    S    
O14   P6    S    
N10   N12   D    
C17   H53   S    
C14   C19   A    
C1    H56   S    
C103  O59   D    
C78   H49   S    
C46   H92   S    
C92   H116  S    
C3    O61   D    
Ba4   P11   S    
C45   C54   S    
Ba1   O10   S    
C54   N5    S    
C31   P14   S    
C68   C73   S    
C49   H73   S    
C4    H19   S    
O35   P15   D    
C69   C74   S    
H4    N3    S    
C3    C40   S    
C59   H105  S    
C1    C76   S    
C31   C40   A    
C67   H34   S    
C100  H6    S    
Ba2   O6    S    
C17   C77   S    
C32   N12   S    
C77   C86   S    
O62   P14   S    
C63   C89   S    
O42   P3    D    
C102  H12   S    
C61   C81   A    
C12   N10   S    
H8    N4    S    
C75   H46   S    
C67   C71   S    
C21   P8    S    
Ba4   O11   S    
C33   N13   S    
C21   C82   A    
C101  N4    S    
C38   C43   A    
C87   H111  S    
O24   P9    S    
H26   N7    S    
C85   H109  S    
C14   H65   S    
C8    H71   S    
C97   O57   D    
C79   C88   S    
O20   P8    D    
C50   C94   A    
C89   H113  S    
O19   P5    D    
C78   O29   S    
C38   C104  S    
O3    P3    S    
O4    P4    S    
