data_mof_unit_48413.cif
_audit_creation_date              2012-12-10T17:57:49-0500
_audit_creation_method            fapswitch 2.2
_symmetry_space_group_name_H-M    P1
_symmetry_Int_Tables_number       1
_space_group_crystal_system       triclinic
_cell_length_a                    10.799225
_cell_length_b                    9.518154
_cell_length_c                    15.079221
_cell_angle_alpha                 89.899143
_cell_angle_beta                  90.193939
_cell_angle_gamma                 89.996655
_cell_volume                      1549.96203813

loop_
_atom_site_label
_atom_site_type_symbol
_atom_type_description
_atom_site_fract_x
_atom_site_fract_y
_atom_site_fract_z
_atom_type_partial_charge
C1    C     C_R   0.262596 0.500000 0.499821 0.809926
C2    C     C_R   0.737404 0.500000 0.500179 0.809928
C3    C     C_R   0.437879 0.251879 0.045304 -0.021931
C4    C     C_R   0.562116 0.748123 0.954696 -0.021932
C5    C     C_R   0.064256 0.430623 0.431374 -0.066333
C6    C     C_R   0.935743 0.569375 0.568627 -0.066334
C7    C     C_R   0.934868 0.430608 0.431504 -0.072421
C8    C     C_R   0.065131 0.569393 0.568495 -0.072420
C9    C     C_R   0.871382 0.499988 0.500121 -0.129823
C10   C     C_R   0.128617 0.500012 0.499878 -0.129825
C11   C     C_R   0.426210 0.074577 0.442617 -0.005612
C12   C     C_R   0.573790 0.925422 0.557383 -0.005612
C13   C     C_R   0.573810 0.074253 0.557372 -0.006818
C14   C     C_R   0.426191 0.925747 0.442628 -0.006818
C15   C     C_R   0.499852 0.500070 0.328621 0.824639
C16   C     C_R   0.500148 0.499930 0.671378 0.824641
C17   C     C_R   0.529947 0.623243 0.814134 -0.190317
C18   C     C_R   0.470052 0.376756 0.185866 -0.190321
C19   C     C_R   0.500361 0.500007 0.768127 -0.071118
C20   C     C_R   0.499638 0.499993 0.231873 -0.071118
C21   C     C_R   0.470826 0.377192 0.814486 -0.212438
C22   C     C_R   0.529170 0.622812 0.185513 -0.212435
C23   C     C_R   0.469898 0.376741 0.906798 0.100257
C24   C     C_R   0.530097 0.623262 0.093202 0.100256
C25   C     C_R   0.500243 0.500560 0.953454 0.051407
C26   C     C_R   0.499754 0.499442 0.046546 0.051405
C27   C     C_R   0.531008 0.625261 0.907000 0.054206
C28   C     C_R   0.468989 0.374740 0.092999 0.054206
C29   C     C_R   0.438583 0.254059 0.952790 -0.216316
C30   C     C_R   0.561410 0.745946 0.047210 -0.216311
Cu1   Cu    Cu3+1 0.500000 0.640660 0.500000 0.972038
Cu2   Cu    Cu3+1 0.500000 0.359340 0.500000 0.972038
H1    H     H_    0.553128 0.717136 0.777079 0.170650
H2    H     H_    0.446872 0.282862 0.222921 0.170650
H3    H     H_    0.447320 0.282044 0.778708 0.162435
H4    H     H_    0.552674 0.717962 0.221291 0.162434
H5    H     H_    0.414237 0.159661 0.916443 0.162609
H6    H     H_    0.585754 0.840346 0.083557 0.162608
H7    H     H_    0.367115 0.130773 0.396649 0.142275
H8    H     H_    0.632885 0.869227 0.603351 0.142271
H9    H     H_    0.632971 0.130209 0.603314 0.133700
H10   H     H_    0.367029 0.869791 0.396686 0.133700
N1    N     N_R   0.500000 0.852070 0.500000 -0.167955
N2    N     N_R   0.500000 0.147930 0.500000 -0.167956
O1    O     O_R   0.319640 0.618740 0.499990 -0.577519
O2    O     O_R   0.680360 0.381260 0.500010 -0.577519
O3    O     O_R   0.680360 0.618740 0.500010 -0.579045
O4    O     O_R   0.319640 0.381260 0.499990 -0.579045
O5    O     O_R   0.499970 0.618800 0.370260 -0.593349
O6    O     O_R   0.500030 0.381200 0.629740 -0.593350
O7    O     O_R   0.500030 0.618800 0.629740 -0.579368
O8    O     O_R   0.499970 0.381200 0.370260 -0.579368
C31   C     C_1   0.403823 0.122411 0.089230 0.241032
N3    N     N_1   0.376344 0.018936 0.124447 -0.290489
C32   C     C_1   0.596174 0.877592 0.910770 0.241029
N4    N     N_1   0.623655 0.981069 0.875553 -0.290485
C33   C     C_1   0.130932 0.363576 0.359380 0.248717
N5    N     N_1   0.183988 0.310297 0.301978 -0.292497
C34   C     C_1   0.869068 0.636412 0.640624 0.248713
N6    N     N_1   0.816011 0.689682 0.698029 -0.292495
C35   C     C_1   0.867159 0.363437 0.359716 0.263742
N7    N     N_1   0.813101 0.310072 0.302563 -0.264282
C36   C     C_1   0.132840 0.636566 0.640281 0.263746
N8    N     N_1   0.186897 0.689934 0.697433 -0.264284

loop_
_geom_bond_atom_site_label_1
_geom_bond_atom_site_label_2
_ccdc_geom_bond_type
C12   H8    S    
C34   N6    T    
C32   N4    T    
C1    O4    A    
C21   H3    S    
C2    O3    A    
C25   C27   A    
Cu2   O4    S    
C26   C28   A    
Cu1   Cu2   S    
C16   O7    A    
C5    C33   S    
C14   H10   S    
C4    C30   A    
Cu2   O6    S    
C6    C9    A    
C13   H9    S    
Cu2   N2    S    
C18   C28   A    
C11   N2    A    
C17   H1    S    
Cu1   O3    S    
C15   O8    A    
C2    O2    A    
C15   O5    A    
C11   H7    S    
C3    C31   S    
C1    O1    A    
C33   N5    T    
C15   C20   S    
Cu1   N1    S    
Cu1   O5    S    
C16   C19   S    
C18   H2    S    
C23   C29   A    
C6    C34   S    
C3    C28   A    
C17   C19   A    
C24   C26   A    
C12   N1    A    
C18   C20   A    
C23   C25   A    
C4    C32   S    
C35   N7    T    
C16   O6    A    
C11   C14   A    
C22   C24   A    
C24   C30   A    
C20   C22   A    
C8    C36   S    
C36   N8    T    
C17   C27   A    
C7    C9    A    
C5    C10   A    
C4    C27   A    
C22   H4    S    
C12   C13   A    
C30   H6    S    
C8    C10   A    
Cu1   O1    S    
C29   H5    S    
C5    C7    A    
Cu2   O8    S    
C3    C29   A    
C6    C8    A    
C19   C21   A    
C25   C26   A    
C31   N3    T    
C2    C9    S    
Cu2   O2    S    
C21   C23   A    
C13   N2    A    
C7    C35   S    
C1    C10   S    
Cu1   O7    S    
C14   N1    A    
