data_mof_unit_30333.cif
_audit_creation_date              2012-12-11T16:07:24-0500
_audit_creation_method            fapswitch 2.2
_symmetry_space_group_name_H-M    P1
_symmetry_Int_Tables_number       1
_space_group_crystal_system       triclinic
_cell_length_a                    17.10844
_cell_length_b                    17.108016
_cell_length_c                    17.232989
_cell_angle_alpha                 90.053563
_cell_angle_beta                  89.944364
_cell_angle_gamma                 89.999922
_cell_volume                      5043.94421908

loop_
_atom_site_label
_atom_site_type_symbol
_atom_type_description
_atom_site_fract_x
_atom_site_fract_y
_atom_site_fract_z
_atom_type_partial_charge
C1    C     C_R   0.422380 0.669777 0.646331 -0.142064
C2    C     C_R   0.605317 0.698079 0.607595 -0.140737
C3    C     C_3   0.720888 0.249396 0.720313 -0.137447
C4    C     C_3   0.777635 0.806756 0.365429 -0.150531
C5    C     C_3   0.222427 0.193179 0.634597 -0.150071
C6    C     C_3   0.749821 0.278957 0.279255 -0.136993
C7    C     C_3   0.278839 0.749725 0.720696 -0.136933
C8    C     C_3   0.749590 0.779280 0.779364 -0.137387
C9    C     C_3   0.250266 0.220904 0.220526 -0.137277
C10   C     C_3   0.722877 0.306908 0.865017 -0.150369
C11   C     C_3   0.306908 0.722874 0.134980 -0.150354
C12   C     C_3   0.221034 0.250139 0.779526 -0.137203
C13   C     C_R   0.669784 0.422373 0.353672 -0.142070
C14   C     C_3   0.778738 0.750059 0.220398 -0.137108
C15   C     C_3   0.278062 0.693302 0.865728 -0.150355
C16   C     C_3   0.693210 0.277947 0.134297 -0.150410
C17   C     C_R   0.329382 0.577584 0.645694 -0.129828
C18   C     C_R   0.606374 0.698045 0.393067 -0.151770
C19   C     C_R   0.393675 0.301956 0.606983 -0.151424
C20   C     C_R   0.330064 0.577731 0.353839 -0.142411
C21   C     C_R   0.670755 0.422340 0.645530 -0.130031
C22   C     C_R   0.894605 0.198116 0.107465 -0.140950
C23   C     C_R   0.106441 0.801879 0.893181 -0.151654
C24   C     C_R   0.169806 0.077650 0.146230 -0.142702
C25   C     C_R   0.577588 0.329376 0.354311 -0.129807
C26   C     C_R   0.830168 0.922176 0.853779 -0.142084
C27   C     C_R   0.105239 0.802008 0.107734 -0.140868
C28   C     C_R   0.893696 0.197996 0.892910 -0.151726
C29   C     C_R   0.829272 0.922501 0.145630 -0.130255
C30   C     C_R   0.170742 0.077656 0.854373 -0.129509
C31   C     C_R   0.922471 0.829223 0.854404 -0.130108
C32   C     C_R   0.077667 0.170759 0.145615 -0.129484
C33   C     C_R   0.198111 0.894604 0.892525 -0.141001
C34   C     C_R   0.801878 0.106448 0.106808 -0.151716
C35   C     C_R   0.077636 0.169793 0.853761 -0.142651
C36   C     C_R   0.698055 0.606400 0.606877 -0.151903
C37   C     C_R   0.922215 0.830201 0.146242 -0.141876
C38   C     C_R   0.802012 0.105237 0.892261 -0.140816
C39   C     C_R   0.197995 0.893695 0.107086 -0.151703
C40   C     C_3   0.266072 0.264646 0.335361 0.189168
C41   C     C_3   0.733947 0.735360 0.664578 0.189155
C42   C     C_3   0.322903 0.678409 0.250943 0.189478
C43   C     C_3   0.678405 0.322903 0.749058 0.189478
C44   C     C_3   0.735317 0.733942 0.335309 0.189169
C45   C     C_3   0.264654 0.266067 0.664659 0.189172
C46   C     C_3   0.676739 0.321977 0.250461 0.189340
C47   C     C_R   0.301956 0.393669 0.393029 -0.151453
C48   C     C_3   0.321985 0.676736 0.749538 0.189332
C49   C     C_3   0.823211 0.821582 0.750722 0.189456
C50   C     C_3   0.176900 0.178251 0.249291 0.189426
C51   C     C_3   0.764783 0.233760 0.835048 0.189156
C52   C     C_3   0.233759 0.764780 0.164947 0.189156
C53   C     C_3   0.178228 0.176888 0.750698 0.189418
C54   C     C_3   0.821643 0.823231 0.249288 0.189422
C55   C     C_3   0.235503 0.765926 0.835643 0.189223
C56   C     C_3   0.765927 0.235515 0.164336 0.189226
C57   C     C_R   0.363757 0.635411 0.689527 0.028684
C58   C     C_R   0.577729 0.330063 0.646163 -0.142394
C59   C     C_R   0.635424 0.363743 0.310483 0.028696
C60   C     C_R   0.681449 0.682396 0.625803 0.037663
C61   C     C_R   0.318537 0.317653 0.374133 0.037674
C62   C     C_R   0.636561 0.364279 0.689219 0.028084
C63   C     C_R   0.364278 0.636567 0.310784 0.028095
C64   C     C_R   0.317663 0.318537 0.625891 0.037693
C65   C     C_R   0.682352 0.681432 0.374084 0.037720
C66   C     C_R   0.818438 0.182472 0.125617 0.038047
C67   C     C_R   0.182462 0.818438 0.874362 0.038059
C68   C     C_R   0.135553 0.136452 0.189359 0.028432
C69   C     C_R   0.422336 0.670762 0.354471 -0.130003
C70   C     C_R   0.864506 0.863397 0.810677 0.028427
C71   C     C_R   0.181327 0.817750 0.126131 0.037301
C72   C     C_R   0.817754 0.181326 0.873862 0.037294
C73   C     C_R   0.863488 0.864574 0.189384 0.028326
C74   C     C_R   0.136421 0.135529 0.810619 0.028401
C75   C     C_3   0.777162 0.705850 0.736434 -0.153845
C76   C     C_3   0.222538 0.294139 0.263693 -0.154824
C77   C     C_3   0.648250 0.279907 0.820893 -0.160734
C78   C     C_3   0.351026 0.751667 0.208161 -0.165303
C79   C     C_3   0.191510 0.294057 0.707706 -0.167863
C80   C     C_R   0.301932 0.394634 0.607580 -0.141214
C81   C     C_3   0.808360 0.705985 0.292085 -0.168265
C82   C     C_3   0.352253 0.720482 0.820893 -0.160603
C83   C     C_3   0.648462 0.249078 0.207114 -0.165921
C84   C     C_3   0.720351 0.352227 0.179013 -0.160564
C85   C     C_3   0.249174 0.648420 0.793003 -0.165929
C86   C     C_3   0.705698 0.777803 0.263879 -0.154205
C87   C     C_3   0.294169 0.222366 0.736220 -0.154925
C88   C     C_3   0.279909 0.648248 0.179114 -0.160717
C89   C     C_3   0.751664 0.351029 0.791831 -0.165310
C90   C     C_3   0.294017 0.191401 0.292454 -0.167890
C91   C     C_R   0.698057 0.605309 0.392341 -0.140908
C92   C     C_3   0.706164 0.808799 0.707246 -0.168346
C93   C     C_3   0.220107 0.148058 0.320924 -0.160673
C94   C     C_3   0.780331 0.851788 0.678899 -0.160353
C95   C     C_3   0.205854 0.691420 0.207557 -0.168100
C96   C     C_3   0.794243 0.277081 0.763183 -0.154288
C97   C     C_3   0.748702 0.851421 0.292668 -0.165718
C98   C     C_3   0.251266 0.148674 0.707484 -0.165510
C99   C     C_3   0.793971 0.308522 0.207518 -0.168073
C100  C     C_3   0.205933 0.721852 0.764250 -0.154620
C101  C     C_3   0.308424 0.794007 0.792340 -0.168040
C102  C     C_R   0.394635 0.301927 0.392434 -0.141162
C103  C     C_3   0.721985 0.205965 0.235819 -0.154544
C104  C     C_3   0.148014 0.220264 0.679173 -0.160738
C105  C     C_3   0.851949 0.779697 0.320682 -0.160620
C106  C     C_3   0.691422 0.205852 0.792447 -0.168097
C107  C     C_3   0.277078 0.794247 0.236808 -0.154300
C108  C     C_3   0.851218 0.748243 0.707885 -0.165713
C109  C     C_3   0.148734 0.251391 0.292368 -0.165507
C110  C     C_3   0.193069 0.222573 0.365361 -0.150134
C111  C     C_3   0.807209 0.777073 0.634702 -0.150783
C112  C     C_3   0.249396 0.720892 0.279686 -0.137462
H1    H     H_    0.171639 0.224920 0.426143 0.105315
H2    H     H_    0.273184 0.219798 0.160189 0.109875
H3    H     H_    0.725348 0.328480 0.925740 0.105260
H4    H     H_    0.328480 0.725342 0.074257 0.105232
H5    H     H_    0.220038 0.272957 0.839900 0.109889
H6    H     H_    0.779608 0.727359 0.159979 0.109765
H7    H     H_    0.276065 0.672197 0.926595 0.105399
H8    H     H_    0.672034 0.275856 0.073460 0.105416
H9    H     H_    0.456589 0.720462 0.661878 0.099244
H10   H     H_    0.543425 0.278420 0.339662 0.093149
H11   H     H_    0.755017 0.578980 0.606208 0.090327
H12   H     H_    0.828803 0.774514 0.573985 0.105372
H13   H     H_    0.245036 0.421181 0.393580 0.090566
H14   H     H_    0.543337 0.279470 0.661649 0.098892
H15   H     H_    0.456717 0.721601 0.339878 0.092778
H16   H     H_    0.245266 0.422594 0.606537 0.083903
H17   H     H_    0.754681 0.577250 0.393244 0.084179
H18   H     H_    0.422599 0.245261 0.393477 0.083881
H19   H     H_    0.577243 0.754695 0.606682 0.084109
H20   H     H_    0.720473 0.456577 0.338124 0.099218
H21   H     H_    0.278424 0.543425 0.660348 0.093167
H22   H     H_    0.578956 0.755009 0.393741 0.090245
H23   H     H_    0.226349 0.719654 0.339969 0.109677
H24   H     H_    0.421187 0.245035 0.606431 0.090545
H25   H     H_    0.279473 0.543337 0.338355 0.098899
H26   H     H_    0.721588 0.456728 0.660123 0.092800
H27   H     H_    0.922622 0.254756 0.106402 0.083814
H28   H     H_    0.079033 0.744912 0.893858 0.090161
H29   H     H_    0.220359 0.043236 0.161717 0.098997
H30   H     H_    0.779467 0.956334 0.838268 0.099199
H31   H     H_    0.077160 0.745394 0.106822 0.084178
H32   H     H_    0.921150 0.254945 0.893441 0.090692
H33   H     H_    0.778440 0.956915 0.160272 0.092963
H34   H     H_    0.719646 0.226349 0.660032 0.109680
H35   H     H_    0.221726 0.043502 0.839724 0.093020
H36   H     H_    0.956896 0.778394 0.839779 0.092832
H37   H     H_    0.043509 0.221742 0.160259 0.092992
H38   H     H_    0.254752 0.922617 0.893586 0.083836
H39   H     H_    0.744912 0.079040 0.106133 0.090192
H40   H     H_    0.043223 0.220348 0.838272 0.098992
H41   H     H_    0.956368 0.779494 0.161749 0.099167
H42   H     H_    0.745400 0.077155 0.893173 0.084165
H43   H     H_    0.254942 0.921151 0.106555 0.090685
H44   H     H_    0.774706 0.645307 0.759515 0.106058
H45   H     H_    0.775520 0.827968 0.426294 0.105418
H46   H     H_    0.224688 0.354739 0.240734 0.106434
H47   H     H_    0.587398 0.282768 0.843100 0.107239
H48   H     H_    0.411517 0.775112 0.209019 0.101899
H49   H     H_    0.167672 0.354399 0.707744 0.101118
H50   H     H_    0.832149 0.645625 0.291907 0.101756
H51   H     H_    0.413250 0.718196 0.842651 0.108148
H52   H     H_    0.587826 0.226002 0.207600 0.103009
H53   H     H_    0.717956 0.413197 0.157194 0.108154
H54   H     H_    0.226178 0.587750 0.792618 0.103030
H55   H     H_    0.645024 0.775864 0.241099 0.105956
H56   H     H_    0.224665 0.171846 0.573778 0.105326
H57   H     H_    0.354801 0.224382 0.759103 0.106412
H58   H     H_    0.282773 0.587393 0.156912 0.107235
H59   H     H_    0.775105 0.411522 0.790970 0.101904
H60   H     H_    0.354318 0.167462 0.292543 0.101106
H61   H     H_    0.645961 0.832979 0.706921 0.101699
H62   H     H_    0.217396 0.087164 0.342926 0.107137
H63   H     H_    0.783351 0.912620 0.656770 0.108151
H64   H     H_    0.145600 0.667366 0.207257 0.101693
H65   H     H_    0.854809 0.274767 0.740039 0.106316
H66   H     H_    0.725543 0.912027 0.292245 0.102006
H67   H     H_    0.772498 0.279790 0.339641 0.109935
H68   H     H_    0.274489 0.088094 0.708028 0.102936
H69   H     H_    0.854360 0.332237 0.207638 0.101089
H70   H     H_    0.145231 0.723564 0.741528 0.106038
H71   H     H_    0.332060 0.854429 0.792111 0.101099
H72   H     H_    0.723807 0.145288 0.258604 0.106040
H73   H     H_    0.087089 0.217687 0.657246 0.107122
H74   H     H_    0.912912 0.782198 0.342512 0.108114
H75   H     H_    0.667371 0.145596 0.792751 0.101701
H76   H     H_    0.274763 0.854815 0.259946 0.106324
H77   H     H_    0.911662 0.724680 0.708777 0.101899
H78   H     H_    0.279577 0.772326 0.660279 0.109943
H79   H     H_    0.088196 0.274718 0.291706 0.102909
H80   H     H_    0.726497 0.780591 0.839630 0.109703
N1    N     N_R   0.424590 0.632770 0.578330 -0.041972
N2    N     N_R   0.575410 0.632770 0.578330 -0.032944
N3    N     N_R   0.632770 0.424590 0.421670 -0.041961
N4    N     N_R   0.367230 0.575410 0.578330 -0.042154
N5    N     N_R   0.575410 0.632770 0.421670 -0.032984
N6    N     N_R   0.424590 0.367230 0.578330 -0.032750
N7    N     N_R   0.367230 0.575410 0.421670 -0.041641
N8    N     N_R   0.632770 0.424590 0.578330 -0.041831
N9    N     N_R   0.924590 0.132770 0.078330 -0.033230
N10   N     N_R   0.075410 0.867230 0.921670 -0.033032
N11   N     N_R   0.132770 0.075410 0.078330 -0.041673
N12   N     N_R   0.575410 0.367230 0.421670 -0.042154
N13   N     N_R   0.867230 0.924590 0.921670 -0.041902
N14   N     N_R   0.075410 0.867230 0.078330 -0.032899
N15   N     N_R   0.924590 0.132770 0.921670 -0.032696
N16   N     N_R   0.867230 0.924590 0.078330 -0.041883
N17   N     N_R   0.132770 0.075410 0.921670 -0.042121
N18   N     N_R   0.924590 0.867230 0.921670 -0.041872
N19   N     N_R   0.075410 0.132770 0.078330 -0.042118
N20   N     N_R   0.132770 0.924590 0.921670 -0.033227
N21   N     N_R   0.867230 0.075410 0.078330 -0.033024
N22   N     N_R   0.075410 0.132770 0.921670 -0.041681
N23   N     N_R   0.632770 0.575410 0.578330 -0.032989
N24   N     N_R   0.924590 0.867230 0.078330 -0.041926
N25   N     N_R   0.867230 0.075410 0.921670 -0.032895
N26   N     N_R   0.132770 0.924590 0.078330 -0.032693
N27   N     N_R   0.367230 0.424590 0.421670 -0.032749
N28   N     N_R   0.575410 0.367230 0.578330 -0.041642
N29   N     N_R   0.424590 0.632770 0.421670 -0.041836
N30   N     N_R   0.367230 0.424590 0.578330 -0.033165
N31   N     N_R   0.632770 0.575410 0.421670 -0.032919
N32   N     N_R   0.424590 0.367230 0.421670 -0.033173
Ni1   Ni    Ni4+2 0.500000 0.631570 0.500000 0.206867
Ni2   Ni    Ni4+2 0.500000 0.368430 0.500000 0.206856
Ni3   Ni    Ni4+2 0.631570 0.500000 0.500000 0.206868
Ni4   Ni    Ni4+2 0.368430 0.500000 0.500000 0.206852
Ni5   Ni    Ni4+2 0.000000 0.131570 0.000000 0.206857
Ni6   Ni    Ni4+2 0.000000 0.868430 0.000000 0.206874
Ni7   Ni    Ni4+2 0.131570 0.000000 0.000000 0.206854
Ni8   Ni    Ni4+2 0.868430 0.000000 0.000000 0.206859

loop_
_geom_bond_atom_site_label_1
_geom_bond_atom_site_label_2
_ccdc_geom_bond_type
C58   C62   A    
N11   Ni7   S    
C83   H52   S    
N4    Ni4   S    
C24   N11   A    
C46   C59   S    
N14   Ni6   S    
C11   C88   S    
C107  C112  S    
C94   C111  S    
C39   N26   A    
C53   C74   S    
C25   N12   A    
N25   Ni8   S    
C34   C66   A    
C30   N17   A    
N20   Ni7   S    
C102  N32   A    
C48   C57   S    
C35   C74   A    
N14   N26   A    
C18   C65   A    
N9    N21   A    
C104  H73   S    
C76   H46   S    
C43   C89   S    
C29   N16   A    
C83   C103  S    
C9    H2    S    
N2    Ni1   S    
C77   C106  S    
N6    N30   A    
C8    H80   S    
C106  H75   S    
C7    C101  S    
C33   H38   S    
C16   H8    S    
C36   N23   A    
C29   H33   S    
C30   C74   A    
C33   N20   A    
N31   Ni3   S    
C8    C49   S    
C29   C73   A    
C82   H51   S    
C11   C52   S    
C53   C104  S    
C87   H57   S    
C12   C79   S    
N29   Ni1   S    
C93   H62   S    
C16   C84   S    
C52   C95   S    
C81   H50   S    
C5    H56   S    
C23   C67   A    
C86   C97   S    
C42   C112  S    
C22   C66   A    
C80   N30   A    
C84   H53   S    
C41   C60   S    
N27   N32   A    
C58   N28   A    
C75   H44   S    
C52   C107  S    
C31   C70   A    
C32   H37   S    
C63   C69   A    
C10   C89   S    
C15   H7    S    
C76   C109  S    
C14   H6    S    
C55   C100  S    
N24   Ni6   S    
C56   C66   S    
C7    H78   S    
C3    C96   S    
C8    C92   S    
C9    C76   S    
C49   C94   S    
C15   C82   S    
C100  H70   S    
C25   H10   S    
C24   H29   S    
C37   N24   A    
C69   N29   A    
C12   C53   S    
C101  H71   S    
C51   C96   S    
N10   Ni6   S    
C87   C98   S    
N9    Ni5   S    
C5    C104  S    
C75   C108  S    
N16   N24   A    
C20   C63   A    
C4    C97   S    
C64   C80   A    
C38   N25   A    
N11   N19   A    
C44   C65   S    
C28   C72   A    
C2    C60   A    
C21   H26   S    
C79   H49   S    
C44   C86   S    
C10   C51   S    
C10   C77   S    
C47   H13   S    
C49   C108  S    
C81   C105  S    
C3    C106  S    
C38   C72   A    
N15   N25   A    
C20   H25   S    
C88   H58   S    
C7    C100  S    
C9    C50   S    
C23   N10   A    
C103  H72   S    
C37   H41   S    
C23   H28   S    
C30   H35   S    
C36   H11   S    
C14   C86   S    
C45   C79   S    
C44   C81   S    
N2    N23   A    
C32   N19   A    
N17   Ni7   S    
N15   Ni5   S    
C92   H61   S    
C40   C110  S    
N3    N12   A    
C4    C44   S    
C36   C60   A    
C19   H24   S    
C24   C68   A    
C5    C45   S    
C107  H76   S    
C8    C75   S    
C15   C85   S    
C46   C83   S    
C39   H43   S    
C78   C107  S    
C2    N2    A    
N8    Ni3   S    
C15   C55   S    
C105  H74   S    
N27   Ni4   S    
C1    N1    A    
C95   H64   S    
C16   C56   S    
C20   N7    A    
C25   C59   A    
C11   C78   S    
C1    C57   A    
C41   C75   S    
C54   C73   S    
C96   H65   S    
C27   H31   S    
C4    H45   S    
N30   Ni4   S    
C19   C64   A    
N1    N4    A    
C3    C43   S    
C93   C110  S    
C18   N5    A    
C92   C94   S    
C2    H19   S    
N18   Ni6   S    
N28   Ni2   S    
C54   C97   S    
C6    H67   S    
C6    C103  S    
C11   H4    S    
C110  H1    S    
C89   H59   S    
C21   C62   A    
N21   Ni8   S    
C77   H47   S    
C28   H32   S    
C31   H36   S    
C78   H48   S    
C14   C54   S    
N16   Ni8   S    
C58   H14   S    
C49   C70   S    
C41   C111  S    
N7    N29   A    
C26   C70   A    
C46   C84   S    
C79   C104  S    
C26   N13   A    
C42   C88   S    
C35   H40   S    
C85   H54   S    
C21   N8    A    
C91   N31   A    
C27   C71   A    
C33   C67   A    
C90   C93   S    
C88   C95   S    
N7    Ni4   S    
C65   C91   A    
C37   C73   A    
C19   N6    A    
C39   C71   A    
C6    C46   S    
C22   N9    A    
C45   C87   S    
C111  H12   S    
C84   C99   S    
C82   C101  S    
C86   H55   S    
C102  H18   S    
C56   C103  S    
N10   N20   A    
N5    N31   A    
C34   N21   A    
N32   Ni2   S    
C9    C90   S    
C47   C61   A    
C55   C67   S    
C34   H39   S    
C108  C111  S    
C50   C93   S    
C42   C78   S    
C91   H17   S    
N3    Ni3   S    
C53   C98   S    
C43   C77   S    
C80   H16   S    
C4    C105  S    
C94   H63   S    
C45   C64   S    
N17   N22   A    
C14   C81   S    
C51   C72   S    
C32   C68   A    
C95   C112  S    
C27   N14   A    
C6    C99   S    
C89   C96   S    
C61   C102  A    
C98   H68   S    
N1    Ni1   S    
C54   C105  S    
C12   C87   S    
C52   C71   S    
C109  C110  S    
C7    C48   S    
N12   Ni2   S    
C17   H21   S    
C97   H66   S    
C31   N18   A    
C47   N27   A    
N13   N18   A    
C109  H79   S    
C51   C106  S    
N8    N28   A    
C22   H27   S    
C55   C101  S    
C13   H20   S    
C48   C82   S    
C18   H22   S    
N23   Ni3   S    
C16   C83   S    
C108  H77   S    
C35   N22   A    
C1    H9    S    
N26   Ni7   S    
C99   H69   S    
C50   C109  S    
C40   C61   S    
N19   Ni5   S    
C12   H5    S    
C40   C76   S    
C41   C92   S    
C5    C98   S    
C69   H15   S    
C3    H34   S    
C13   N3    A    
C90   H60   S    
C85   C100  S    
C28   N15   A    
C38   H42   S    
C48   C85   S    
C17   N4    A    
N13   Ni8   S    
C112  H23   S    
C56   C99   S    
C40   C90   S    
C13   C59   A    
C26   H30   S    
N22   Ni5   S    
C50   C68   S    
C42   C63   S    
C10   H3    S    
N6    Ni2   S    
C43   C62   S    
C17   C57   A    
N5    Ni1   S    
