data_mof_unit_5619.cif
_audit_creation_date              2013-03-05T16:11:52-0500
_audit_creation_method            fapswitch 2.2
_symmetry_space_group_name_H-M    P1
_symmetry_Int_Tables_number       1
_space_group_crystal_system       triclinic
_cell_length_a                    10.87813
_cell_length_b                    9.582972
_cell_length_c                    23.552679
_cell_angle_alpha                 89.138067
_cell_angle_beta                  90.14264
_cell_angle_gamma                 89.872736
_cell_volume                      2454.95298218

loop_
_atom_site_label
_atom_site_type_symbol
_atom_site_description
_atom_site_fract_x
_atom_site_fract_y
_atom_site_fract_z
_atom_type_partial_charge
O1    O     O_R   0.317570 0.620260 0.500030 -0.562015
O2    O     O_R   0.317570 0.379740 0.500030 -0.563818
C1    C     C_R   0.260125 0.500104 0.496203 0.936238
O3    O     O_R   0.499840 0.620290 0.417900 -0.546163
O4    O     O_R   0.499840 0.379710 0.417900 -0.560802
C2    C     C_R   0.501955 0.500037 0.391254 0.910005
Cu1   Cu    Cu3+1 0.499860 0.642410 0.500030 1.063630
Cu2   Cu    Cu3+1 0.499860 0.357590 0.500030 1.079509
O5    O     O_R   0.682190 0.620260 0.500010 -0.598487
O6    O     O_R   0.682190 0.379740 0.500010 -0.563591
O7    O     O_R   0.499920 0.620230 0.582140 -0.550411
O8    O     O_R   0.499920 0.379770 0.582140 -0.532360
C3    C     C_R   0.739135 0.499761 0.499920 0.919289
C4    C     C_R   0.499499 0.499549 0.608802 0.923683
C5    C     C_R   0.639046 0.478408 0.879908 0.654402
N1    N     N_R   0.535178 0.520898 0.851613 -0.458851
C6    C     C_R   0.435991 0.571100 0.880508 0.648613
C7    C     C_R   0.428487 0.552841 0.939792 -0.103328
C8    C     C_R   0.536945 0.515372 0.969713 -0.066323
C9    C     C_R   0.646334 0.488309 0.939737 -0.157016
C10   C     C_R   0.317200 0.570477 0.970063 0.319879
C11   C     C_R   0.315673 0.549756 0.028771 -0.135320
C12   C     C_R   0.423428 0.517082 0.058709 -0.060949
C13   C     C_R   0.535550 0.504939 0.029612 -0.038965
C14   C     C_R   0.645432 0.482487 0.060436 -0.160049
C15   C     C_R   0.756826 0.463410 0.030307 0.255981
C16   C     C_R   0.757104 0.465951 0.970374 0.240752
C17   C     C_R   0.420951 0.495761 0.117528 0.615743
N2    N     N_R   0.528321 0.485337 0.147848 -0.457531
C18   C     C_R   0.639757 0.485708 0.120560 0.675072
O9    O     O_2   0.732520 0.422490 0.850348 -0.413819
O10   O     O_2   0.345707 0.638010 0.851637 -0.411180
H1    H     H_    0.228927 0.559243 0.050922 0.245084
O11   O     O_2   0.311598 0.486109 0.144295 -0.450610
O12   O     O_2   0.743912 0.492529 0.151522 -0.408661
C19   C     C_R   0.585361 0.383098 0.243127 0.382288
C20   C     C_R   0.582813 0.394711 0.302570 -0.128529
C21   C     C_R   0.510527 0.496677 0.328796 -0.091955
C22   C     C_R   0.441029 0.587340 0.294840 -0.072113
C23   C     C_R   0.452742 0.587259 0.236222 -0.090151
H2    H     H_    0.402680 0.664845 0.211484 0.207578
C24   C     C_R   0.523045 0.484685 0.209265 0.179998
C25   C     C_R   0.430629 0.432068 0.765610 0.277482
C26   C     C_R   0.416186 0.433781 0.705882 0.234371
C27   C     C_R   0.505324 0.500666 0.671472 -0.159572
C28   C     C_R   0.601473 0.573493 0.697126 -0.129155
C29   C     C_R   0.611772 0.578617 0.755944 -0.065135
C30   C     C_R   0.527439 0.508038 0.790669 0.152407
C31   C     C_3   0.072044 0.634963 0.520841 -0.423002
C32   C     C_3   0.072315 0.374726 0.528007 -0.362426
C33   C     C_3   0.931571 0.627200 0.530074 0.131745
C34   C     C_3   0.931946 0.359687 0.523839 0.122300
C35   C     C_3   0.067010 0.495399 0.428174 0.365844
C36   C     C_3   0.120952 0.500952 0.491938 -0.244259
C37   C     C_3   0.876626 0.498308 0.497161 -0.302417
C38   C     C_3   0.918667 0.512413 0.431536 0.300268
C39   C     C_3   0.610382 0.081286 0.530749 -0.258714
C40   C     C_3   0.615181 0.915652 0.526490 -0.281299
H3    H     H_    0.615675 0.112795 0.575609 0.262002
H4    H     H_    0.637415 0.866212 0.567861 0.264059
C41   C     C_3   0.388554 0.079601 0.529620 0.197733
C42   C     C_3   0.394426 0.914524 0.534306 0.210036
C43   C     C_3   0.507967 0.084145 0.442104 0.137791
C44   C     C_3   0.498068 0.919201 0.442288 0.133675
N3    N     N_3   0.500250 0.143650 0.501250 -0.270070
N4    N     N_3   0.500250 0.856350 0.501250 -0.282900
H5    H     H_    0.600727 0.110763 0.424940 0.142739
H6    H     H_    0.581749 0.880600 0.420010 0.159573
N5    N     N_R   0.202527 0.596450 0.941851 0.186133
O13   O     O_R   0.128190 0.691264 0.960958 -0.232844
O14   O     O_R   0.161777 0.506836 0.905470 -0.161110
N6    N     N_R   0.306264 0.379893 0.680785 0.183709
O15   O     O_R   0.246063 0.456530 0.644163 -0.333033
O16   O     O_R   0.256673 0.265125 0.699963 -0.151998
H7    H     H_    0.668377 0.627881 0.671419 0.238055
H8    H     H_    0.685121 0.638927 0.774645 0.214102
H9    H     H_    0.094969 0.728367 0.494429 0.238401
H10   H     H_    0.115759 0.274960 0.515759 0.241294
H11   H     H_    0.120141 0.650643 0.561905 0.270561
H12   H     H_    0.098754 0.389085 0.572889 0.293482
N7    N     N_R   0.901075 0.629653 0.590884 0.171412
O17   O     O_R   0.828279 0.727144 0.608923 -0.358619
O18   O     O_R   0.966656 0.560620 0.628182 -0.218440
N8    N     N_R   0.881760 0.312758 0.579172 0.170742
O19   O     O_R   0.788860 0.373410 0.603337 -0.324694
O20   O     O_R   0.923156 0.197039 0.601745 -0.247923
H13   H     H_    0.891761 0.724708 0.512101 0.183193
H14   H     H_    0.913245 0.272707 0.495005 0.199594
N9    N     N_R   0.118856 0.606829 0.391074 0.162982
O21   O     O_R   0.233372 0.640748 0.396304 -0.344957
O22   O     O_R   0.069740 0.628914 0.341196 -0.170830
N10   N     N_R   0.101880 0.360885 0.401635 0.161315
O23   O     O_R   0.164731 0.361052 0.354580 -0.183685
O24   O     O_R   0.059304 0.241690 0.419855 -0.288530
N11   N     N_R   0.874638 0.650839 0.409469 0.132370
O25   O     O_R   0.934525 0.766459 0.417608 -0.309339
O26   O     O_R   0.769212 0.659678 0.383313 -0.310279
N12   N     N_R   0.862628 0.406548 0.393768 0.139197
O27   O     O_R   0.879935 0.417707 0.339187 -0.195594
O28   O     O_R   0.798513 0.301228 0.412349 -0.388858
H15   H     H_    0.696076 0.123693 0.511668 0.197575
H16   H     H_    0.696021 0.887578 0.500069 0.182881
N13   N     N_R   0.356921 0.142793 0.584050 0.175647
O29   O     O_R   0.434370 0.144843 0.626155 -0.268359
O30   O     O_R   0.241217 0.162960 0.594994 -0.285604
N14   N     N_R   0.388905 0.861609 0.593554 0.186688
O31   O     O_R   0.476641 0.881950 0.630116 -0.287487
O32   O     O_R   0.289451 0.799772 0.611303 -0.286879
N15   N     N_R   0.420739 0.144616 0.400533 0.192531
O33   O     O_R   0.313707 0.191582 0.414913 -0.253092
O34   O     O_R   0.448415 0.143106 0.346821 -0.277346
N16   N     N_R   0.393299 0.874636 0.407406 0.193080
O35   O     O_R   0.280820 0.903185 0.421912 -0.276633
O36   O     O_R   0.414626 0.861234 0.353554 -0.284903
H17   H     H_    0.307534 0.100559 0.502675 0.147990
H18   H     H_    0.308424 0.875706 0.515514 0.143959
N17   N     N_R   0.870298 0.438103 0.059837 0.195211
O37   O     O_R   0.888641 0.319118 0.085873 -0.199590
O38   O     O_R   0.960028 0.527090 0.055438 -0.243826
N18   N     N_R   0.872045 0.454649 0.941150 0.199246
O39   O     O_R   0.943153 0.347053 0.949852 -0.202678
O40   O     O_R   0.908888 0.556547 0.908317 -0.197421
N19   N     N_R   0.646133 0.265329 0.218321 0.172542
O41   O     O_R   0.601410 0.207875 0.173040 -0.285786
O42   O     O_R   0.737124 0.204222 0.244764 -0.207972
H19   H     H_    0.632858 0.319795 0.328574 0.230525
H20   H     H_    0.372837 0.653641 0.312934 0.258063
N20   N     N_R   0.345035 0.357925 0.801171 0.168616
O43   O     O_R   0.384876 0.269412 0.839438 -0.281245
O44   O     O_R   0.228589 0.389103 0.799439 -0.159358

loop_
_geom_bond_atom_site_label_1
_geom_bond_atom_site_label_2
_geom_bond_distance
_ccdc_geom_bond_type
C38   N11   1.494779 S    
C37   C38   1.616780 S    
C43   N3    1.515605 S    
Cu1   Cu2   2.729421 S    
N2    C24   1.447740 S    
C7    C10   1.417556 A    
C19   C24   1.419257 A    
N11   O25   1.302975 A    
C15   N17   1.433701 S    
C38   N12   1.489725 S    
N20   O43   1.301173 A    
N1    C30   1.444781 S    
N16   O36   1.298176 A    
N7    O17   1.300285 A    
N19   O41   1.301343 A    
C16   N18   1.433455 S    
N18   O39   1.301071 A    
Cu1   O7    1.942371 S    
C15   C16   1.411442 A    
N2    C18   1.373451 A    
C18   O12   1.348115 S    
C44   H6    1.116916 S    
C17   N2    1.370157 A    
C41   N13   1.467380 S    
N8    O20   1.301538 A    
C29   H8    1.082883 S    
N15   O34   1.301396 A    
C21   C22   1.392537 A    
O7    C4    1.307667 A    
C44   N16   1.471145 S    
N14   O31   1.300844 A    
C40   H4    1.103105 S    
C31   C36   1.555866 S    
C34   N8    1.478420 S    
C7    C8    1.415591 A    
N5    O14   1.300056 A    
O5    C3    1.309222 A    
C28   H7    1.078111 S    
C40   N4    1.499691 S    
C8    C9    1.410675 A    
N1    C6    1.367465 A    
C31   C33   1.545820 S    
C41   H17   1.101106 S    
C32   C34   1.537089 S    
C12   C13   1.405965 A    
C2    C21   1.475075 S    
C26   N6    1.433284 S    
C40   H16   1.113404 S    
N9    O22   1.303561 A    
C25   C30   1.414447 A    
C33   N7    1.471483 S    
C34   C37   1.578309 S    
C23   C24   1.404295 A    
C17   O11   1.350368 S    
Cu2   N3    2.049945 S    
C10   C11   1.394101 A    
C41   C42   1.585245 S    
O3    Cu1   1.949130 S    
C32   H10   1.107953 S    
N16   O35   1.300800 A    
N7    O18   1.302149 A    
N18   O40   1.301048 A    
C4    C27   1.477449 S    
C5    C9    1.415793 A    
C43   H5    1.116583 S    
C22   H20   1.069199 S    
C42   N4    1.502269 S    
C34   H14   1.102026 S    
C19   N19   1.438925 S    
N8    O19   1.301229 A    
N6    O16   1.301360 A    
C33   H13   1.106915 S    
C22   C23   1.386815 A    
C14   C15   1.418644 A    
C35   C36   1.612687 S    
C31   H11   1.110829 S    
C32   H12   1.105487 S    
O1    C1    1.315482 A    
C44   N4    1.505481 S    
C43   N15   1.473321 S    
C25   C26   1.414943 A    
C42   H18   1.101799 S    
C20   C21   1.404212 A    
C29   C30   1.399221 A    
Cu2   O8    1.948728 S    
C35   N10   1.489798 S    
N10   O24   1.300754 A    
C6    C7    1.407202 A    
N13   O30   1.300008 A    
C32   C36   1.561717 S    
C12   C17   1.397626 A    
C13   C14   1.411372 A    
O3    C2    1.320633 A    
C23   H2    1.082791 S    
O8    C4    1.316655 A    
N12   O28   1.299219 A    
C35   N9    1.482881 S    
C27   C28   1.399596 A    
C39   H3    1.104640 S    
C26   C27   1.413841 A    
C20   H19   1.081793 S    
C35   C38   1.623798 S    
C14   C18   1.418374 A    
Cu1   O5    1.994269 S    
C11   H1    1.083706 S    
C28   C29   1.391164 A    
C19   C20   1.406472 A    
O1    Cu1   1.994770 S    
O2    Cu2   1.993833 S    
C39   N3    1.501779 S    
N6    O15   1.299312 A    
O6    C3    1.307552 A    
N20   O44   1.301224 A    
C25   N20   1.436040 S    
O4    Cu2   1.942791 S    
N11   O26   1.302459 A    
C5    O9    1.348383 S    
C42   N14   1.478944 S    
C9    C16   1.417184 A    
C39   H15   1.111019 S    
N17   O38   1.300858 A    
C8    C13   1.412934 A    
N17   O37   1.301278 A    
Cu1   N4    2.050828 S    
C39   C40   1.592694 S    
O4    C2    1.304773 A    
N14   O32   1.301542 A    
N10   O23   1.303620 A    
C1    C36   1.517018 S    
C31   H9    1.111459 S    
O2    C1    1.312421 A    
C33   C37   1.585423 S    
N5    O13   1.301091 A    
N19   O42   1.301499 A    
C43   C44   1.584504 S    
C41   N3    1.514771 S    
Cu2   O6    1.995205 S    
N12   O27   1.302547 A    
C10   N5    1.431451 S    
N13   O29   1.300061 A    
C6    O10   1.348636 S    
C11   C12   1.398861 A    
N9    O21   1.294168 A    
N15   O33   1.295034 A    
C5    N1    1.368432 A    
C3    C37   1.497255 S    
