data_mof_unit_26095.cif
_audit_creation_date              2012-12-11T16:53:51-0500
_audit_creation_method            fapswitch 2.2
_symmetry_space_group_name_H-M    P1
_symmetry_Int_Tables_number       1
_space_group_crystal_system       triclinic
_cell_length_a                    14.844713
_cell_length_b                    14.791239
_cell_length_c                    16.930762
_cell_angle_alpha                 108.92501
_cell_angle_beta                  106.358848
_cell_angle_gamma                 108.169474
_cell_volume                      3023.03894848

loop_
_atom_site_label
_atom_site_type_symbol
_atom_type_description
_atom_site_fract_x
_atom_site_fract_y
_atom_site_fract_z
_atom_type_partial_charge
Br1   Br    Br    0.786360 0.661054 0.816415 -0.553798
Br2   Br    Br    0.812698 0.940186 0.895742 -0.543006
C1    C     C_R   0.088681 0.281961 0.068663 -0.137677
C2    C     C_R   0.065328 0.479514 0.252831 -0.147787
C3    C     C_R   0.222797 0.798720 0.187636 -0.124353
C4    C     C_R   0.936400 0.451548 0.734733 -0.075172
C5    C     C_R   0.745042 0.470984 0.054880 -0.119350
C6    C     C_R   0.238555 0.804386 0.274371 0.055105
C7    C     C_R   0.720544 0.550265 0.043043 0.048612
C8    C     C_R   0.974518 0.418428 0.254766 0.069526
C9    C     C_R   0.000623 0.808426 0.949985 0.122410
C10   C     C_R   0.526548 0.656566 0.047163 0.162429
C11   C     C_R   0.474220 0.599474 0.085309 0.036738
C12   C     C_R   0.029632 0.466088 0.725634 0.042610
C13   C     C_R   0.530485 0.567026 0.143120 -0.196000
C14   C     C_R   0.624212 0.566628 0.141708 -0.184611
C15   C     C_R   0.660118 0.597178 0.081473 0.043058
C16   C     C_R   0.721366 0.213616 0.823055 -0.101449
C17   C     C_R   0.618173 0.655067 0.044795 0.123221
C18   C     C_3   0.588210 0.651075 0.950914 -0.451793
C19   C     C_3   0.488709 0.653601 0.954120 -0.526076
C20   C     C_R   0.967894 0.376928 0.321952 0.116383
C21   C     C_R   0.039843 0.421464 0.639281 0.129791
C22   C     C_R   0.145873 0.440120 0.554663 -0.217488
C23   C     C_R   0.664802 0.216160 0.743968 0.053335
C24   C     C_R   0.138670 0.455514 0.637681 -0.163089
C25   C     C_R   0.949393 0.356714 0.555859 -0.266301
C26   C     C_R   0.955590 0.346596 0.473274 0.183389
C27   C     C_R   0.054402 0.393573 0.473654 0.188988
C28   C     C_R   0.301448 0.594875 0.003720 -0.158346
C29   C     C_R   0.059857 0.405218 0.396739 -0.288838
C30   C     C_R   0.870022 0.319265 0.317941 -0.163748
C31   C     C_R   0.864035 0.302652 0.392925 -0.216730
C32   C     C_R   0.555773 0.142206 0.677246 0.121875
C33   C     C_R   0.278514 0.900472 0.361015 0.134879
C34   C     C_R   0.361070 0.560855 0.054012 0.071942
C35   C     C_R   0.381411 0.091959 0.447871 -0.226527
C36   C     C_R   0.313281 0.001984 0.364091 -0.179251
C37   C     C_R   0.297697 0.891959 0.443683 -0.266757
C38   C     C_R   0.371570 0.980043 0.526619 0.180143
C39   C     C_R   0.417543 0.079801 0.527763 0.190530
C40   C     C_R   0.726384 0.310073 0.746417 -0.131580
C41   C     C_R   0.507102 0.161679 0.604724 -0.271297
C42   C     C_R   0.503345 0.046705 0.679749 -0.156468
C43   C     C_R   0.410236 0.966593 0.605296 -0.211674
C44   C     C_R   0.077613 0.127390 0.151578 0.112195
C45   C     C_R   0.216699 0.702136 0.265023 -0.122592
C46   C     C_R   0.999050 0.102037 0.067508 -0.089242
C47   C     C_R   0.914357 0.997707 0.020142 0.330938
C48   C     C_R   0.901917 0.932203 0.065075 -0.278564
C49   C     C_R   0.973881 0.967359 0.155288 -0.001370
C50   C     C_R   0.065247 0.061333 0.194064 0.152162
C51   C     C_3   0.118153 0.152486 0.288220 -0.452106
C52   C     C_R   0.295979 0.496703 0.078665 -0.112420
C53   C     C_3   0.132106 0.225402 0.242178 -0.505834
C54   C     C_R   0.110967 0.536699 0.812605 -0.125154
C55   C     C_R   0.915016 0.198203 0.993009 -0.067917
C56   C     C_R   0.756309 0.570756 0.980787 -0.122927
C57   C     C_R   0.001681 0.185561 0.036390 0.118177
C58   C     C_R   0.892254 0.395207 0.176004 -0.147711
C59   C     C_R   0.084860 0.799354 0.001646 -0.257147
C60   C     C_R   0.914548 0.713923 0.921298 0.284872
H1    H     H_    0.167514 0.306702 0.116703 0.101215
H2    H     H_    0.640918 0.724195 0.951887 0.219869
H3    H     H_    0.857482 0.402348 0.681647 0.096314
H4    H     H_    0.572634 0.574493 0.895787 0.214362
H5    H     H_    0.484738 0.728604 0.957801 0.199089
H6    H     H_    0.417691 0.578809 0.900957 0.201437
H7    H     H_    0.136191 0.446211 0.400093 0.122556
H8    H     H_    0.797574 0.293143 0.260079 0.115366
H9    H     H_    0.222403 0.474043 0.555405 0.136621
H10   H     H_    0.787669 0.264598 0.391160 0.129644
H11   H     H_    0.210368 0.501099 0.700472 0.120416
H12   H     H_    0.756993 0.632785 0.961092 0.141666
H13   H     H_    0.872856 0.324604 0.555176 0.119892
H14   H     H_    0.543688 0.236010 0.602717 0.124435
H15   H     H_    0.692578 0.160233 0.850713 0.098516
H16   H     H_    0.536998 0.030423 0.735927 0.130946
H17   H     H_    0.414070 0.168790 0.448345 0.130285
H18   H     H_    0.374575 0.890780 0.605725 0.135244
H19   H     H_    0.295185 0.011800 0.301828 0.116295
H20   H     H_    0.266354 0.815271 0.443347 0.119847
H21   H     H_    0.833942 0.855664 0.031394 0.168412
H22   H     H_    0.064339 0.156977 0.322072 0.203221
H23   H     H_    0.812070 0.336319 0.147746 0.086759
H24   H     H_    0.193407 0.157324 0.330809 0.190004
H25   H     H_    0.086410 0.271975 0.248972 0.206702
H26   H     H_    0.329764 0.660482 0.988004 0.105731
H27   H     H_    0.215477 0.272453 0.258749 0.186346
H28   H     H_    0.702803 0.346717 0.703870 0.113289
H29   H     H_    0.319347 0.468524 0.128783 0.084482
H30   H     H_    0.193984 0.565725 0.831764 0.096247
H31   H     H_    0.834301 0.148589 0.974899 0.129284
H32   H     H_    0.220771 0.675626 0.317570 0.098046
H33   H     H_    0.165987 0.852372 0.024313 0.126169
H34   H     H_    0.144624 0.498656 0.295193 0.087400
H35   H     H_    0.232764 0.863223 0.169237 0.096429
H36   H     H_    0.729822 0.435604 0.099175 0.096504
H37   H     H_    0.496912 0.529900 0.180073 0.127119
H38   H     H_    0.659319 0.529085 0.177588 0.128271
N1    N     N_R   0.055640 0.348550 0.045600 -0.044333
N2    N     N_R   0.811290 0.303400 0.871650 -0.044678
N3    N     N_R   0.205180 0.552990 0.997660 -0.039170
N4    N     N_R   0.814810 0.361830 0.823710 -0.040507
N5    N     N_R   0.201660 0.494570 0.045600 -0.039017
N6    N     N_R   0.068420 0.560530 0.871650 -0.041314
N7    N     N_R   0.948050 0.295860 0.997660 -0.052549
N8    N     N_R   0.185190 0.638170 0.176290 -0.042382
N9    N     N_R   0.798340 0.505430 0.954400 -0.034188
N10   N     N_R   0.931580 0.439470 0.128350 -0.039298
N11   N     N_R   0.051950 0.704140 0.002340 -0.053803
N12   N     N_R   0.944360 0.651450 0.954400 -0.077553
N13   N     N_R   0.039170 0.492150 0.176290 -0.037215
N14   N     N_R   0.188710 0.696600 0.128350 -0.038020
N15   N     N_R   0.794820 0.447010 0.002340 -0.045958
N16   N     N_R   0.960830 0.507850 0.823710 -0.036141
Ni1   Ni    Ni4+2 0.119330 0.493420 0.109950 0.206415
Ni2   Ni    Ni4+2 0.880670 0.506580 0.890050 0.260918
Ni3   Ni    Ni4+2 0.872590 0.372590 0.000000 0.210305
Ni4   Ni    Ni4+2 0.127410 0.627410 0.000000 0.212897

loop_
_geom_bond_atom_site_label_1
_geom_bond_atom_site_label_2
_ccdc_geom_bond_type
N1    N7    A    
C12   C54   A    
C5    H36   S    
C3    N14   A    
C56   N9    A    
C8    C58   A    
N3    Ni4   S    
C9    C60   A    
Br1   C60   S    
C8    C20   S    
C35   H17   S    
C20   C30   A    
C51   H22   S    
C18   H4    S    
C26   C27   A    
C22   C24   A    
C55   C57   A    
C5    N15   A    
C13   C14   A    
C44   C50   A    
C24   H11   S    
C7    C56   A    
C16   N2    A    
C21   C24   A    
N8    N14   A    
C22   C27   A    
C44   C53   S    
C31   H10   S    
C2    H34   S    
C4    H3    S    
N11   N12   A    
C14   C15   A    
C28   N3    A    
C48   H21   S    
C51   H24   S    
C21   C25   A    
C23   C32   S    
C1    N1    A    
N10   Ni3   S    
C34   C52   A    
C55   H31   S    
C19   H5    S    
C35   C39   A    
C39   C41   A    
N5    Ni1   S    
C16   C23   A    
C25   H13   S    
N7    Ni3   S    
N9    Ni2   S    
N4    Ni2   S    
C51   C53   S    
C38   C43   A    
C44   C46   A    
C20   C29   A    
C49   C50   A    
C2    N13   A    
C33   C36   A    
C32   C42   A    
C11   C34   S    
C37   C38   A    
C14   H38   S    
C30   H8    S    
C10   C19   S    
N6    N16   A    
N11   Ni4   S    
C40   H28   S    
C6    C33   S    
C12   C21   S    
C18   H2    S    
C33   C37   A    
C35   C36   A    
Br2   C47   S    
C4    C12   A    
C54   H30   S    
C27   C29   A    
C54   N6    A    
C48   C49   A    
N3    N5    A    
C50   C51   S    
C10   C11   A    
N2    N4    A    
N10   N13   A    
C4    N16   A    
N13   Ni1   S    
C7    C15   S    
C46   C47   A    
C55   N7    A    
C3    H35   S    
C26   C31   A    
C47   C48   A    
N15   Ni3   S    
C11   C13   A    
C19   H6    S    
C28   H26   S    
C59   N11   A    
C42   C43   A    
C56   H12   S    
C46   C57   S    
C41   H14   S    
C5    C7    A    
C38   C39   A    
C52   N5    A    
N6    Ni4   S    
N8    Ni1   S    
C32   C41   A    
C37   H20   S    
C13   H37   S    
C9    C59   A    
C40   N4    A    
C23   C40   A    
C3    C6    A    
C58   H23   S    
C59   H33   S    
C1    H1    S    
C28   C34   A    
N1    Ni1   S    
C30   C31   A    
C17   C18   S    
C42   H16   S    
C6    C45   A    
C52   H29   S    
C36   H19   S    
N12   Ni2   S    
C16   H15   S    
C10   C17   A    
C15   C17   A    
C45   H32   S    
N16   Ni2   S    
C43   H18   S    
C53   H25   S    
C58   N10   A    
N9    N15   A    
C29   H7    S    
C60   N12   A    
C18   C19   S    
C53   H27   S    
C45   N8    A    
C25   C26   A    
C2    C8    A    
N14   Ni4   S    
N2    Ni3   S    
C22   H9    S    
C1    C57   A    
