data_mof_unit_10167.cif
_audit_creation_date              2012-12-10T17:51:28-0500
_audit_creation_method            fapswitch 2.2
_symmetry_space_group_name_H-M    P1
_symmetry_Int_Tables_number       1
_space_group_crystal_system       triclinic
_cell_length_a                    14.698083
_cell_length_b                    14.758885
_cell_length_c                    17.315165
_cell_angle_alpha                 105.932467
_cell_angle_beta                  73.07607
_cell_angle_gamma                 114.945207
_cell_volume                      3208.00125074

loop_
_atom_site_label
_atom_site_type_symbol
_atom_type_description
_atom_site_fract_x
_atom_site_fract_y
_atom_site_fract_z
_atom_type_partial_charge
C1    C     C_R   0.118689 0.687976 0.514552 0.804163
C2    C     C_R   0.708326 0.178945 0.496484 -0.241346
C3    C     C_R   0.357826 0.923192 0.529245 0.090646
C4    C     C_R   0.638750 0.080287 0.505869 0.092025
C5    C     C_R   0.316760 0.999736 0.547127 0.161896
C6    C     C_R   0.678904 0.005118 0.497237 0.161264
C7    C     C_R   0.464885 0.950617 0.521490 0.066811
C8    C     C_R   0.530817 0.054209 0.522421 0.065065
C9    C     C_R   0.486548 0.128405 0.541673 -0.213223
C10   C     C_R   0.507927 0.878267 0.514331 -0.212363
C11   C     C_R   0.381465 0.101378 0.554591 -0.217010
C12   C     C_R   0.881225 0.312069 0.486847 0.802523
C13   C     C_R   0.612876 0.905472 0.502997 -0.219305
C14   C     C_R   0.294974 0.328686 0.363262 -0.302661
C15   C     C_R   0.705582 0.672076 0.636136 -0.306001
C16   C     C_R   0.990443 0.504775 0.652760 0.810490
C17   C     C_R   0.009548 0.495209 0.347238 0.811407
C18   C     C_R   0.211676 0.358674 0.384451 0.081151
C19   C     C_R   0.788583 0.641671 0.615267 0.081160
C20   C     C_R   0.286094 0.490949 0.487852 0.007896
C21   C     C_R   0.713945 0.509155 0.512108 0.006444
C22   C     C_R   0.373764 0.464663 0.468982 -0.020913
C23   C     C_R   0.185351 0.795681 0.526221 -0.052309
C24   C     C_R   0.626598 0.535895 0.530629 -0.020307
C25   C     C_R   0.375871 0.380873 0.405486 0.159231
C26   C     C_R   0.624708 0.619962 0.593884 0.160570
C27   C     C_R   0.458130 0.517198 0.510777 0.080395
C28   C     C_R   0.542349 0.483532 0.488704 0.076907
C29   C     C_R   0.539337 0.398669 0.425629 -0.235403
C30   C     C_R   0.461348 0.602326 0.573613 -0.238634
C31   C     C_R   0.458099 0.349048 0.384827 -0.184145
C32   C     C_R   0.542726 0.652122 0.614263 -0.193004
C33   C     C_R   0.988814 0.512495 0.739048 -0.070831
C34   C     C_R   0.813803 0.204973 0.485348 -0.052430
C35   C     C_R   0.011139 0.487432 0.260943 -0.071859
C36   C     C_R   0.069695 0.505236 0.760966 -0.199604
C37   C     C_R   0.930274 0.494741 0.239040 -0.199259
C38   C     C_R   0.069058 0.513309 0.842724 -0.170203
C39   C     C_R   0.930859 0.486597 0.157281 -0.169833
C40   C     C_R   0.986992 0.527656 0.903870 0.130711
C41   C     C_R   0.012862 0.472137 0.096116 0.130670
C42   C     C_R   0.906800 0.537554 0.882469 0.172432
C43   C     C_R   0.093029 0.462175 0.117502 0.172585
C44   C     C_R   0.908020 0.529658 0.800176 -0.203506
C45   C     C_R   0.211088 0.973767 0.556864 -0.188768
C46   C     C_R   0.091859 0.470138 0.199797 -0.203501
C47   C     C_2   0.985086 0.531256 0.989582 -0.190495
C48   C     C_2   0.014742 0.468517 0.010403 -0.190903
C49   C     C_R   0.785059 0.030582 0.483325 -0.189489
C50   C     C_R   0.145602 0.872283 0.547065 -0.188479
C51   C     C_R   0.852156 0.130207 0.478196 -0.187620
C52   C     C_R   0.290573 0.821527 0.517028 -0.247530
Cu1   Cu    Cu3+1 0.916740 0.524770 0.521640 0.944546
Cu2   Cu    Cu3+1 0.083260 0.475230 0.478360 0.944556
H1    H     H_    0.133892 0.493883 0.715072 0.162003
H2    H     H_    0.148807 0.317877 0.352400 0.129734
H3    H     H_    0.295828 0.264560 0.314466 0.146477
H4    H     H_    0.704948 0.736468 0.684703 0.146076
H5    H     H_    0.598893 0.368202 0.406091 0.132481
H6    H     H_    0.401942 0.632983 0.592948 0.130040
H7    H     H_    0.154574 0.463638 0.215764 0.179423
H8    H     H_    0.845284 0.536104 0.784195 0.179288
H9    H     H_    0.042580 0.414881 0.963599 0.179392
H10   H     H_    0.957249 0.584898 0.036380 0.179692
H11   H     H_    0.866776 0.491211 0.141881 0.162272
H12   H     H_    0.866128 0.506188 0.284946 0.162378
H13   H     H_    0.133150 0.508734 0.858144 0.162077
H14   H     H_    0.350802 0.160627 0.569301 0.151083
H15   H     H_    0.642561 0.847726 0.498088 0.152147
H16   H     H_    0.682448 0.237172 0.496628 0.145705
H17   H     H_    0.318782 0.760745 0.497862 0.152237
H18   H     H_    0.933642 0.148842 0.469572 0.155632
H19   H     H_    0.064296 0.853872 0.554755 0.154325
H20   H     H_    0.179210 0.032051 0.571496 0.136938
H21   H     H_    0.816079 0.973576 0.477364 0.136549
H22   H     H_    0.530642 0.208773 0.549770 0.148638
H23   H     H_    0.462350 0.800088 0.519838 0.142033
H24   H     H_    0.459498 0.284456 0.336620 0.148764
H25   H     H_    0.541579 0.717039 0.662178 0.149592
H26   H     H_    0.723070 0.447865 0.463872 0.120278
H27   H     H_    0.276767 0.551960 0.536331 0.120147
H28   H     H_    0.851480 0.682481 0.647289 0.128669
I1    I     I_    0.779005 0.558657 0.970355 -0.380222
I2    I     I_    0.220711 0.440859 0.029584 -0.381504
N1    N     N_R   0.208390 0.438070 0.445820 -0.179847
N2    N     N_R   0.791610 0.561930 0.554180 -0.179352
O1    O     O_R   0.020090 0.662480 0.528530 -0.589932
O2    O     O_R   0.979910 0.337520 0.471470 -0.590005
O3    O     O_R   0.160710 0.620650 0.491980 -0.589602
O4    O     O_R   0.839290 0.379350 0.508020 -0.589248
O5    O     O_R   0.921540 0.523360 0.633990 -0.585327
O6    O     O_R   0.078460 0.476640 0.366010 -0.584890
O7    O     O_R   0.062170 0.481520 0.597440 -0.589786
O8    O     O_R   0.937830 0.518480 0.402560 -0.588966

loop_
_geom_bond_atom_site_label_1
_geom_bond_atom_site_label_2
_ccdc_geom_bond_type
C25   C31   A    
C40   C47   S    
C38   C40   A    
C26   C32   A    
C7    C10   A    
C39   H11   S    
C14   C18   A    
C4    C8    A    
C19   N2    A    
C7    C8    A    
C39   C41   A    
Cu1   Cu2   S    
C15   C19   A    
C16   O7    A    
C12   O4    A    
C28   C29   A    
C35   C37   A    
C24   C26   A    
C5    C11   A    
C3    C7    A    
C33   C36   A    
C1    O1    A    
C15   C26   A    
Cu2   O7    S    
C29   H5    S    
C8    C9    A    
C49   C51   A    
C22   C25   A    
C30   H6    S    
Cu1   O5    S    
C49   H21   S    
Cu1   N2    S    
C9    H22   S    
C30   C32   A    
C19   H28   S    
C18   H2    S    
C2    C34   A    
C40   C42   A    
C6    C49   A    
C20   H27   S    
C37   H12   S    
C27   C30   A    
C43   I2    S    
C41   C43   A    
C17   O6    A    
C42   C44   A    
C10   H23   S    
C18   N1    A    
C12   O2    A    
C46   H7    S    
Cu2   O3    S    
C4    C6    A    
C50   H19   S    
C47   H10   S    
C48   H9    S    
C44   H8    S    
C5    C45   A    
C45   H20   S    
C2    C4    A    
Cu2   O6    S    
C16   C33   S    
C47   C48   D    
C20   N1    A    
C34   C51   A    
Cu1   O1    S    
C9    C11   A    
C20   C22   A    
C1    C23   S    
C22   C27   A    
C15   H4    S    
C51   H18   S    
C12   C34   S    
Cu1   O4    S    
C11   H14   S    
C31   H24   S    
C23   C50   A    
C14   H3    S    
C21   N2    A    
C1    O3    A    
Cu1   O8    S    
C33   C44   A    
C42   I1    S    
C24   C28   A    
C3    C5    A    
C10   C13   A    
Cu2   N1    S    
C3    C52   A    
C36   C38   A    
C37   C39   A    
C52   H17   S    
C32   H25   S    
Cu2   O2    S    
C23   C52   A    
C13   H15   S    
C45   C50   A    
C21   H26   S    
C41   C48   S    
C14   C25   A    
C43   C46   A    
C38   H13   S    
C16   O5    A    
C29   C31   A    
C21   C24   A    
C27   C28   A    
C36   H1    S    
C17   O8    A    
C17   C35   S    
C2    H16   S    
C35   C46   A    
C6    C13   A    
