data_mof_unit_59237.cif
_audit_creation_date              2012-12-11T14:04:25-0500
_audit_creation_method            fapswitch 2.2
_symmetry_space_group_name_H-M    P1
_symmetry_Int_Tables_number       1
_space_group_crystal_system       triclinic
_cell_length_a                    19.115867
_cell_length_b                    11.066867
_cell_length_c                    18.851153
_cell_angle_alpha                 90.262062
_cell_angle_beta                  89.115497
_cell_angle_gamma                 90.167733
_cell_volume                      3987.48022166

loop_
_atom_site_label
_atom_site_type_symbol
_atom_type_description
_atom_site_fract_x
_atom_site_fract_y
_atom_site_fract_z
_atom_type_partial_charge
C1    C     C_R   0.241235 0.462763 0.650392 0.544944
C2    C     C_R   0.771501 0.508351 0.362147 0.547369
C3    C     C_R   0.741227 0.962786 0.650374 0.544926
C4    C     C_R   0.271485 0.008286 0.362147 0.547310
C5    C     C_2   0.306151 0.901060 0.547971 -0.162204
C6    C     C_2   0.744280 0.888495 0.461181 -0.127885
C7    C     C_2   0.806169 0.401125 0.547984 -0.162212
C8    C     C_2   0.244318 0.388283 0.461241 -0.127991
C9    C     C_R   0.003613 0.668232 0.425900 -0.049688
C10   C     C_R   0.994537 0.658321 0.575829 -0.040791
C11   C     C_R   0.503631 0.168241 0.425890 -0.049705
C12   C     C_R   0.494552 0.158325 0.575819 -0.040804
C13   C     C_R   0.990932 0.891775 0.434903 -0.076449
C14   C     C_R   0.965116 0.872713 0.580371 -0.093936
C15   C     C_R   0.490957 0.391778 0.434890 -0.076435
C16   C     C_R   0.465141 0.372724 0.580359 -0.093948
C17   C     C_R   0.970633 0.992763 0.474491 -0.133887
C18   C     C_R   0.955994 0.982607 0.546649 -0.124360
C19   C     C_R   0.470664 0.492770 0.474477 -0.133869
C20   C     C_R   0.456024 0.482618 0.546636 -0.124371
C21   C     C_R   0.985799 0.769492 0.541474 0.002448
C22   C     C_R   0.993759 0.776395 0.466493 0.007619
C23   C     C_R   0.485819 0.269499 0.541463 0.002450
C24   C     C_R   0.493780 0.276401 0.466483 0.007621
C25   C     C_R   0.996216 0.551565 0.534417 0.016564
C26   C     C_R   0.015006 0.558921 0.462357 -0.004369
C27   C     C_R   0.496238 0.051573 0.534404 0.016558
C28   C     C_R   0.515033 0.058936 0.462346 -0.004378
C29   C     C_R   0.979215 0.436890 0.562816 -0.077780
C30   C     C_R   0.034999 0.451997 0.426471 -0.079439
C31   C     C_R   0.479231 0.936896 0.562796 -0.077782
C32   C     C_R   0.535028 0.952020 0.426456 -0.079370
C33   C     C_R   0.987789 0.332672 0.522016 -0.146584
C34   C     C_R   0.016607 0.340434 0.454035 -0.130490
C35   C     C_R   0.487797 0.832687 0.521986 -0.146582
C36   C     C_R   0.516622 0.840457 0.454007 -0.130415
C37   C     C_2   0.236332 0.903924 0.925849 -0.081639
C38   C     C_2   0.763120 0.903487 0.074319 -0.077273
C39   C     C_2   0.736332 0.403924 0.925849 -0.081638
C40   C     C_2   0.263120 0.403487 0.074320 -0.077286
C41   C     C_2   0.253881 0.890421 0.086023 -0.016546
C42   C     C_2   0.745783 0.892270 0.914145 -0.014557
C43   C     C_2   0.753881 0.390420 0.086023 -0.016546
C44   C     C_2   0.245783 0.392270 0.914145 -0.014554
C45   C     C_R   0.229028 0.879760 0.650734 0.555452
C46   C     C_R   0.767283 0.889789 0.339857 0.549127
C47   C     C_R   0.729031 0.379770 0.650738 0.555449
C48   C     C_R   0.267307 0.389727 0.339923 0.549212
C49   C     C_2   0.195390 0.896683 0.048205 -0.175209
C50   C     C_2   0.804472 0.898545 0.951734 -0.173270
C51   C     C_2   0.695390 0.396684 0.048205 -0.175209
C52   C     C_2   0.304472 0.398545 0.951734 -0.173267
C53   C     C_2   0.194448 0.852566 0.975133 -0.146846
C54   C     C_2   0.805808 0.854667 0.024661 -0.145782
C55   C     C_2   0.694448 0.352566 0.975133 -0.146846
C56   C     C_2   0.305808 0.354667 0.024661 -0.145789
C57   C     C_2   0.998500 0.660672 0.921009 -0.117514
C58   C     C_2   0.000160 0.659697 0.078428 -0.117638
C59   C     C_2   0.498501 0.160672 0.921010 -0.117514
C60   C     C_2   0.500160 0.159697 0.078428 -0.117638
C61   C     C_2   0.992146 0.562732 0.037009 -0.179526
C62   C     C_2   0.002668 0.562509 0.961505 -0.178909
C63   C     C_2   0.492146 0.062732 0.037009 -0.179526
C64   C     C_2   0.502669 0.062509 0.961505 -0.178909
C65   C     C_R   0.027409 0.654000 0.646636 0.527269
C66   C     C_R   0.971974 0.656281 0.354132 0.523097
C67   C     C_R   0.527412 0.154000 0.646632 0.527266
C68   C     C_R   0.471978 0.156282 0.354129 0.523100
C69   C     C_R   0.237959 0.464295 0.850167 0.539025
C70   C     C_R   0.761941 0.463848 0.149899 0.547905
C71   C     C_R   0.737959 0.964295 0.850167 0.539035
C72   C     C_R   0.261941 0.963849 0.149899 0.547909
C73   C     C_R   0.225773 0.872150 0.853153 0.534885
C74   C     C_R   0.774156 0.871954 0.146859 0.528542
C75   C     C_R   0.725773 0.372150 0.853153 0.534884
C76   C     C_R   0.274156 0.371954 0.146860 0.528578
C77   C     C_R   0.029090 0.652479 0.850596 0.545990
C78   C     C_R   0.970776 0.652292 0.149332 0.548506
C79   C     C_R   0.529090 0.152479 0.850596 0.545993
C80   C     C_R   0.470776 0.152292 0.149332 0.548500
C81   C     C_2   0.258645 0.951160 0.592381 -0.003736
C82   C     C_2   0.738093 0.950091 0.400951 0.035790
C83   C     C_2   0.758659 0.451201 0.592399 -0.003728
C84   C     C_2   0.238147 0.449974 0.401047 0.035809
C85   C     C_2   0.262219 0.959700 0.432944 -0.129202
C86   C     C_2   0.757103 0.900975 0.585604 -0.113832
C87   C     C_2   0.762240 0.459834 0.432962 -0.129240
C88   C     C_2   0.257137 0.400873 0.585655 -0.113873
C89   C     C_2   0.317105 0.946160 0.475594 -0.183024
C90   C     C_2   0.720618 0.931787 0.529437 -0.158784
C91   C     C_2   0.817125 0.446243 0.475606 -0.183054
C92   C     C_2   0.220598 0.431473 0.529493 -0.158889
Cr1   Cr    Cr6+3 0.113970 0.508630 0.747920 1.012925
Cr2   Cr    Cr6+3 0.886030 0.508630 0.252080 1.003022
Cr3   Cr    Cr6+3 0.613970 0.008630 0.747920 1.012926
Cr4   Cr    Cr6+3 0.386030 0.008630 0.252080 1.002999
Cr5   Cr    Cr6+3 0.269200 0.666740 0.749850 1.011050
Cr6   Cr    Cr6+3 0.730800 0.666740 0.250150 1.005614
Cr7   Cr    Cr6+3 0.769200 0.166740 0.749850 1.011048
Cr8   Cr    Cr6+3 0.230800 0.166740 0.250150 1.005633
Cr9   Cr    Cr6+3 0.112300 0.820070 0.749800 0.998732
Cr10  Cr    Cr6+3 0.887700 0.820070 0.250200 0.989715
Cr11  Cr    Cr6+3 0.612300 0.320070 0.749800 0.998721
Cr12  Cr    Cr6+3 0.387700 0.320070 0.250200 0.989708
H1    H     H_    0.369951 0.962648 0.456191 0.172640
H2    H     H_    0.675992 0.992140 0.534308 0.149658
H3    H     H_    0.869968 0.462649 0.456189 0.172662
H4    H     H_    0.175904 0.491679 0.534344 0.149743
H5    H     H_    0.155616 0.785194 0.960618 0.137388
H6    H     H_    0.845817 0.789836 0.038893 0.137964
H7    H     H_    0.655616 0.285194 0.960618 0.137388
H8    H     H_    0.345817 0.289837 0.038893 0.137963
H9    H     H_    0.267351 0.983214 0.937604 0.080160
H10   H     H_    0.730570 0.980627 0.063164 0.081272
H11   H     H_    0.767350 0.483215 0.937604 0.080160
H12   H     H_    0.230569 0.480627 0.063164 0.081274
H13   H     H_    0.976052 0.476623 0.058889 0.164195
H14   H     H_    0.016353 0.475335 0.939081 0.163840
H15   H     H_    0.476053 0.976623 0.058889 0.164195
H16   H     H_    0.516354 0.975335 0.939081 0.163839
H17   H     H_    0.017301 0.746370 0.057605 0.091124
H18   H     H_    0.983576 0.748236 0.942516 0.091475
H19   H     H_    0.517301 0.246370 0.057605 0.091124
H20   H     H_    0.483576 0.248236 0.942516 0.091475
H21   H     H_    0.330840 0.816004 0.561140 0.134692
H22   H     H_    0.772272 0.802671 0.460448 0.123797
H23   H     H_    0.830858 0.316068 0.561146 0.134671
H24   H     H_    0.272315 0.302465 0.460481 0.123722
H25   H     H_    0.209870 0.936008 0.450803 0.125235
H26   H     H_    0.804892 0.848242 0.580791 0.090122
H27   H     H_    0.709890 0.436224 0.450838 0.125282
H28   H     H_    0.304990 0.348322 0.580838 0.090245
H29   H     H_    0.966550 0.079406 0.448987 0.089629
H30   H     H_    0.938091 0.059824 0.577050 0.111883
H31   H     H_    0.466582 0.579410 0.448972 0.089605
H32   H     H_    0.438126 0.559838 0.577036 0.111866
H33   H     H_    0.005448 0.906000 0.379962 0.134976
H34   H     H_    0.952659 0.867658 0.636499 0.122199
H35   H     H_    0.505470 0.405996 0.379948 0.134967
H36   H     H_    0.452681 0.367673 0.636486 0.122198
H37   H     H_    0.058142 0.454359 0.373726 0.128074
H38   H     H_    0.956053 0.427829 0.615302 0.134006
H39   H     H_    0.558171 0.954393 0.373711 0.128055
H40   H     H_    0.456064 0.927828 0.615279 0.134004
H41   H     H_    0.972849 0.246289 0.543542 0.101848
H42   H     H_    0.023088 0.261156 0.421153 0.100780
H43   H     H_    0.472844 0.746305 0.543502 0.101824
H44   H     H_    0.523089 0.761190 0.421112 0.100756
H45   H     H_    0.149416 0.943507 0.068589 0.140646
H46   H     H_    0.850788 0.943890 0.930886 0.140838
H47   H     H_    0.649416 0.443507 0.068589 0.140646
H48   H     H_    0.350788 0.443890 0.930886 0.140838
O1    O     O_R   0.043230 0.549300 0.667990 -0.522175
O2    O     O_R   0.956770 0.549300 0.332010 -0.527798
O3    O     O_R   0.543230 0.049300 0.667990 -0.522170
O4    O     O_R   0.456770 0.049300 0.332010 -0.527795
O5    O     O_R   0.262920 0.788600 0.824420 -0.486170
O6    O     O_R   0.737080 0.788600 0.175580 -0.488348
O7    O     O_R   0.762920 0.288600 0.824420 -0.486171
O8    O     O_R   0.237080 0.288600 0.175580 -0.488320
O9    O     O_R   0.167530 0.905110 0.830340 -0.535288
O10   O     O_R   0.832470 0.905110 0.169660 -0.542426
O11   O     O_R   0.667530 0.405110 0.830340 -0.535290
O12   O     O_R   0.332470 0.405110 0.169660 -0.542402
O13   O     O_R   0.054010 0.748440 0.822860 -0.505788
O14   O     O_R   0.945990 0.748440 0.177140 -0.503163
O15   O     O_R   0.554010 0.248440 0.822860 -0.505787
O16   O     O_R   0.445990 0.248440 0.177140 -0.503165
O17   O     O_3   0.165160 0.665150 0.749190 -0.244781
O18   O     O_3   0.834840 0.665150 0.250810 -0.254090
O19   O     O_3   0.665160 0.165150 0.749190 -0.244782
O20   O     O_3   0.334840 0.165150 0.250810 -0.254069
O21   O     O_R   0.178620 0.457600 0.674100 -0.494497
O22   O     O_R   0.821380 0.457600 0.325900 -0.502276
O23   O     O_R   0.678620 0.957600 0.674100 -0.494493
O24   O     O_R   0.321380 0.957600 0.325900 -0.502281
O25   O     O_R   0.284680 0.542100 0.669460 -0.520132
O26   O     O_R   0.715320 0.542100 0.330540 -0.526267
O27   O     O_R   0.784680 0.042100 0.669460 -0.520123
O28   O     O_R   0.215320 0.042100 0.330540 -0.526272
O29   O     O_R   0.262860 0.790390 0.676650 -0.507346
O30   O     O_R   0.737140 0.790390 0.323350 -0.521713
O31   O     O_R   0.762860 0.290390 0.676650 -0.507350
O32   O     O_R   0.237140 0.290390 0.323350 -0.521703
O33   O     O_R   0.167460 0.907030 0.670940 -0.520824
O34   O     O_R   0.832540 0.907030 0.329060 -0.520213
O35   O     O_R   0.667460 0.407030 0.670940 -0.520831
O36   O     O_R   0.332540 0.407030 0.329060 -0.520251
O37   O     O_R   0.053950 0.750220 0.675100 -0.500354
O38   O     O_R   0.946050 0.750220 0.324900 -0.504628
O39   O     O_R   0.553950 0.250220 0.675100 -0.500355
O40   O     O_R   0.446050 0.250220 0.324900 -0.504641
O41   O     O_R   0.043300 0.547370 0.827390 -0.518667
O42   O     O_R   0.956700 0.547370 0.172610 -0.518000
O43   O     O_R   0.543300 0.047370 0.827390 -0.518665
O44   O     O_R   0.456700 0.047370 0.172610 -0.518007
O45   O     O_R   0.178690 0.455820 0.821860 -0.502524
O46   O     O_R   0.821310 0.455820 0.178140 -0.496405
O47   O     O_R   0.678690 0.955820 0.821860 -0.502519
O48   O     O_R   0.321310 0.955820 0.178140 -0.496403
O49   O     O_R   0.284750 0.540170 0.828860 -0.517619
O50   O     O_R   0.715250 0.540170 0.171140 -0.510259
O51   O     O_R   0.784750 0.040170 0.828860 -0.517612
O52   O     O_R   0.215250 0.040170 0.171140 -0.510258
C93   C     C_R   0.314673 0.816038 0.060990 0.059976
C94   C     C_R   0.323510 0.698258 0.086245 -0.082164
C95   C     C_R   0.375388 0.624300 0.056107 -0.120108
C96   C     C_R   0.414474 0.663862 0.997732 -0.112022
C97   C     C_R   0.409402 0.783291 0.975866 -0.106104
C98   C     C_R   0.362559 0.861145 0.010350 -0.088890
H49   H     H_    0.289941 0.663678 0.128309 0.099921
H50   H     H_    0.384566 0.535055 0.076214 0.149294
H51   H     H_    0.449495 0.602414 0.970226 0.101648
H52   H     H_    0.441550 0.814947 0.932115 0.114476
H53   H     H_    0.361683 0.955148 0.995325 0.102636
C99   C     C_R   0.684605 0.819198 0.939486 0.060126
C100  C     C_R   0.676711 0.699165 0.917024 -0.081997
C101  C     C_R   0.624887 0.626445 0.948264 -0.119149
C102  C     C_R   0.584861 0.670078 0.005103 -0.110470
C103  C     C_R   0.588956 0.791545 0.023969 -0.107977
C104  C     C_R   0.635786 0.867686 0.988157 -0.088113
H54   H     H_    0.711052 0.661977 0.876322 0.102758
H55   H     H_    0.616540 0.535254 0.930177 0.145423
H56   H     H_    0.550051 0.610051 0.033864 0.103121
H57   H     H_    0.556343 0.825943 0.066705 0.115861
H58   H     H_    0.636585 0.962851 0.001284 0.103950
C105  C     C_R   0.814673 0.316038 0.060990 0.059977
C106  C     C_R   0.823510 0.198258 0.086246 -0.082166
C107  C     C_R   0.875388 0.124299 0.056108 -0.120108
C108  C     C_R   0.914474 0.163861 0.997732 -0.112022
C109  C     C_R   0.909402 0.283290 0.975866 -0.106105
C110  C     C_R   0.862559 0.361144 0.010350 -0.088889
H59   H     H_    0.789941 0.163678 0.128309 0.099911
H60   H     H_    0.884566 0.035055 0.076214 0.149296
H61   H     H_    0.949495 0.102413 0.970226 0.101648
H62   H     H_    0.941549 0.314946 0.932114 0.114476
H63   H     H_    0.861683 0.455147 0.995325 0.102635
C111  C     C_R   0.184605 0.319198 0.939486 0.060127
C112  C     C_R   0.176711 0.199165 0.917024 -0.081997
C113  C     C_R   0.124887 0.126445 0.948263 -0.119148
C114  C     C_R   0.084860 0.170078 0.005103 -0.110471
C115  C     C_R   0.088955 0.291545 0.023969 -0.107977
C116  C     C_R   0.135786 0.367686 0.988157 -0.088112
H64   H     H_    0.211052 0.161977 0.876322 0.102759
H65   H     H_    0.116540 0.035254 0.930177 0.145424
H66   H     H_    0.050051 0.110052 0.033864 0.103122
H67   H     H_    0.056342 0.325943 0.066704 0.115864
H68   H     H_    0.136585 0.462851 0.001284 0.103951
C117  C     C_3   0.229057 0.077079 0.580968 -0.236546
C118  C     C_3   0.151715 0.071416 0.558984 -0.269588
C119  C     C_3   0.136236 0.156280 0.498445 -0.454386
H69   H     H_    0.130065 0.249195 0.519348 0.181925
H70   H     H_    0.177542 0.154671 0.456708 0.173543
H71   H     H_    0.087426 0.126124 0.473646 0.142853
H72   H     H_    0.136495 0.978492 0.542442 0.181924
H73   H     H_    0.117310 0.095591 0.604978 0.175409
H74   H     H_    0.232943 0.128789 0.631466 0.126630
H75   H     H_    0.261696 0.128448 0.542262 0.143673
C120  C     C_3   0.707930 0.076075 0.393536 -0.272869
C121  C     C_3   0.760348 0.164204 0.359157 -0.277786
C122  C     C_3   0.827251 0.176254 0.401942 -0.404805
H76   H     H_    0.860278 0.250593 0.380617 0.161262
H77   H     H_    0.814489 0.193713 0.458555 0.158010
H78   H     H_    0.857997 0.092158 0.398286 0.181078
H79   H     H_    0.773762 0.134656 0.304183 0.160538
H80   H     H_    0.734909 0.253763 0.355251 0.168077
H81   H     H_    0.661571 0.070412 0.358963 0.105204
H82   H     H_    0.689894 0.115131 0.444830 0.142573
C123  C     C_3   0.729089 0.577140 0.581011 -0.236592
C124  C     C_3   0.651737 0.571525 0.559068 -0.269665
C125  C     C_3   0.636228 0.656476 0.498584 -0.454458
H83   H     H_    0.630134 0.749386 0.519523 0.182005
H84   H     H_    0.677473 0.654810 0.456785 0.173501
H85   H     H_    0.587359 0.626419 0.473864 0.142882
H86   H     H_    0.636502 0.478630 0.542487 0.181949
H87   H     H_    0.617362 0.595648 0.605093 0.175453
H88   H     H_    0.733013 0.628836 0.631510 0.126596
H89   H     H_    0.761714 0.628503 0.542290 0.143701
C126  C     C_3   0.208007 0.575994 0.393720 -0.272848
C127  C     C_3   0.260339 0.664092 0.359177 -0.277803
C128  C     C_3   0.327348 0.676216 0.401785 -0.404783
H90   H     H_    0.360298 0.750567 0.380363 0.161302
H91   H     H_    0.314729 0.693703 0.458425 0.157958
H92   H     H_    0.358116 0.592151 0.398068 0.181081
H93   H     H_    0.273615 0.634494 0.304180 0.160524
H94   H     H_    0.234882 0.753638 0.355305 0.167986
H95   H     H_    0.161538 0.570380 0.359309 0.105242
H96   H     H_    0.190160 0.615066 0.445072 0.142669

loop_
_geom_bond_atom_site_label_1
_geom_bond_atom_site_label_2
_ccdc_geom_bond_type
Cr10  O18   S    
C125  H85   S    
C7    C83   D    
C15   C19   A    
Cr11  O15   S    
C96   H51   S    
C6    C82   D    
C87   C91   D    
Cr8   O20   S    
Cr8   O52   S    
C14   C18   A    
C112  C113  A    
C117  H75   S    
C30   C34   A    
C43   C51   D    
C88   H28   S    
Cr5   O17   S    
C57   C62   D    
C40   H12   S    
C93   C94   A    
C11   C68   S    
C128  H92   S    
C69   O49   A    
C12   C23   A    
Cr1   O17   S    
C117  C118  S    
C50   C54   S    
C30   H37   S    
C4    O24   A    
C60   C63   D    
Cr4   O48   S    
C32   C36   A    
C14   C21   A    
C67   O3    A    
C48   O36   A    
Cr7   O7    S    
C103  H57   S    
Cr3   O19   S    
C122  H76   S    
C38   H10   S    
C67   O39   A    
C9    C22   A    
C119  H70   S    
C37   H9    S    
C121  H79   S    
C35   H43   S    
C19   H31   S    
C125  H83   S    
Cr12  O40   S    
C84   C126  S    
C73   O5    A    
C11   C24   A    
C31   H40   S    
C79   O43   A    
Cr5   O29   S    
C54   H6    S    
C75   O11   A    
C114  C115  A    
C78   O42   A    
C118  H72   S    
C87   H27   S    
C107  H60   S    
C83   C123  S    
Cr3   O23   S    
C99   C104  A    
C103  C104  A    
C32   H39   S    
C65   O1    A    
C120  H82   S    
C85   H25   S    
C57   H18   S    
C46   C82   S    
C1    O25   A    
C94   H49   S    
C8    H24   S    
C39   C55   D    
C88   C92   D    
C29   C33   A    
C43   C105  S    
C96   C97   A    
C40   C56   D    
C71   O51   A    
C17   C18   A    
C123  H89   S    
C73   O9    A    
C23   C24   A    
Cr9   O17   S    
C112  H64   S    
C8    C92   S    
C39   C75   S    
Cr6   O26   S    
Cr7   O31   S    
C61   C62   S    
C2    O22   A    
Cr2   O2    S    
C72   O52   A    
Cr12  O20   S    
C37   C53   D    
Cr6   O50   S    
C44   C52   D    
C1    C88   S    
C105  C110  A    
C102  H56   S    
C48   O32   A    
C14   H34   S    
C8    C84   D    
C123  C124  S    
C63   C64   S    
C3    C86   S    
C69   O45   A    
C16   H36   S    
C58   C78   S    
C101  H55   S    
C4    O28   A    
C80   O44   A    
C1    O21   A    
C41   C49   D    
C106  C107  A    
C25   C26   A    
C92   H4    S    
C9    C26   A    
C33   C34   A    
C15   H35   S    
C10   C21   A    
C25   C29   A    
Cr12  O36   S    
C12   C67   S    
C45   C81   S    
C78   O14   A    
C70   O46   A    
C76   O8    A    
C74   O6    A    
C12   C27   A    
C45   O29   A    
C95   C96   A    
Cr6   O6    S    
Cr1   O21   S    
C2    C87   S    
C120  H81   S    
C127  C128  S    
C90   H2    S    
C47   O31   A    
C86   C90   D    
C59   C79   S    
C102  C103  A    
C74   O10   A    
C85   C89   D    
C94   C95   A    
C86   H26   S    
C119  H71   S    
C70   O50   A    
C4    C85   S    
C51   C55   S    
C128  H90   S    
C6    C90   S    
C27   C31   A    
C104  H58   S    
C46   O34   A    
C3    O27   A    
Cr2   O46   S    
C35   C36   A    
C126  H95   S    
Cr6   O30   S    
C60   H19   S    
Cr1   O45   S    
C48   C84   S    
Cr7   O27   S    
C107  C108  A    
C91   H3    S    
C72   O48   A    
C5    C81   D    
C50   H46   S    
C114  H66   S    
Cr5   O25   S    
C105  C106  A    
C38   C54   D    
C28   C32   A    
C16   C20   A    
C99   C100  A    
C7    C91   S    
Cr5   O5    S    
C97   C98   A    
C59   C64   D    
C123  H88   S    
C108  H61   S    
Cr10  O34   S    
Cr8   O8    S    
C20   H32   S    
Cr9   O13   S    
C6    H22   S    
C106  H59   S    
C109  H62   S    
C33   H41   S    
C42   C50   D    
C41   C72   S    
C100  H54   S    
C10   C25   A    
C3    O23   A    
C15   C24   A    
C65   O37   A    
C116  H68   S    
C16   C23   A    
C39   H11   S    
Cr2   O18   S    
C17   H29   S    
C95   H50   S    
C31   C35   A    
C76   O12   A    
C55   H7    S    
Cr11  O39   S    
C66   O2    A    
C121  H80   S    
C120  C121  S    
Cr8   O28   S    
C11   C28   A    
C42   C71   S    
Cr10  O10   S    
C122  H77   S    
C38   C74   S    
C10   C65   S    
C75   O7    A    
C59   H20   S    
C125  H84   S    
C37   C73   S    
C111  C112  A    
C60   C80   S    
C58   H17   S    
Cr3   O43   S    
Cr4   O24   S    
C118  H73   S    
Cr7   O51   S    
C82   C120  S    
Cr2   O42   S    
Cr11  O11   S    
C124  H86   S    
Cr2   O22   S    
C68   O40   A    
Cr1   O41   S    
C127  H93   S    
C117  H74   S    
C121  C122  S    
C68   O4    A    
C44   C111  S    
C113  H65   S    
Cr12  O12   S    
C122  H78   S    
Cr10  O14   S    
C81   C117  S    
C89   H1    S    
C71   O47   A    
C49   H45   S    
C119  H69   S    
C43   C70   S    
C115  C116  A    
C77   O13   A    
Cr9   O37   S    
C97   H52   S    
C64   H16   S    
C13   C17   A    
C115  H67   S    
C79   O15   A    
C128  H91   S    
C46   O30   A    
C19   C20   A    
Cr9   O9    S    
C100  C101  A    
C126  C127  S    
Cr12  O16   S    
C61   H13   S    
C126  H96   S    
C34   H42   S    
Cr11  O19   S    
C45   O33   A    
C101  C102  A    
Cr4   O4    S    
C52   C56   S    
C36   H44   S    
C58   C61   D    
C66   O38   A    
C49   C53   S    
C29   H38   S    
C111  C116  A    
Cr1   O1    S    
C113  C114  A    
Cr10  O38   S    
C124  H87   S    
C56   H8    S    
C13   C22   A    
C18   H30   S    
Cr5   O49   S    
Cr3   O3    S    
C9    C66   S    
C41   C93   S    
C108  C109  A    
Cr8   O32   S    
C127  H94   S    
C118  C119  S    
C42   C99   S    
C110  H63   S    
C93   C98   A    
C51   H47   S    
C47   C83   S    
Cr6   O18   S    
C40   C76   S    
Cr4   O44   S    
Cr7   O19   S    
Cr3   O47   S    
C63   H15   S    
Cr4   O20   S    
C5    H21   S    
C109  C110  A    
C44   C69   S    
C124  C125  S    
C57   C77   S    
C53   H5    S    
Cr9   O33   S    
C2    O26   A    
C7    H23   S    
C77   O41   A    
C21   C22   A    
C52   H48   S    
C47   O35   A    
C80   O16   A    
Cr11  O35   S    
C5    C89   S    
C62   H14   S    
C98   H53   S    
C13   H33   S    
C27   C28   A    
C26   C30   A    
