data_mof_unit_49648.cif
_audit_creation_date              2012-12-11T17:11:24-0500
_audit_creation_method            fapswitch 2.2
_symmetry_space_group_name_H-M    P1
_symmetry_Int_Tables_number       1
_space_group_crystal_system       triclinic
_cell_length_a                    8.338801
_cell_length_b                    16.565969
_cell_length_c                    16.261462
_cell_angle_alpha                 107.586317
_cell_angle_beta                  93.116275
_cell_angle_gamma                 82.190416
_cell_volume                      2121.30333012

loop_
_atom_site_label
_atom_site_type_symbol
_atom_type_description
_atom_site_fract_x
_atom_site_fract_y
_atom_site_fract_z
_atom_type_partial_charge
Ba1   Ba    Ba6+2 0.642070 0.542310 0.469620 1.676818
Ba2   Ba    Ba6+2 0.168110 0.457680 0.530320 1.687625
C1    C     C_3   0.775272 0.732569 0.184479 -0.345493
C2    C     C_3   0.812623 0.714015 0.270166 0.345052
C3    C     C_3   0.956169 0.732506 0.734511 0.256089
C4    C     C_3   0.942693 0.819569 0.804411 -0.244109
C5    C     C_3   0.514441 0.235227 0.682095 0.632198
C6    C     C_3   0.537985 0.150058 0.701506 0.340007
C7    C     C_3   0.024763 0.240794 0.720027 0.861181
C8    C     C_3   0.926915 0.173662 0.730443 -0.320854
C9    C     C_2   0.696733 0.249150 0.496598 -0.254059
C10   C     C_R   0.104146 0.746454 0.513263 -0.207970
C11   C     C_2   0.525976 0.141914 0.415624 -0.099451
C12   C     C_3   0.336597 0.769803 0.321333 0.356700
C13   C     C_2   0.555979 0.223444 0.438653 0.047156
C14   C     C_2   0.815846 0.190258 0.511137 -0.071791
C15   C     C_3   0.802395 0.095961 0.464054 0.037703
C16   C     C_3   0.625351 0.078749 0.453218 0.021951
C17   C     C_2   0.902279 0.028764 0.497214 -0.091565
C18   C     C_2   0.945118 0.947190 0.446935 -0.049772
C19   C     C_R   0.187980 0.905450 0.524638 -0.067033
C20   C     C_R   0.039977 0.884581 0.485810 -0.086740
C21   C     C_R   0.288185 0.850974 0.561356 -0.114461
C22   C     C_R   0.244832 0.772106 0.559120 -0.012476
C23   C     C_3   0.336831 0.854964 0.303711 -0.355789
C24   C     C_R   0.996403 0.803169 0.479978 0.047432
C25   C     C_R   0.111199 0.530906 0.274483 -0.297107
C26   C     C_R   0.977592 0.488914 0.240253 0.008601
C27   C     C_R   0.924844 0.483283 0.155680 -0.139006
C28   C     C_R   0.008080 0.518427 0.104150 0.227615
C29   C     C_R   0.147059 0.556845 0.138297 -0.173389
C30   C     C_R   0.198933 0.562472 0.223010 -0.012714
C31   C     C_R   0.873323 0.516601 0.855650 -0.180046
C32   C     C_R   0.827906 0.509698 0.770227 0.017058
C33   C     C_R   0.782694 0.483797 0.906370 0.227406
C34   C     C_3   0.324574 0.343693 0.257823 0.202263
C35   C     C_R   0.693028 0.470600 0.733957 -0.232254
C36   C     C_R   0.598513 0.440965 0.783705 -0.011380
C37   C     C_R   0.643447 0.446612 0.869626 -0.180099
C38   C     C_3   0.262091 0.309581 0.164255 -0.248316
C39   C     C_3   0.435490 0.774938 0.782700 0.589093
C40   C     C_3   0.448932 0.855409 0.755685 0.423308
C41   C     C_3   0.789402 0.277463 0.240732 0.747213
C42   C     C_3   0.729305 0.278693 0.150479 0.376051
H1    H     H_    0.767537 0.652927 0.266431 0.089316
H2    H     H_    0.268778 0.238796 0.144549 0.178826
H3    H     H_    0.133091 0.334158 0.159607 0.075969
H4    H     H_    0.327721 0.878151 0.732938 -0.204950
H5    H     H_    0.539299 0.839748 0.704223 0.057577
H6    H     H_    0.693143 0.307328 0.288684 -0.090251
H7    H     H_    0.642934 0.737750 0.171345 0.157689
H8    H     H_    0.677607 0.344581 0.152292 -0.075781
H9    H     H_    0.632189 0.236393 0.131199 0.051332
H10   H     H_    0.946144 0.707851 0.280412 -0.082533
H11   H     H_    0.836033 0.680478 0.131289 0.084941
H12   H     H_    0.085331 0.706650 0.722712 -0.045859
H13   H     H_    0.978917 0.811733 0.868456 0.130270
H14   H     H_    0.018349 0.862638 0.787995 0.077494
H15   H     H_    0.815606 0.850733 0.810662 0.186541
H16   H     H_    0.819091 0.793295 0.185886 0.139692
H17   H     H_    0.288745 0.908075 0.360020 0.059026
H18   H     H_    0.456066 0.226417 0.617430 -0.001872
H19   H     H_    0.634806 0.256817 0.681698 -0.028369
H20   H     H_    0.621968 0.102617 0.654234 -0.105128
H21   H     H_    0.595482 0.159125 0.766234 0.030550
H22   H     H_    0.943761 0.300376 0.719750 -0.125259
H23   H     H_    0.849938 0.154579 0.672954 0.016522
H24   H     H_    0.850322 0.199217 0.788382 0.031938
H25   H     H_    0.410740 0.770946 0.380441 0.092877
H26   H     H_    0.008124 0.116573 0.736165 0.124391
H27   H     H_    0.423829 0.121841 0.373697 0.091973
H28   H     H_    0.401962 0.869776 0.589577 0.089068
H29   H     H_    0.709342 0.316610 0.520870 0.075551
H30   H     H_    0.076353 0.682831 0.505997 0.039992
H31   H     H_    0.929379 0.043876 0.565505 0.062593
H32   H     H_    0.976446 0.549598 0.882612 0.107067
H33   H     H_    0.215195 0.581854 0.098738 0.091440
H34   H     H_    0.821438 0.450303 0.130023 0.113819
H35   H     H_    0.210044 0.761663 0.331926 -0.086095
H36   H     H_    0.570888 0.422017 0.907606 0.092440
H37   H     H_    0.152849 0.534494 0.339543 0.077178
H38   H     H_    0.656064 0.467714 0.668371 0.071010
H39   H     H_    0.461889 0.864237 0.291826 0.171269
H40   H     H_    0.260069 0.856722 0.246144 0.120772
H41   H     H_    0.218555 0.370950 0.299877 0.059261
H42   H     H_    0.401252 0.395339 0.264678 0.010021
N1    N     N_2   0.959582 0.515021 0.017806 -0.251171
N2    N     N_2   0.827483 0.487077 0.993343 -0.243135
O1    O     O_2   0.554430 0.712240 0.583340 -0.464600
O2    O     O_3   0.928135 0.319810 0.263109 -0.665664
O3    O     O_3   0.403106 0.704126 0.250467 -0.598476
O4    O     O_2   0.255890 0.287710 0.416620 -0.452157
O5    O     O_3   0.472550 0.396030 0.437270 -0.495632
O6    O     O_3   0.997190 0.341000 0.573500 -0.465955
O7    O     O_3   0.414397 0.276431 0.282268 -0.636818
O8    O     O_3   0.856110 0.544300 0.605450 -0.487700
O9    O     O_3   0.397490 0.384750 0.623120 -0.483375
O10   O     O_2   0.262501 0.446914 0.779696 -0.489153
O11   O     O_3   0.415404 0.294120 0.745522 -0.549791
O12   O     O_3   0.337760 0.603960 0.562660 -0.457421
O13   O     O_3   0.954190 0.455690 0.394480 -0.468906
O14   O     O_2   0.106750 0.542200 0.705290 -0.454740
O15   O     O_3   0.875361 0.679443 0.765958 -0.628237
O16   O     O_2   0.136566 0.191877 0.481663 -0.502127
O17   O     O_3   0.111659 0.205512 0.642667 -0.590459
O18   O     O_3   0.813110 0.658990 0.426440 -0.496692
O19   O     O_2   0.659391 0.811485 0.498393 -0.451228
O20   O     O_3   0.399269 0.700774 0.715039 -0.693223
O21   O     O_3   0.734194 0.780820 0.336450 -0.613642
O22   O     O_2   0.703570 0.457750 0.294670 -0.496453
O23   O     O_3   0.412810 0.615240 0.376810 -0.489163
O24   O     O_2   0.532892 0.546798 0.218069 -0.488683
P1    P     P_3+3 0.385820 0.698700 0.604730 0.952665
P2    P     P_3+3 0.884390 0.431600 0.301750 0.953402
P3    P     P_3+3 0.386816 0.606013 0.266869 0.945261
P4    P     P_3+3 0.424480 0.301290 0.395200 0.987075
P5    P     P_3+3 0.417046 0.394783 0.733494 1.007985
P6    P     P_3+3 0.799960 0.766965 0.435848 0.967972
P7    P     P_3+3 0.919042 0.569926 0.712759 0.971169
P8    P     P_3+3 0.011262 0.230475 0.554122 0.929925
C43   C     C_2   0.350316 0.336673 0.101106 0.393945
H43   H     H_    0.370708 0.402689 0.114596 0.011086
O25   O     O_2   0.397096 0.284956 0.033225 -0.590970
O26   O     O_3   0.586359 0.755125 0.822098 -0.619723
C44   C     C_3   0.582295 0.693876 0.866782 0.264881
H44   H     H_    0.513262 0.721451 0.927512 0.009809
H45   H     H_    0.706862 0.675628 0.887502 0.068708
H46   H     H_    0.533325 0.635581 0.825706 -0.005651
C45   C     C_2   0.302283 0.796503 0.848910 0.462033
H47   H     H_    0.239707 0.745338 0.855007 -0.060037
O27   O     O_2   0.274907 0.867289 0.901087 -0.544408
O28   O     O_3   0.503759 0.918828 0.827354 -0.607983
C46   C     C_3   0.501040 0.995352 0.806447 0.249838
H48   H     H_    0.577332 0.986154 0.749491 0.019421
H49   H     H_    0.551963 0.042872 0.861761 0.079070
H50   H     H_    0.374454 0.021591 0.795631 0.099665
O29   O     O_3   0.826164 0.190337 0.237564 -0.665162
C47   C     C_3   0.931266 0.179995 0.305566 0.290661
H51   H     H_    0.902407 0.231064 0.367016 -0.019065
H52   H     H_    0.058689 0.178965 0.288113 0.087306
H53   H     H_    0.920208 0.117699 0.315312 0.082579
O30   O     O_3   0.859147 0.248569 0.092267 -0.634699
C48   C     C_3   0.803345 0.247714 0.008669 0.184664
H54   H     H_    0.756095 0.313076 0.006169 0.041882
H55   H     H_    0.709722 0.203816 0.985353 0.082320
H56   H     H_    0.906705 0.223523 0.964008 0.068115
C49   C     C_2   0.877238 0.743131 0.652720 0.436647
H57   H     H_    0.866863 0.687815 0.597770 0.059757
O31   O     O_2   0.827094 0.813762 0.646212 -0.620649
O32   O     O_3   0.387012 0.122268 0.704466 -0.616659
C50   C     C_3   0.352900 0.063698 0.624967 0.200867
H58   H     H_    0.441817 0.005293 0.611862 0.007078
H59   H     H_    0.351495 0.091768 0.570831 0.055171
H60   H     H_    0.230665 0.046996 0.629563 0.083718
O33   O     O_3   0.139383 0.256061 0.788715 -0.582813
C51   C     C_3   0.076319 0.319542 0.862820 0.238829
H61   H     H_    0.947598 0.316560 0.874424 -0.064615
H62   H     H_    0.090935 0.383112 0.857948 0.082005
H63   H     H_    0.147369 0.311169 0.919927 0.113840
C52   C     C_2   0.922982 0.919918 0.351460 0.533590
H64   H     H_    0.984127 0.859104 0.314074 -0.035652
O34   O     O_2   0.838897 0.963632 0.313259 -0.585202

loop_
_geom_bond_atom_site_label_1
_geom_bond_atom_site_label_2
_ccdc_geom_bond_type
C48   H56   S    
N1    N2    D    
C3    O15   S    
C3    C49   S    
C39   O20   S    
C10   H30   S    
C38   H3    S    
C32   C35   A    
C39   C40   S    
C4    H14   S    
C3    H12   S    
C33   C37   A    
C49   H57   S    
C34   O7    S    
C2    O21   S    
C5    C6    S    
C8    H23   S    
C38   H2    S    
C38   C43   S    
O6    P8    S    
C35   C36   A    
C5    O11   S    
C11   C16   S    
C3    C4    S    
C39   O26   S    
C51   H61   S    
C49   O31   D    
C14   P8    S    
C36   C37   A    
O11   P5    S    
Ba2   O14   S    
C7    O17   S    
C48   H54   S    
Ba1   Ba2   S    
C9    C14   D    
C50   H60   S    
C7    H22   S    
O8    P7    S    
C15   C17   S    
C36   P5    S    
C9    C13   S    
C42   H9    S    
C27   H34   S    
C17   C18   D    
Ba2   O9    S    
O3    P3    S    
C14   C15   S    
C23   H40   S    
C21   C22   A    
O17   P8    S    
C7    C8    S    
O22   P2    D    
O19   P6    D    
Ba1   O18   S    
C1    H16   S    
C42   H8    S    
C50   H59   S    
Ba2   O12   S    
C6    H21   S    
C12   C23   S    
C19   C20   A    
O18   P6    S    
C46   H49   S    
O13   P2    S    
C4    H13   S    
Ba1   P1    S    
C21   H28   S    
Ba1   O12   S    
O21   P6    S    
C29   H33   S    
C2    H1    S    
Ba2   O5    S    
O1    P1    D    
C41   O2    S    
C34   C38   S    
C9    H29   S    
C13   P4    S    
C1    H7    S    
O28   C46   S    
C25   H37   S    
C23   H17   S    
C11   H27   S    
Ba2   O13   S    
C34   H42   S    
C10   C24   A    
O5    P4    S    
C52   O34   D    
O20   P1    S    
C6    O32   S    
C41   C42   S    
C5    H18   S    
C27   C28   A    
Ba1   O22   S    
C44   H46   S    
C33   N2    S    
C31   H32   S    
C29   C30   A    
C51   H62   S    
C11   C13   D    
Ba2   O6    S    
O7    P4    S    
C50   H58   S    
C15   C16   S    
C40   H4    S    
C12   H35   S    
Ba2   O4    S    
O4    P4    D    
C5    H19   S    
C43   H43   S    
C47   H52   S    
C6    H20   S    
C46   H50   S    
C8    H26   S    
C42   O30   S    
C18   C20   S    
C19   C21   A    
C18   C52   S    
C44   H44   S    
C12   H25   S    
C35   H38   S    
Ba1   P2    S    
C1    C2    S    
Ba1   O13   S    
O33   C51   S    
O10   P5    D    
C23   H39   S    
C45   H47   S    
C32   P7    S    
C48   H55   S    
C26   C27   A    
Ba1   O1    S    
C2    H10   S    
C25   C30   A    
O32   C50   S    
C4    H15   S    
C51   H63   S    
O15   P7    S    
O12   P1    S    
C24   P6    S    
C47   H53   S    
O23   P3    S    
C41   H6    S    
C8    H24   S    
C34   H41   S    
O29   C47   S    
C10   C22   A    
C1    H11   S    
C37   H36   S    
Ba2   O8    S    
Ba1   O23   S    
C39   C45   S    
C28   C29   A    
C46   H48   S    
Ba1   O8    S    
C26   P2    S    
C17   H31   S    
C31   C33   A    
C31   C32   A    
C41   O29   S    
Ba2   P4    S    
O2    P2    S    
C30   P3    S    
O9    P5    S    
C52   H64   S    
C12   O3    S    
C43   O25   D    
C47   H51   S    
C40   H5    S    
C22   P1    S    
C7    O33   S    
Ba1   O5    S    
C20   C24   A    
C25   C26   A    
C44   H45   S    
O30   C48   S    
C40   O28   S    
C45   O27   D    
C28   N1    S    
O24   P3    D    
O14   P7    D    
O26   C44   S    
O16   P8    D    
