data_mof_unit_49137.cif
_audit_creation_date              2013-03-05T15:57:38-0500
_audit_creation_method            fapswitch 2.2
_symmetry_space_group_name_H-M    P1
_symmetry_Int_Tables_number       1
_space_group_crystal_system       triclinic
_cell_length_a                    19.555201
_cell_length_b                    17.697455
_cell_length_c                    12.636106
_cell_angle_alpha                 90.178555
_cell_angle_beta                  98.641659
_cell_angle_gamma                 90.080366
_cell_volume                      4323.39485099

loop_
_atom_site_label
_atom_site_type_symbol
_atom_site_description
_atom_site_fract_x
_atom_site_fract_y
_atom_site_fract_z
_atom_type_partial_charge
O1    O     O_R   0.448200 0.076800 0.373930 -0.611815
O2    O     O_R   0.448200 0.923200 0.373930 -0.613292
O3    O     O_R   0.948200 0.576800 0.373930 -0.611814
O4    O     O_R   0.948200 0.423200 0.373930 -0.613292
O5    O     O_R   0.414750 0.076790 0.542400 -0.605212
O6    O     O_R   0.414750 0.923210 0.542400 -0.623024
O7    O     O_R   0.914750 0.576790 0.542400 -0.605211
O8    O     O_R   0.914750 0.423210 0.542400 -0.623023
C1    C     C_R   0.409503 0.100634 0.443124 0.875389
C2    C     C_R   0.410319 0.898192 0.443609 0.850621
C3    C     C_R   0.909504 0.600635 0.443125 0.875386
C4    C     C_R   0.910319 0.398192 0.443609 0.850623
Zn1   Zn    Zn3+2 0.522330 0.000000 0.387520 0.951119
Zn2   Zn    Zn3+2 0.022330 0.500000 0.387520 0.951119
Zn3   Zn    Zn3+2 0.477660 0.000000 0.612480 0.935955
Zn4   Zn    Zn3+2 0.977660 0.500000 0.612480 0.935955
O9    O     O_R   0.585240 0.923200 0.457600 -0.622952
O10   O     O_R   0.585240 0.076800 0.457600 -0.613972
O11   O     O_R   0.085240 0.423200 0.457600 -0.622952
O12   O     O_R   0.085240 0.576800 0.457600 -0.613973
O13   O     O_R   0.551780 0.923190 0.626070 -0.643063
O14   O     O_R   0.551780 0.076810 0.626070 -0.632442
O15   O     O_R   0.051780 0.423190 0.626070 -0.643065
O16   O     O_R   0.051780 0.576810 0.626070 -0.632441
C5    C     C_R   0.589228 0.897970 0.556160 0.873012
C6    C     C_R   0.590108 0.101146 0.557074 0.897597
C7    C     C_R   0.089229 0.397971 0.556161 0.873011
C8    C     C_R   0.090108 0.601146 0.557074 0.897594
C9    C     C_R   0.730031 0.207107 0.733056 0.216863
C10   C     C_R   0.661536 0.717219 0.680628 0.214196
C11   C     C_R   0.230031 0.707106 0.733056 0.216862
C12   C     C_R   0.161552 0.217233 0.680648 0.214189
H1    H     H_    0.644171 0.137636 0.762028 0.164218
H2    H     H_    0.587886 0.799300 0.720638 0.164314
H3    H     H_    0.144172 0.637636 0.762028 0.164218
H4    H     H_    0.087903 0.299313 0.720658 0.164319
C13   C     C_R   0.643319 0.156330 0.593711 -0.107450
C14   C     C_R   0.635565 0.835326 0.586623 -0.106881
C15   C     C_R   0.143319 0.656330 0.593712 -0.107450
C16   C     C_R   0.135569 0.335330 0.586626 -0.106885
C17   C     C_R   0.314934 0.859449 0.306032 -0.267171
C18   C     C_R   0.389200 0.224058 0.358411 -0.237166
C19   C     C_R   0.814934 0.359450 0.306032 -0.267172
C20   C     C_R   0.889205 0.724063 0.358423 -0.237166
C21   C     C_R   0.245440 0.840238 0.286634 -0.172151
C22   C     C_R   0.366302 0.297032 0.371509 -0.148038
C23   C     C_R   0.745440 0.340238 0.286634 -0.172151
C24   C     C_R   0.866308 0.797036 0.371528 -0.148036
C25   C     C_R   0.213634 0.808171 0.367432 0.375219
C26   C     C_R   0.317973 0.311200 0.439704 0.369227
C27   C     C_R   0.713634 0.308172 0.367432 0.375219
C28   C     C_R   0.817976 0.811200 0.439720 0.369222
C29   C     C_R   0.254694 0.784118 0.464947 -0.006894
C30   C     C_R   0.283686 0.249467 0.482941 0.003922
C31   C     C_R   0.754694 0.284118 0.464947 -0.006895
C32   C     C_R   0.783685 0.749466 0.482945 0.003925
C33   C     C_R   0.324977 0.804041 0.483773 -0.005170
C34   C     C_R   0.307557 0.175828 0.469574 0.003489
C35   C     C_R   0.824977 0.304041 0.483773 -0.005170
C36   C     C_R   0.807557 0.675827 0.469573 0.003491
C37   C     C_R   0.728496 0.242653 0.545365 0.022580
C38   C     C_R   0.728320 0.758262 0.541784 0.022782
C39   C     C_R   0.228497 0.742653 0.545365 0.022580
C40   C     C_R   0.228324 0.258267 0.541785 0.022785
C41   C     C_R   0.765540 0.237557 0.651731 0.110206
C42   C     C_R   0.707663 0.698841 0.606539 0.117845
C43   C     C_R   0.265540 0.737557 0.651731 0.110205
C44   C     C_R   0.207673 0.198850 0.606552 0.117855
C45   C     C_R   0.337071 0.756098 0.667380 0.173915
C46   C     C_R   0.229517 0.124356 0.586270 0.166756
C47   C     C_R   0.837070 0.256099 0.667380 0.173914
C48   C     C_R   0.729510 0.624348 0.586254 0.166757
C49   C     C_R   0.366022 0.783727 0.580739 -0.165071
C50   C     C_R   0.276461 0.114218 0.514330 -0.178927
C51   C     C_R   0.866022 0.283727 0.580739 -0.165070
C52   C     C_R   0.776458 0.614214 0.514319 -0.178928
C53   C     C_R   0.670857 0.197290 0.517628 -0.166489
C54   C     C_R   0.687078 0.821726 0.525625 -0.170356
C55   C     C_R   0.170857 0.697290 0.517629 -0.166490
C56   C     C_R   0.187079 0.321728 0.525623 -0.170358
C57   C     C_R   0.669201 0.165711 0.702009 -0.194695
C58   C     C_R   0.625989 0.786163 0.669263 -0.209829
C59   C     C_R   0.169202 0.665711 0.702009 -0.194696
C60   C     C_R   0.126002 0.286173 0.669277 -0.209826
C61   C     C_R   0.352927 0.847386 0.407429 -0.088186
C62   C     C_R   0.364258 0.164769 0.414867 -0.109163
C63   C     C_R   0.852927 0.347386 0.407429 -0.088187
C64   C     C_R   0.864259 0.664771 0.414869 -0.109162
H5    H     H_    0.650534 0.188220 0.434487 0.199263
H6    H     H_    0.691328 0.858015 0.458517 0.195107
H7    H     H_    0.150534 0.688219 0.434487 0.199263
H8    H     H_    0.191325 0.358013 0.458508 0.195109
H9    H     H_    0.336265 0.892317 0.246507 0.167556
H10   H     H_    0.432590 0.215753 0.315456 0.199892
H11   H     H_    0.836265 0.392317 0.246507 0.167556
H12   H     H_    0.932597 0.715759 0.315471 0.199893
H13   H     H_    0.214773 0.857325 0.211982 0.181670
H14   H     H_    0.391478 0.343476 0.337034 0.197826
H15   H     H_    0.714773 0.357325 0.211982 0.181669
H16   H     H_    0.891487 0.843482 0.337061 0.197828
H17   H     H_    0.421589 0.791569 0.590077 0.157562
H18   H     H_    0.289930 0.057115 0.494125 0.151366
H19   H     H_    0.921588 0.291569 0.590077 0.157563
H20   H     H_    0.789929 0.557113 0.494112 0.151364
C65   C     C_R   0.641449 0.001002 0.127333 -0.276584
C66   C     C_R   0.141449 0.501002 0.127333 -0.276584
H21   H     H_    0.667652 0.999333 0.930112 0.162730
H22   H     H_    0.167652 0.499332 0.930112 0.162730
H23   H     H_    0.695781 0.004679 0.118862 0.151883
H24   H     H_    0.195781 0.504678 0.118862 0.151884
N1    N     N_R   0.552340 0.000000 0.237260 -0.102139
N2    N     N_R   0.052340 0.500000 0.237260 -0.102139
C67   C     C_R   0.378828 0.997729 0.762788 0.039982
C68   C     C_R   0.878828 0.497731 0.762788 0.039982
C69   C     C_R   0.352822 0.993659 0.858979 -0.253536
C70   C     C_R   0.852822 0.493663 0.858979 -0.253532
C71   C     C_R   0.398526 0.992215 0.954561 -0.191044
C72   C     C_R   0.898526 0.492217 0.954561 -0.191044
C73   C     C_R   0.470688 0.994485 0.953621 0.032273
C74   C     C_R   0.970687 0.494485 0.953621 0.032272
C75   C     C_R   0.494313 0.997711 0.853137 0.230930
C76   C     C_R   0.994313 0.497710 0.853137 0.230931
C77   C     C_R   0.520286 0.994636 0.047475 -0.013265
C78   C     C_R   0.020286 0.494636 0.047475 -0.013265
C79   C     C_R   0.591622 0.996883 0.037578 0.147508
C80   C     C_R   0.091622 0.496882 0.037578 0.147509
C81   C     C_R   0.613173 0.997679 0.937896 -0.275171
C82   C     C_R   0.113173 0.497678 0.937896 -0.275174
C83   C     C_R   0.564955 0.998463 0.846921 -0.211902
C84   C     C_R   0.064954 0.498462 0.846921 -0.211906
C85   C     C_R   0.502438 0.994522 0.151153 -0.081866
C86   C     C_R   0.002438 0.494522 0.151153 -0.081864
C87   C     C_R   0.621340 0.004739 0.227602 0.309450
C88   C     C_R   0.121340 0.504739 0.227602 0.309446
N3    N     N_R   0.448170 0.000000 0.762060 -0.134196
N4    N     N_R   0.948170 0.500000 0.762060 -0.134196
H25   H     H_    0.449753 0.991676 0.166213 0.131193
H26   H     H_    0.949753 0.491676 0.166213 0.131193
H27   H     H_    0.343803 0.998070 0.687993 0.147021
H28   H     H_    0.843803 0.498073 0.687993 0.147022
H29   H     H_    0.376014 0.989054 0.027203 0.136948
H30   H     H_    0.876014 0.489057 0.027203 0.136949
H31   H     H_    0.297586 0.991324 0.859600 0.150254
H32   H     H_    0.797585 0.491329 0.859600 0.150254
H33   H     H_    0.584495 0.000523 0.772677 0.215382
H34   H     H_    0.084495 0.500522 0.772677 0.215381
C89   C     C_3   0.386416 0.738849 0.768295 -0.881750
H35   H     H_    0.441231 0.748511 0.758248 0.230656
H36   H     H_    0.376628 0.776438 0.834596 0.247897
H37   H     H_    0.382327 0.678408 0.789493 0.251668
C90   C     C_3   0.197783 0.053974 0.625939 -0.888370
H38   H     H_    0.214068 0.001978 0.587026 0.241162
H39   H     H_    0.214335 0.046621 0.712892 0.234478
H40   H     H_    0.140598 0.056493 0.606234 0.262078
C91   C     C_3   0.886416 0.238850 0.768296 -0.881748
H41   H     H_    0.941230 0.248512 0.758248 0.230659
H42   H     H_    0.876627 0.276439 0.834597 0.247896
H43   H     H_    0.882326 0.178409 0.789493 0.251669
C92   C     C_3   0.697777 0.553961 0.625912 -0.888368
H44   H     H_    0.714069 0.501968 0.587002 0.241162
H45   H     H_    0.714322 0.546607 0.712866 0.234480
H46   H     H_    0.640593 0.556476 0.606194 0.262080
C93   C     C_3   0.751381 0.220677 0.851359 -0.909400
H47   H     H_    0.766027 0.280795 0.866316 0.245797
H48   H     H_    0.707800 0.209722 0.896478 0.242357
H49   H     H_    0.793770 0.182220 0.884655 0.248477
C94   C     C_3   0.652064 0.669219 0.775835 -0.904745
H50   H     H_    0.616466 0.621410 0.751646 0.251511
H51   H     H_    0.703008 0.649188 0.816643 0.247474
H52   H     H_    0.628876 0.702316 0.836330 0.238797
C95   C     C_3   0.251382 0.720676 0.851359 -0.909400
H53   H     H_    0.266028 0.780794 0.866316 0.245797
H54   H     H_    0.207801 0.709721 0.896478 0.242357
H55   H     H_    0.293771 0.682219 0.884655 0.248477
C96   C     C_3   0.152098 0.169244 0.775868 -0.904764
H56   H     H_    0.116498 0.121435 0.751702 0.251512
H57   H     H_    0.203047 0.149214 0.816658 0.247481
H58   H     H_    0.128922 0.202348 0.836371 0.238803
Cl1   Cl    Cl    0.622393 0.315518 0.348681 -0.652052
Cl2   Cl    Cl    0.815229 0.905885 0.484200 -0.663895
Cl3   Cl    Cl    0.122393 0.815518 0.348681 -0.652054
Cl4   Cl    Cl    0.315225 0.405887 0.484172 -0.663903
C97   C     C_3   0.677135 0.020051 0.320792 -0.747714
H59   H     H_    0.673453 0.982994 0.389054 0.275176
H60   H     H_    0.729484 0.010356 0.299310 0.223685
H61   H     H_    0.675385 0.080117 0.344289 0.230798
C98   C     C_3   0.177135 0.520051 0.320792 -0.747705
H62   H     H_    0.173453 0.482995 0.389054 0.275179
H63   H     H_    0.229484 0.510357 0.299310 0.223693
H64   H     H_    0.175384 0.580118 0.344288 0.230796

loop_
_geom_bond_atom_site_label_1
_geom_bond_atom_site_label_2
_geom_bond_distance
_ccdc_geom_bond_type
C52   H20   1.084055 S    
C20   C24   1.385025 A    
C95   H53   1.109648 S    
C2    C61   1.455148 S    
C10   C58   1.402131 A    
C31   C35   1.403483 A    
C84   H34   1.065543 S    
C16   C60   1.395162 A    
C89   H35   1.111245 S    
O10   C6    1.317278 A    
C48   C52   1.396949 A    
C28   Cl2   1.769229 S    
C36   C64   1.405595 A    
C23   H15   1.083141 S    
H2    C58   1.084248 S    
C96   H57   1.109845 S    
C39   C55   1.383765 A    
C54   H6    1.078368 S    
O7    C3    1.314152 A    
C95   H54   1.111391 S    
C53   H5    1.077372 S    
C26   C30   1.432959 A    
C48   C92   1.510977 S    
C11   C95   1.508840 S    
Zn1   O10   1.950736 S    
C20   H12   1.083705 S    
C29   C33   1.403483 A    
C40   C44   1.428998 A    
C65   C87   1.383320 A    
C89   H36   1.107305 S    
C10   C94   1.508681 S    
C97   H60   1.111212 S    
C66   H24   1.085613 S    
C1    C62   1.452254 S    
C77   C79   1.419701 A    
Zn3   N3    2.057336 S    
Zn2   N2    2.069857 S    
C86   H26   1.076584 S    
C11   C59   1.400406 A    
C78   C86   1.405542 A    
C27   C31   1.432183 A    
C18   C22   1.385023 A    
C90   H40   1.109507 S    
C33   C49   1.408114 A    
O2    Zn1   1.973943 S    
C9    C93   1.508840 S    
C98   H64   1.104779 S    
O13   C5    1.307181 A    
O6    Zn3   1.950616 S    
C70   H32   1.082105 S    
C87   C97   1.503871 S    
Zn3   O14   1.973921 S    
C17   H9    1.083715 S    
C93   H47   1.109649 S    
C37   C53   1.383764 A    
C69   C71   1.390707 A    
C46   C50   1.396949 A    
C19   H11   1.083714 S    
C90   H38   1.111309 S    
C67   H27   1.080703 S    
C45   C49   1.395366 A    
C18   C62   1.398419 A    
O15   C7    1.307181 A    
O4    C4    1.310481 A    
O11   C7    1.315635 A    
C7    C16   1.448785 S    
C55   H7    1.077372 S    
C12   C44   1.431282 A    
C49   H17   1.083904 S    
C22   H14   1.083191 S    
O8    Zn4   1.950616 S    
C68   N4    1.357942 A    
C14   C58   1.395160 A    
C91   H43   1.109173 S    
C51   H19   1.083904 S    
C40   C56   1.381334 A    
C13   C57   1.395212 A    
C26   Cl4   1.769226 S    
C27   Cl1   1.769282 S    
C34   C62   1.405593 A    
C95   H55   1.107205 S    
C74   C76   1.416176 A    
C96   H58   1.111404 S    
C69   H31   1.082107 S    
C73   C75   1.416176 A    
C12   C60   1.402123 A    
C12   C96   1.508635 S    
C42   C48   1.420790 A    
C98   H63   1.111212 S    
C38   C42   1.429007 A    
Zn2   O12   1.950736 S    
C24   H16   1.083191 S    
O1    C1    1.308604 A    
C35   C63   1.407015 A    
C94   H51   1.109858 S    
C97   H61   1.104780 S    
C75   C83   1.395428 A    
C94   H50   1.107561 S    
H3    C59   1.083900 S    
Zn2   O11   1.956977 S    
N1    C87   1.375432 A    
C23   C27   1.394534 A    
C14   C54   1.378269 A    
C8    C15   1.449282 S    
C41   C47   1.420764 A    
C13   C53   1.377887 A    
C36   C52   1.408465 A    
C75   N3    1.352272 A    
C32   C36   1.403167 A    
C43   C45   1.420766 A    
C15   C55   1.377886 A    
C56   H8    1.078367 S    
C71   H29   1.077581 S    
C97   H59   1.096053 S    
C81   C83   1.373024 A    
C39   C43   1.430980 A    
O5    C1    1.314154 A    
C85   H25   1.076582 S    
C37   C41   1.430979 A    
C5    C14   1.448786 S    
C66   C88   1.383319 A    
C92   H44   1.111297 S    
C21   C25   1.394533 A    
C3    C64   1.452253 S    
O8    C4    1.313703 A    
C47   C91   1.511257 S    
C93   H49   1.107205 S    
C16   C56   1.378273 A    
C92   H46   1.109494 S    
H22   C82   1.084857 S    
C91   H42   1.107305 S    
C76   N4    1.352271 A    
C66   C80   1.381387 A    
C10   C42   1.431295 A    
O3    Zn2   1.977477 S    
C9    C41   1.430192 A    
C94   H52   1.111389 S    
N1    C85   1.351125 A    
O7    Zn4   1.956854 S    
H1    C57   1.083899 S    
C9    C57   1.400406 A    
Zn4   O15   1.977457 S    
C68   H28   1.080702 S    
C67   N3    1.357943 A    
C45   C89   1.511257 S    
C25   Cl3   1.769282 S    
O1    Zn1   1.977477 S    
O2    C2    1.310480 A    
O12   C8    1.317278 A    
C35   C51   1.408115 A    
C89   H37   1.109174 S    
C34   C50   1.408470 A    
C78   C80   1.419699 A    
C30   C34   1.403170 A    
C65   H23   1.085614 S    
C80   C82   1.387078 A    
C4    C63   1.455150 S    
C77   C85   1.405543 A    
N2    C86   1.351125 A    
C18   H10   1.083703 S    
C83   H33   1.065543 S    
C88   C98   1.503870 S    
C38   C54   1.381338 A    
C46   C90   1.510974 S    
O16   C8    1.305815 A    
N2    C88   1.375430 A    
C72   H30   1.077580 S    
C82   C84   1.373024 A    
O6    C2    1.313704 A    
C68   C70   1.388302 A    
C6    C13   1.449283 S    
C73   C77   1.414754 A    
C76   C84   1.395427 A    
C17   C61   1.398314 A    
C22   C26   1.393793 A    
C65   C79   1.381387 A    
C50   H18   1.084053 S    
O9    C5    1.315634 A    
C71   C73   1.413477 A    
C92   H45   1.105934 S    
C19   C63   1.398314 A    
C98   H62   1.096052 S    
Zn1   N1    2.069857 S    
C96   H56   1.107537 S    
C21   H13   1.083141 S    
C47   C51   1.395365 A    
C29   C39   1.411946 A    
Zn3   O13   1.977457 S    
C30   C40   1.410975 A    
H4    C60   1.084246 S    
C25   C29   1.432184 A    
C31   C37   1.411945 A    
C70   C72   1.390706 A    
C32   C38   1.410980 A    
C90   H39   1.105941 S    
O4    Zn2   1.973943 S    
C72   C74   1.413477 A    
O5    Zn3   1.956854 S    
O3    C3    1.308606 A    
C11   C43   1.430191 A    
C15   C59   1.395211 A    
Zn1   O9    1.956977 S    
C28   C32   1.432962 A    
C24   C28   1.393794 A    
Zn4   O16   1.973921 S    
O14   C6    1.305814 A    
C91   H41   1.111245 S    
C79   C81   1.387077 A    
C44   C46   1.420778 A    
C17   C21   1.385839 A    
C93   H48   1.111391 S    
H21   C81   1.084857 S    
C20   C64   1.398417 A    
C19   C23   1.385839 A    
C33   C61   1.407016 A    
C74   C78   1.414755 A    
C67   C69   1.388301 A    
Zn4   N4    2.057336 S    
