data_mof_unit_51363.cif
_audit_creation_date              2012-10-26T19:40:40-0400
_audit_creation_method            fapswitch 2.2
_symmetry_space_group_name_H-M    P1
_symmetry_Int_Tables_number       1
_space_group_crystal_system       triclinic
_cell_length_a                    9.68218
_cell_length_b                    10.921346
_cell_length_c                    13.431852
_cell_angle_alpha                 90.124306
_cell_angle_beta                  72.391229
_cell_angle_gamma                 90.067744
_cell_volume                      1353.7635439

loop_
_atom_site_label
_atom_site_type_symbol
_atom_type_description
_atom_site_fract_x
_atom_site_fract_y
_atom_site_fract_z
_atom_type_partial_charge
C1    C     C_R   0.501336 0.734648 0.496960 0.565956
C2    C     C_R   0.375491 0.487610 0.815210 0.003944
C3    C     C_2   0.609247 0.066960 0.495797 -0.161359
C4    C     C_R   0.422466 0.493448 0.700153 0.538227
C5    C     C_2   0.487652 0.135037 0.529984 0.039015
C6    C     C_2   0.611048 0.933436 0.503338 -0.124030
C7    C     C_2   0.503678 0.866469 0.487881 -0.079033
C8    C     C_2   0.049768 0.561082 0.567447 0.012407
C9    C     C_2   0.895164 0.564998 0.564761 0.000108
C10   C     C_R   0.497210 0.265388 0.506315 0.537163
C11   C     C_R   0.577696 0.497890 0.299895 0.544264
C12   C     C_R   0.436831 0.480057 0.979081 0.033224
C13   C     C_R   0.785045 0.393537 0.029430 -0.116602
C14   C     C_R   0.622335 0.480870 0.186453 0.001771
C15   C     C_R   0.236782 0.530774 0.869604 -0.099062
C16   C     C_R   0.195374 0.543676 0.977276 -0.127074
C17   C     C_R   0.294282 0.521203 0.031584 -0.110974
C18   C     C_2   0.348747 0.088041 0.602744 0.553534
C19   C     C_2   0.845920 0.313593 0.809800 0.558993
C20   C     C_R   0.471490 0.451333 0.871614 0.000503
C21   C     C_R   0.544971 0.464942 0.030071 0.013604
C22   C     C_R   0.681265 0.410816 0.976060 0.027873
C23   C     C_R   0.707175 0.370154 0.872166 0.045791
C24   C     C_R   0.600182 0.386471 0.823422 -0.118733
C25   C     C_R   0.521471 0.503671 0.133587 -0.120971
C26   C     C_R   0.755512 0.427942 0.133577 -0.147297
Cu1   Cu    Cu3+1 0.361370 0.499980 0.499980 0.986094
Cu2   Cu    Cu3+1 0.638630 0.500020 0.500020 0.948276
H1    H     H_    0.834449 0.408334 0.173847 0.128905
H2    H     H_    0.160911 0.557389 0.828620 0.166629
H3    H     H_    0.254148 0.534242 0.114884 0.103144
H4    H     H_    0.087221 0.575321 0.018677 0.128561
H5    H     H_    0.619351 0.346828 0.746648 0.175550
H6    H     H_    0.712127 0.109962 0.455243 0.142037
H7    H     H_    0.130241 0.095537 0.651275 0.358110
H8    H     H_    0.064301 0.323216 0.758565 0.362293
H9    H     H_    0.705404 0.890359 0.515983 0.156851
H10   H     H_    0.414172 0.909471 0.468317 0.122554
H11   H     H_    0.075742 0.613054 0.628341 0.149208
H12   H     H_    0.130646 0.455286 0.441062 0.209220
H13   H     H_    0.820459 0.624305 0.620630 0.147873
H14   H     H_    0.914563 0.441234 0.450881 0.208348
H15   H     H_    0.887333 0.348658 0.993285 0.168752
H16   H     H_    0.424236 0.551405 0.176019 0.120345
N1    N     N_2   0.152660 0.501340 0.501130 -0.337746
N2    N     N_2   0.846520 0.501370 0.501160 -0.346915
O1    O     O_R   0.382960 0.678040 0.499980 -0.491183
O2    O     O_R   0.216300 0.133326 0.597085 -0.674965
O3    O     O_2   0.844402 0.221394 0.758286 -0.509584
O4    O     O_R   0.977843 0.369080 0.805364 -0.729376
O5    O     O_R   0.617100 0.678080 0.500020 -0.494646
O6    O     O_R   0.325800 0.499940 0.650950 -0.491615
O7    O     O_R   0.559930 0.499980 0.650990 -0.505881
O8    O     O_R   0.382900 0.321920 0.499980 -0.444615
O9    O     O_R   0.617040 0.321960 0.500020 -0.511245
O10   O     O_R   0.440070 0.500020 0.349010 -0.508578
O11   O     O_R   0.674200 0.500060 0.349050 -0.500726
O12   O     O_2   0.350399 0.012642 0.669612 -0.506918

loop_
_geom_bond_atom_site_label_1
_geom_bond_atom_site_label_2
_ccdc_geom_bond_type
C12   C17   A    
C8    C9    S    
C19   C23   S    
Cu2   O7    S    
C6    C7    D    
C10   O9    A    
C8    H11   S    
C4    O7    A    
C16   H4    S    
C19   O3    D    
C2    C4    S    
C24   H5    S    
C13   H15   S    
C23   C24   A    
C3    C6    S    
C12   C20   A    
Cu1   O8    S    
C5    C10   S    
C11   O11   A    
C21   C22   A    
C14   C26   A    
C2    C15   A    
C1    O5    A    
C19   O4    S    
Cu2   N2    S    
C4    O6    A    
C10   O8    A    
H7    O2    S    
C25   H16   S    
C11   C14   S    
C7    H10   S    
C18   O12   D    
C13   C22   A    
C22   C23   A    
C14   C25   A    
H14   N2    S    
H12   N1    S    
C17   H3    S    
Cu2   O5    S    
C13   C26   A    
C6    H9    S    
Cu1   N1    S    
C2    C20   A    
C15   C16   A    
C20   C24   A    
C9    N2    D    
H8    O4    S    
Cu1   O6    S    
Cu2   O11   S    
C26   H1    S    
C15   H2    S    
Cu1   O1    S    
Cu1   Cu2   S    
C21   C25   A    
Cu1   O10   S    
C1    O1    A    
C5    C18   S    
C3    H6    S    
C1    C7    S    
C9    H13   S    
C12   C21   A    
Cu2   O9    S    
C11   O10   A    
C8    N1    D    
C16   C17   A    
C3    C5    D    
C18   O2    S    
