data_mof_unit_37206.cif
_audit_creation_date              2012-12-11T15:29:42-0500
_audit_creation_method            fapswitch 2.2
_symmetry_space_group_name_H-M    P1
_symmetry_Int_Tables_number       1
_space_group_crystal_system       triclinic
_cell_length_a                    21.409107
_cell_length_b                    7.246353
_cell_length_c                    14.762341
_cell_angle_alpha                 90.270788
_cell_angle_beta                  74.409949
_cell_angle_gamma                 89.936467
_cell_volume                      2205.909754

loop_
_atom_site_label
_atom_site_type_symbol
_atom_type_description
_atom_site_fract_x
_atom_site_fract_y
_atom_site_fract_z
_atom_type_partial_charge
O1    O     O_R   0.464160 0.506670 0.130070 -0.534038
O2    O     O_R   0.535840 0.006670 0.869930 -0.535030
O3    O     O_R   0.589710 0.179080 0.006710 -0.545542
O4    O     O_R   0.410290 0.679080 0.993290 -0.544983
C1    C     C_R   0.616344 0.344048 0.001941 0.665535
C2    C     C_R   0.383637 0.844170 0.998123 0.666058
O5    O     O_R   0.467940 0.177220 0.138010 -0.536095
O6    O     O_R   0.532060 0.677220 0.861990 -0.535369
O7    O     O_R   0.413200 0.002810 0.002170 -0.540882
O8    O     O_R   0.586800 0.502810 0.997830 -0.540193
C3    C     C_R   0.456162 0.346053 0.174343 0.684593
C4    C     C_R   0.543877 0.844903 0.825596 0.684511
O9    O     O_3   0.482180 0.337850 0.955280 -0.374884
O10   O     O_3   0.517820 0.837850 0.044720 -0.374375
V1    V     V_3+5 0.503310 0.064600 0.008300 1.424431
V2    V     V_3+5 0.496690 0.564600 0.991700 1.429135
C5    C     C_R   0.571835 0.849512 0.723922 -0.035618
C6    C     C_R   0.428108 0.356926 0.275860 -0.034204
C7    C     C_R   0.928756 0.866502 0.276358 -0.075021
C8    C     C_R   0.071270 0.361975 0.723764 -0.074530
C9    C     C_R   0.559782 0.818483 0.566875 -0.083193
C10   C     C_R   0.439829 0.411808 0.431557 -0.082331
C11   C     C_R   0.532309 0.826539 0.663566 -0.160447
C12   C     C_R   0.467404 0.393511 0.335240 -0.161077
C13   C     C_R   0.639047 0.862932 0.687851 -0.173134
C14   C     C_R   0.361072 0.339550 0.312431 -0.171396
C15   C     C_R   0.668651 0.850083 0.589901 0.010052
C16   C     C_R   0.331363 0.361069 0.409932 0.009752
C17   C     C_R   0.627417 0.829381 0.529420 -0.001589
C18   C     C_R   0.372344 0.396492 0.469496 -0.001511
C19   C     C_R   0.737493 0.855312 0.550370 0.063024
C20   C     C_R   0.262642 0.350439 0.449829 0.064056
C21   C     C_R   0.763845 0.846094 0.450589 -0.005659
C22   C     C_R   0.236160 0.371630 0.549126 -0.006227
C23   C     C_R   0.720561 0.825820 0.393770 -0.269382
C24   C     C_R   0.279217 0.405982 0.605062 -0.267860
C25   C     C_R   0.653975 0.817400 0.432318 0.584950
C26   C     C_R   0.345677 0.418198 0.566130 0.585244
C27   C     C_R   0.780864 0.866678 0.607359 -0.191304
C28   C     C_R   0.219495 0.321545 0.393612 -0.188790
C29   C     C_R   0.847439 0.871298 0.568729 -0.164201
C30   C     C_R   0.152985 0.313951 0.432454 -0.163109
C31   C     C_R   0.874277 0.867066 0.471450 0.095288
C32   C     C_R   0.126000 0.332496 0.529280 0.097903
C33   C     C_R   0.832669 0.855572 0.410921 0.062381
C34   C     C_R   0.167422 0.359732 0.589144 0.061639
C35   C     C_R   0.942379 0.875231 0.434173 0.374875
C36   C     C_R   0.057934 0.323259 0.566801 0.375047
C37   C     C_R   0.968995 0.875744 0.336287 -0.237609
C38   C     C_R   0.031176 0.337930 0.664405 -0.242063
C39   C     C_R   0.861668 0.856129 0.312789 -0.226336
C40   C     C_R   0.138308 0.372869 0.687031 -0.224996
H1    H     H_    0.833809 0.852765 0.261990 0.101492
H2    H     H_    0.166014 0.388829 0.737559 0.101076
H3    H     H_    0.021047 0.883971 0.306676 0.127709
H4    H     H_    0.979147 0.329786 0.694270 0.130174
H5    H     H_    0.878048 0.879571 0.616343 0.173319
H6    H     H_    0.122545 0.292344 0.385391 0.168271
H7    H     H_    0.527930 0.801136 0.521510 0.181218
H8    H     H_    0.471476 0.439921 0.476212 0.180617
H9    H     H_    0.480239 0.813891 0.691416 0.136316
H10   H     H_    0.519355 0.408494 0.306923 0.133177
H11   H     H_    0.666463 0.880496 0.738666 0.086579
H12   H     H_    0.333887 0.311366 0.262271 0.085683
H13   H     H_    0.736407 0.812763 0.318448 0.150549
H14   H     H_    0.263292 0.427044 0.679910 0.149758
H15   H     H_    0.765230 0.870191 0.682957 0.118814
H16   H     H_    0.235219 0.305657 0.318407 0.115669
C41   C     C_3   0.212338 0.659337 0.996488 -0.292551
C42   C     C_3   0.787634 0.159613 0.004507 -0.291963
H17   H     H_    0.183594 0.578957 0.057579 0.175596
H18   H     H_    0.816416 0.076960 0.943803 0.174887
H19   H     H_    0.206167 0.590960 0.931745 0.126647
H20   H     H_    0.793774 0.093696 0.069567 0.127182
C43   C     C_3   0.284627 0.653050 0.995130 -0.317237
C44   C     C_3   0.715365 0.153141 0.005771 -0.318827
H21   H     H_    0.312454 0.580948 0.929971 0.156511
H22   H     H_    0.687507 0.083252 0.071150 0.153763
H23   H     H_    0.290033 0.570507 0.056016 0.141457
H24   H     H_    0.710042 0.068492 0.945148 0.140918
H25   H     H_    0.277174 0.867542 0.152972 0.153114
H26   H     H_    0.722809 0.362072 0.847113 0.152441
C45   C     C_3   0.198077 0.954259 0.092182 0.224707
C46   C     C_3   0.801899 0.450938 0.907569 0.223734
C47   C     C_3   0.229685 0.965666 0.915229 -0.413904
C48   C     C_3   0.770245 0.468943 0.084458 -0.415621
C49   C     C_3   0.187155 0.861822 0.002022 0.104371
C50   C     C_3   0.812809 0.361972 0.998123 0.104208
H27   H     H_    0.213612 0.111953 0.916171 0.144652
H28   H     H_    0.786242 0.615267 0.082850 0.143958
H29   H     H_    0.223614 0.901875 0.849403 0.156840
H30   H     H_    0.776364 0.407776 0.150561 0.156344
C51   C     C_3   0.312248 0.850787 0.999395 0.073205
C52   C     C_3   0.687719 0.350614 0.000741 0.068817
C53   C     C_3   0.271181 0.944918 0.090866 -0.352054
C54   C     C_3   0.728791 0.441593 0.908935 -0.349829
C55   C     C_3   0.302475 0.960362 0.914145 -0.327247
C56   C     C_3   0.697448 0.463267 0.085593 -0.319963
H31   H     H_    0.331265 0.895456 0.847485 0.155716
H32   H     H_    0.668710 0.400610 0.152497 0.155319
H33   H     H_    0.320521 0.103980 0.915787 0.156343
H34   H     H_    0.679311 0.606735 0.083455 0.159428
H35   H     H_    0.183392 0.102344 0.093308 0.070752
H36   H     H_    0.816610 0.598958 0.905752 0.071152
H37   H     H_    0.289250 0.087341 0.096463 0.106336
H38   H     H_    0.710705 0.583810 0.902830 0.107823
O11   O     O_R   0.913210 0.208550 0.002110 -0.539847
O12   O     O_R   0.086790 0.708550 0.997890 -0.540143
O13   O     O_R   0.032060 0.539960 0.861980 -0.538582
O14   O     O_R   0.967940 0.039960 0.138020 -0.539097
C57   C     C_R   0.043655 0.372052 0.825438 0.726843
C58   C     C_R   0.956290 0.873010 0.174604 0.727183
O15   O     O_R   0.910290 0.538020 0.993280 -0.551371
O16   O     O_R   0.089710 0.038020 0.006720 -0.551077
O17   O     O_R   0.964160 0.712340 0.130090 -0.534678
O18   O     O_R   0.035840 0.212340 0.869910 -0.535033
C59   C     C_R   0.884036 0.369835 0.997868 0.685727
C60   C     C_R   0.115949 0.869707 0.002215 0.685906
O19   O     O_3   0.017820 0.379210 0.044690 -0.378837
O20   O     O_3   0.982180 0.879210 0.955310 -0.378937
V3    V     V_3+5 0.996690 0.652500 0.991710 1.421469
V4    V     V_3+5 0.003310 0.152500 0.008290 1.421942
F1    F     F_    0.615244 0.796249 0.373602 -0.703944
F2    F     F_    0.384163 0.452910 0.623969 -0.705120
O21   O     O_3   0.981856 0.883394 0.494432 -0.642789
H39   H     H_    0.027837 0.888783 0.456991 0.305862
O22   O     O_3   0.018625 0.299743 0.507064 -0.643376
H40   H     H_    0.972650 0.295872 0.544624 0.305952
O23   O     O_3   0.159703 0.867100 0.172938 -0.659453
H41   H     H_    0.158579 0.950640 0.226875 0.278567
O24   O     O_3   0.840261 0.360621 0.827243 -0.661300
H42   H     H_    0.841429 0.442070 0.772910 0.281190

loop_
_geom_bond_atom_site_label_1
_geom_bond_atom_site_label_2
_ccdc_geom_bond_type
C45   C49   S    
C3    C6    S    
O17   V3    S    
C51   C55   S    
C15   C17   A    
C21   C33   A    
O1    C3    A    
O12   V3    S    
O2    C4    A    
C30   H6    S    
C2    O7    A    
C1    C52   S    
C47   H29   S    
C27   C29   A    
C52   C56   S    
C7    C58   S    
O5    C3    A    
C5    C11   A    
O18   V4    S    
C6    C12   A    
C23   C25   A    
C44   H22   S    
C9    H7    S    
O13   C57   A    
C10   H8    S    
H25   C53   S    
C48   C50   S    
C33   C39   A    
C34   C40   A    
C18   C26   A    
C13   H11   S    
C41   H17   S    
C14   H12   S    
C8    C38   A    
C53   H37   S    
C44   C52   S    
C25   F1    S    
C32   C34   A    
C16   C18   A    
C6    C14   A    
C4    C5    S    
C42   H20   S    
C19   C21   A    
C41   H19   S    
C57   O18   A    
C22   C34   A    
C22   C24   A    
C41   C49   S    
C36   C38   A    
C42   C50   S    
O6    V2    S    
C29   C31   A    
C30   C32   A    
C26   F2    S    
C55   H31   S    
C40   H2    S    
C35   O21   S    
C47   C49   S    
H26   C54   S    
C15   C19   A    
O12   C60   A    
C16   C20   A    
C49   C60   S    
C35   C37   A    
C48   H28   S    
O8    V2    S    
C47   H27   S    
C37   H3    S    
C9    C17   A    
C38   H4    S    
C39   H1    S    
C20   C22   A    
O4    V2    S    
C8    C57   S    
C43   H21   S    
C7    C37   A    
O6    C4    A    
C2    C51   S    
C45   C53   S    
O1    V2    S    
C52   C54   S    
O2    V1    S    
C31   C33   A    
O16   C60   A    
C45   H35   S    
O15   C59   A    
O4    C2    A    
C56   H32   S    
C9    C11   A    
C42   C44   S    
O21   H39   S    
C46   H36   S    
C10   C12   A    
O22   H40   S    
C46   C54   S    
O3    V1    S    
O20   V3    S    
C43   C51   S    
O23   H41   S    
O19   V4    S    
C54   H38   S    
C12   H10   S    
C10   C18   A    
C27   H15   S    
C44   H24   S    
C28   C30   A    
O3    C1    A    
C42   H18   S    
C45   O23   S    
C13   C15   A    
C46   O24   S    
C14   C16   A    
C5    C13   A    
C24   C26   A    
O7    V1    S    
C29   H5    S    
C1    O8    A    
C8    C40   A    
C32   C36   A    
C56   H34   S    
O14   V4    S    
C36   O22   S    
O13   V3    S    
C46   C50   S    
C31   C35   A    
O5    V1    S    
C21   C23   A    
C19   C27   A    
C41   C43   S    
C24   H14   S    
C20   C28   A    
C48   C56   S    
O14   C58   A    
C47   C55   S    
O16   V4    S    
C7    C39   A    
C11   H9    S    
O15   V3    S    
C51   C53   S    
C28   H16   S    
O9    V2    S    
C17   C25   A    
C23   H13   S    
O10   V1    S    
C48   H30   S    
O11   V4    S    
C50   C59   S    
C43   H23   S    
O11   C59   A    
C58   O17   A    
C55   H33   S    
O24   H42   S    
