data_mof_unit_19971.cif
_audit_creation_date              2012-12-11T15:46:41-0500
_audit_creation_method            fapswitch 2.2
_symmetry_space_group_name_H-M    P1
_symmetry_Int_Tables_number       1
_space_group_crystal_system       triclinic
_cell_length_a                    11.577975
_cell_length_b                    11.658719
_cell_length_c                    19.394448
_cell_angle_alpha                 90.7514
_cell_angle_beta                  89.761488
_cell_angle_gamma                 59.847525
_cell_volume                      2263.34761328

loop_
_atom_site_label
_atom_site_type_symbol
_atom_type_description
_atom_site_fract_x
_atom_site_fract_y
_atom_site_fract_z
_atom_type_partial_charge
Br1   Br    Br    0.330557 0.320691 0.177544 -0.472359
Br2   Br    Br    0.806823 0.808963 0.149708 -0.552053
Br3   Br    Br    0.365268 0.603546 0.157383 -0.505239
C1    C     C_R   0.640674 0.117719 0.598819 0.547431
C2    C     C_1   0.652851 0.150657 0.668260 0.007269
C3    C     C_R   0.625101 0.718349 0.177853 0.053217
C4    C     C_R   0.612629 0.745740 0.598260 0.556514
C5    C     C_R   0.509918 0.743174 0.215042 0.029434
C6    C     C_R   0.519795 0.734837 0.284883 -0.026593
C7    C     C_R   0.694980 0.786351 0.280831 -0.144091
C8    C     C_R   0.704762 0.762846 0.208632 0.107813
C9    C     C_3   0.392754 0.718969 0.219365 0.023348
C10   C     C_3   0.421227 0.689539 0.295619 -0.248424
C11   C     C_R   0.607345 0.762056 0.321031 -0.015475
C12   C     C_1   0.641508 0.703381 0.667605 0.005584
C13   C     C_R   0.133272 0.208771 0.193707 0.060464
C14   C     C_R   0.107074 0.314339 0.237865 0.025111
C15   C     C_R   0.132181 0.293253 0.307331 -0.020654
C16   C     C_R   0.240253 0.145854 0.597662 0.547995
C17   C     C_R   0.199184 0.063200 0.291147 -0.161651
C18   C     C_R   0.179975 0.083742 0.220276 -0.151362
C19   C     C_3   0.168304 0.400990 0.234508 0.145790
C20   C     C_3   0.194357 0.378569 0.310729 -0.206633
C21   C     C_R   0.180270 0.167500 0.335131 0.023654
C22   C     C_R   0.727136 0.229647 0.210254 0.019118
C23   C     C_1   0.128146 0.197906 0.859740 0.012439
C24   C     C_R   0.833750 0.139584 0.250872 0.013930
C25   C     C_R   0.813287 0.113154 0.318120 0.026740
C26   C     C_R   0.584950 0.285234 0.313020 -0.145096
C27   C     C_R   0.606711 0.312364 0.245428 -0.121734
C28   C     C_R   0.648179 0.115090 0.404246 0.539955
C29   C     C_3   0.937829 0.998188 0.238365 -0.258199
C30   C     C_3   0.920241 0.971824 0.312708 -0.273896
C31   C     C_R   0.684374 0.172893 0.346627 0.023248
C32   C     C_R   0.082599 0.230770 0.929122 0.552666
C33   C     C_R   0.683842 0.604712 0.929886 0.547869
C34   C     C_1   0.170577 0.170910 0.727534 -0.029539
C35   C     C_R   0.708228 0.206293 0.930602 0.566629
C36   C     C_R   0.082174 0.237712 0.124934 0.559138
C37   C     C_R   0.674741 0.623531 0.120340 0.568287
C38   C     C_R   0.742340 0.237579 0.134646 0.565271
C39   C     C_R   0.585758 0.794440 0.394454 0.568744
C40   C     C_R   0.244462 0.140295 0.401581 0.546227
C41   C     C_1   0.670545 0.646972 0.860516 0.013988
C42   C     C_1   0.655163 0.683373 0.728277 -0.029830
C43   C     C_1   0.663762 0.666946 0.799821 -0.026963
C44   C     C_3   0.068611 0.544981 0.216301 -0.190071
C45   C     C_1   0.150868 0.181762 0.799037 -0.027755
C46   C     C_3   0.101420 0.643751 0.251058 -0.410285
C47   C     C_1   0.193734 0.162147 0.666888 0.007283
C48   C     C_1   0.678476 0.190304 0.861271 0.011571
C49   C     C_1   0.658246 0.167879 0.728970 -0.028855
C50   C     C_1   0.665360 0.180512 0.800567 -0.027570
Cr1   Cr    Cr6+3 0.404720 0.198220 0.499960 1.018478
Cr2   Cr    Cr6+3 0.698290 0.897110 0.500380 1.024639
Cr3   Cr    Cr6+3 0.396970 0.904720 0.499610 1.020610
Cr4   Cr    Cr6+3 0.926290 0.152010 0.028150 1.061553
Cr5   Cr    Cr6+3 0.921440 0.451830 0.027490 1.077434
Cr6   Cr    Cr6+3 0.626370 0.446880 0.028730 1.116051
H1    H     H_    0.754240 0.822130 0.305075 0.141284
H2    H     H_    0.298415 0.812483 0.215932 0.121770
H3    H     H_    0.336872 0.753511 0.330883 0.123264
H4    H     H_    0.471677 0.582153 0.307042 0.151254
H5    H     H_    0.237351 0.965277 0.310832 0.118208
H6    H     H_    0.199335 0.004900 0.184497 0.125384
H7    H     H_    0.208457 0.596654 0.264561 0.196335
H8    H     H_    0.076991 0.727096 0.216215 0.196575
H9    H     H_    0.042609 0.682728 0.299579 0.114711
H10   H     H_    0.069385 0.554923 0.159448 0.239333
H11   H     H_    0.966264 0.570085 0.232361 0.150715
H12   H     H_    0.302663 0.322648 0.321768 0.177419
H13   H     H_    0.135098 0.465926 0.345306 0.121619
H14   H     H_    0.486435 0.344385 0.335702 0.129165
H15   H     H_    0.524964 0.388943 0.219032 0.221542
H16   H     H_    0.038103 0.980236 0.227418 0.131044
H17   H     H_    0.905062 0.949770 0.200897 0.221382
H18   H     H_    0.883355 0.902043 0.318490 0.156102
H19   H     H_    0.007406 0.950694 0.345215 0.134346
O1    O     O_R   0.267750 0.231960 0.575440 -0.501473
O2    O     O_R   0.596230 0.579400 0.952760 -0.496798
O3    O     O_R   0.639160 0.321170 0.958690 -0.480324
O4    O     O_R   0.527290 0.186640 0.570530 -0.491845
O5    O     O_R   0.821370 0.124220 0.104400 -0.477897
O6    O     O_R   0.037020 0.167050 0.097880 -0.530566
O7    O     O_R   0.056310 0.349620 0.102920 -0.489002
O8    O     O_R   0.797790 0.564880 0.097980 -0.481210
O9    O     O_R   0.596000 0.584270 0.104310 -0.474331
O10   O     O_R   0.638950 0.325690 0.099180 -0.435267
O11   O     O_3   0.824700 0.350240 0.028120 -0.312433
O12   O     O_R   0.685950 0.784660 0.430010 -0.503145
O13   O     O_R   0.728110 0.003450 0.576380 -0.504157
O14   O     O_R   0.682980 0.789190 0.570500 -0.488776
O15   O     O_R   0.499300 0.771880 0.575540 -0.500173
O16   O     O_R   0.285350 0.030870 0.569740 -0.493356
O17   O     O_R   0.270960 0.227070 0.423890 -0.526076
O18   O     O_R   0.530270 0.182120 0.430040 -0.509405
O19   O     O_R   0.731320 0.998570 0.424830 -0.529557
O20   O     O_R   0.502510 0.767000 0.423980 -0.513130
O21   O     O_R   0.288320 0.026340 0.429250 -0.521188
O22   O     O_3   0.499990 0.000020 0.499980 -0.273408
O23   O     O_R   0.821590 0.119350 0.952850 -0.488860
O24   O     O_R   0.037230 0.162540 0.957390 -0.494315
O25   O     O_R   0.056530 0.344750 0.951370 -0.489492
O26   O     O_R   0.798000 0.560370 0.957490 -0.486435

loop_
_geom_bond_atom_site_label_1
_geom_bond_atom_site_label_2
_ccdc_geom_bond_type
C13   C18   A    
C9    H2    S    
C46   H9    S    
Cr3   O20   S    
C32   O24   A    
C29   H16   S    
C44   C46   S    
C42   C43   S    
Cr3   O16   S    
Cr4   O24   S    
Cr2   O14   S    
Cr4   O11   S    
C15   C21   A    
C37   O9    A    
Cr3   O22   S    
C40   O21   A    
C36   O6    A    
Cr2   O12   S    
C32   O25   A    
C39   O20   A    
C27   H15   S    
C30   H19   S    
C26   H14   S    
C28   O18   A    
C38   O5    A    
Cr6   O11   S    
C37   O8    A    
C6    C10   S    
Cr6   O10   S    
C44   H10   S    
Cr2   O13   S    
Br3   C9    S    
C10   H3    S    
C17   C21   A    
C5    C6    A    
Cr2   O22   S    
C40   O17   A    
Cr4   O5    S    
C2    C49   T    
Cr1   O18   S    
C23   C45   T    
C11   C39   S    
C1    O13   A    
C4    C12   S    
C19   C44   S    
C25   C31   A    
Br1   C19   S    
Cr1   O22   S    
Br2   C8    S    
Cr5   O8    S    
C41   C43   T    
Cr3   O15   S    
C4    O15   A    
C28   C31   S    
C46   H7    S    
C15   C20   S    
C20   H12   S    
C33   O2    A    
C22   C38   S    
C3    C8    A    
C13   C14   A    
C3    C5    A    
C35   C48   S    
C26   C31   A    
C39   O12   A    
C17   H5    S    
C7    H1    S    
C6    C11   A    
C44   H11   S    
C26   C27   A    
C10   H4    S    
C5    C9    S    
Cr2   O19   S    
C14   C15   A    
Cr4   O6    S    
C35   O23   A    
C9    C10   S    
C34   C45   S    
C16   O1    A    
Cr1   O17   S    
C16   O16   A    
C25   C30   S    
C35   O3    A    
C7    C11   A    
C3    C37   S    
C33   C41   S    
Cr5   O26   S    
C36   O7    A    
Cr5   O7    S    
Cr1   O4    S    
C49   C50   S    
Cr1   O1    S    
C22   C27   A    
C38   O10   A    
C46   H8    S    
C18   H6    S    
C24   C29   S    
C20   H13   S    
Cr6   O3    S    
C1    C2    S    
Cr6   O2    S    
C29   H17   S    
C22   C24   A    
Cr4   O23   S    
C14   C19   S    
C33   O26   A    
C29   C30   S    
C34   C47   T    
C16   C47   S    
C30   H18   S    
C4    O14   A    
C28   O19   A    
Cr5   O11   S    
Cr6   O9    S    
C7    C8    A    
C13   C36   S    
C23   C32   S    
C1    O4    A    
C17   C18   A    
C24   C25   A    
C21   C40   S    
C12   C42   T    
C19   C20   S    
Cr5   O25   S    
Cr3   O21   S    
C48   C50   T    
