data_mof_unit_25388.cif
_audit_creation_date              2012-12-11T15:07:08-0500
_audit_creation_method            fapswitch 2.2
_symmetry_space_group_name_H-M    P1
_symmetry_Int_Tables_number       1
_space_group_crystal_system       triclinic
_cell_length_a                    19.81292
_cell_length_b                    11.387981
_cell_length_c                    18.710091
_cell_angle_alpha                 90.112014
_cell_angle_beta                  90.591153
_cell_angle_gamma                 89.992592
_cell_volume                      4221.30926424

loop_
_atom_site_label
_atom_site_type_symbol
_atom_type_description
_atom_site_fract_x
_atom_site_fract_y
_atom_site_fract_z
_atom_type_partial_charge
C1    C     C_R   0.760955 0.524027 0.639686 0.537520
C2    C     C_R   0.239417 0.525969 0.359769 0.529750
C3    C     C_R   0.260956 0.024028 0.639686 0.537514
C4    C     C_R   0.739417 0.025972 0.359768 0.529758
C5    C     C_3   0.807662 0.143540 0.448656 -0.234606
C6    C     C_3   0.193239 0.142587 0.551750 -0.249560
C7    C     C_3   0.307665 0.643530 0.448656 -0.234604
C8    C     C_3   0.693237 0.642582 0.551748 -0.249560
C9    C     C_3   0.748293 0.061846 0.435575 0.073731
C10   C     C_3   0.251809 0.058775 0.563960 0.049301
C11   C     C_3   0.248294 0.561840 0.435576 0.073723
C12   C     C_3   0.751809 0.558775 0.563960 0.049306
C13   C     C_3   0.761776 0.093832 0.573472 0.040840
C14   C     C_3   0.237768 0.095675 0.426640 0.027390
C15   C     C_3   0.261777 0.593831 0.573472 0.040838
C16   C     C_3   0.737769 0.595678 0.426640 0.027385
C17   C     C_3   0.764285 0.963623 0.559141 -0.283745
C18   C     C_3   0.237162 0.964788 0.439463 -0.265490
C19   C     C_3   0.264286 0.463620 0.559143 -0.283736
C20   C     C_3   0.737175 0.464794 0.439461 -0.265530
C21   C     C_3   0.820847 0.146058 0.529789 -0.205897
C22   C     C_3   0.178304 0.144866 0.471077 -0.213610
C23   C     C_3   0.320850 0.646054 0.529789 -0.205897
C24   C     C_3   0.678303 0.644860 0.471075 -0.213610
C25   C     C_3   0.004165 0.206305 0.459554 -0.225465
C26   C     C_3   0.998430 0.205643 0.541230 -0.225266
C27   C     C_3   0.504170 0.706309 0.459556 -0.225466
C28   C     C_3   0.498432 0.705643 0.541231 -0.225268
C29   C     C_3   0.067412 0.402557 0.479257 -0.186587
C30   C     C_3   0.935255 0.400665 0.522834 -0.193726
C31   C     C_3   0.567423 0.902554 0.479271 -0.186610
C32   C     C_3   0.435263 0.900671 0.522835 -0.193735
C33   C     C_3   0.948356 0.400537 0.441920 -0.029725
C34   C     C_3   0.054296 0.399892 0.560205 -0.026250
C35   C     C_3   0.448370 0.900548 0.441923 -0.029730
C36   C     C_3   0.554301 0.899887 0.560217 -0.026242
C37   C     C_3   0.014395 0.333971 0.432237 0.064495
C38   C     C_3   0.988431 0.332933 0.569264 0.061916
C39   C     C_3   0.514410 0.833974 0.432243 0.064488
C40   C     C_3   0.488434 0.832933 0.569267 0.061922
C41   C     C_3   0.819259 0.030871 0.048479 -0.230227
C42   C     C_3   0.187713 0.010063 0.955734 -0.224757
C43   C     C_3   0.319259 0.530871 0.048479 -0.230227
C44   C     C_3   0.687713 0.510063 0.955734 -0.224757
C45   C     C_R   0.774625 0.122103 0.649284 0.530039
C46   C     C_R   0.224801 0.123750 0.351164 0.533164
C47   C     C_R   0.274626 0.622103 0.649284 0.530039
C48   C     C_R   0.724801 0.623751 0.351164 0.533162
C49   C     C_3   0.822131 0.037801 0.968243 -0.226508
C50   C     C_3   0.184728 0.017116 0.035885 -0.234747
C51   C     C_3   0.322131 0.537801 0.968243 -0.226508
C52   C     C_3   0.684728 0.517116 0.035885 -0.234746
C53   C     C_3   0.693110 0.012572 0.030429 -0.221586
C54   C     C_3   0.317524 0.033665 0.970084 -0.214426
C55   C     C_3   0.193110 0.512572 0.030429 -0.221587
C56   C     C_3   0.817524 0.533665 0.970084 -0.214425
C57   C     C_3   0.744359 0.203506 0.061437 -0.253508
C58   C     C_3   0.244807 0.199080 0.938058 -0.259432
C59   C     C_3   0.244359 0.703506 0.061437 -0.253508
C60   C     C_3   0.744807 0.699080 0.938058 -0.259432
C61   C     C_3   0.749101 0.072344 0.075526 0.059849
C62   C     C_3   0.253173 0.067928 0.925995 0.063475
C63   C     C_3   0.249101 0.572344 0.075526 0.059849
C64   C     C_3   0.753173 0.567928 0.925995 0.063475
C65   C     C_3   0.760953 0.106481 0.936427 0.061572
C66   C     C_3   0.239816 0.102162 0.064746 0.059180
C67   C     C_3   0.260953 0.606481 0.936427 0.061572
C68   C     C_3   0.739816 0.602162 0.064746 0.059180
C69   C     C_3   0.699849 0.028028 0.948410 -0.258284
C70   C     C_3   0.307897 0.044201 0.051940 -0.251099
C71   C     C_3   0.199849 0.528028 0.948410 -0.258284
C72   C     C_3   0.807897 0.544201 0.051940 -0.251100
C73   C     C_3   0.745832 0.221668 0.979275 -0.216390
C74   C     C_3   0.238181 0.216705 0.019887 -0.227606
C75   C     C_3   0.245832 0.721668 0.979275 -0.216389
C76   C     C_3   0.738181 0.716705 0.019887 -0.227606
C77   C     C_3   0.995068 0.478552 0.042507 -0.233182
C78   C     C_3   0.991284 0.478693 0.961635 -0.227379
C79   C     C_3   0.495068 0.978552 0.042507 -0.233182
C80   C     C_3   0.491284 0.978693 0.961635 -0.227379
C81   C     C_3   0.067140 0.296934 0.027450 -0.221495
C82   C     C_3   0.937908 0.271060 0.972658 -0.211099
C83   C     C_3   0.567140 0.796934 0.027450 -0.221496
C84   C     C_3   0.437908 0.771060 0.972658 -0.211100
C85   C     C_3   0.945942 0.279333 0.054634 -0.256742
C86   C     C_3   0.057615 0.298988 0.945335 -0.263350
C87   C     C_3   0.445942 0.779333 0.054634 -0.256742
C88   C     C_3   0.557615 0.798988 0.945335 -0.263350
C89   C     C_R   0.966232 0.342266 0.644059 0.529783
C90   C     C_R   0.035781 0.342769 0.357092 0.534309
C91   C     C_R   0.466231 0.842266 0.644059 0.529786
C92   C     C_R   0.535805 0.842772 0.357102 0.534319
C93   C     C_3   0.008678 0.351997 0.070193 0.060967
C94   C     C_3   0.988166 0.351366 0.931212 0.064257
C95   C     C_3   0.508678 0.851997 0.070193 0.060966
C96   C     C_3   0.488167 0.851366 0.931212 0.064257
C97   C     C_R   0.761172 0.532203 0.849343 0.532850
C98   C     C_R   0.239934 0.535305 0.151984 0.530880
C99   C     C_R   0.261172 0.032203 0.849343 0.532849
C100  C     C_R   0.739934 0.035305 0.151984 0.530881
C101  C     C_R   0.774827 0.134063 0.859189 0.532983
C102  C     C_R   0.225708 0.132088 0.141570 0.532891
C103  C     C_R   0.274827 0.634063 0.859189 0.532983
C104  C     C_R   0.725708 0.632088 0.141570 0.532891
C105  C     C_R   0.967710 0.353376 0.854330 0.533969
C106  C     C_R   0.030483 0.353242 0.146801 0.534223
C107  C     C_R   0.467710 0.853376 0.854330 0.533968
C108  C     C_R   0.530483 0.853242 0.146801 0.534230
C109  C     C_3   0.685119 0.123578 0.466362 -0.017926
C110  C     C_3   0.315669 0.116085 0.532167 -0.024182
C111  C     C_3   0.185122 0.623574 0.466363 -0.017916
C112  C     C_3   0.815668 0.616092 0.532169 -0.024187
C113  C     C_3   0.692426 0.140177 0.547289 -0.184894
C114  C     C_3   0.305914 0.145762 0.453175 -0.215600
C115  C     C_3   0.192428 0.640175 0.547288 -0.184882
C116  C     C_3   0.805912 0.645775 0.453177 -0.215606
C117  C     C_3   0.763167 0.945894 0.477983 -0.239550
C118  C     C_3   0.235743 0.943800 0.520617 -0.230449
C119  C     C_3   0.263167 0.445887 0.477984 -0.239544
C120  C     C_3   0.735745 0.443801 0.520615 -0.230459
Cr1   Cr    Cr6+3 0.885690 0.492860 0.745310 1.012102
Cr2   Cr    Cr6+3 0.114310 0.492860 0.254690 0.985314
Cr3   Cr    Cr6+3 0.385690 0.992860 0.745310 1.012099
Cr4   Cr    Cr6+3 0.614310 0.992860 0.254690 0.985310
Cr5   Cr    Cr6+3 0.729880 0.332270 0.748190 0.989597
Cr6   Cr    Cr6+3 0.270120 0.332270 0.251810 0.989688
Cr7   Cr    Cr6+3 0.229880 0.832270 0.748190 0.989598
Cr8   Cr    Cr6+3 0.770120 0.832270 0.251810 0.989683
Cr9   Cr    Cr6+3 0.888120 0.178590 0.753010 0.993101
Cr10  Cr    Cr6+3 0.111880 0.178590 0.246990 0.989749
Cr11  Cr    Cr6+3 0.388120 0.678590 0.753010 0.993100
Cr12  Cr    Cr6+3 0.611880 0.678590 0.246990 0.989750
H1    H     H_    0.644733 0.066553 0.455252 0.151080
H2    H     H_    0.349914 0.047172 0.532441 0.170992
H3    H     H_    0.144733 0.566549 0.455255 0.151078
H4    H     H_    0.849914 0.547182 0.532441 0.170994
H5    H     H_    0.864852 0.088925 0.538851 0.124970
H6    H     H_    0.135484 0.084559 0.462840 0.126108
H7    H     H_    0.364853 0.588918 0.538852 0.124968
H8    H     H_    0.635485 0.584550 0.462835 0.126124
H9    H     H_    0.814888 0.917892 0.463328 0.130825
H10   H     H_    0.183947 0.914791 0.534264 0.149120
H11   H     H_    0.314886 0.417880 0.463328 0.130821
H12   H     H_    0.683947 0.414794 0.534253 0.149117
H13   H     H_    0.811862 0.928998 0.581947 0.131549
H14   H     H_    0.191268 0.929657 0.413505 0.174833
H15   H     H_    0.311864 0.428995 0.581948 0.131545
H16   H     H_    0.691298 0.429642 0.413489 0.174849
H17   H     H_    0.043485 0.147668 0.440965 0.120840
H18   H     H_    0.958570 0.147274 0.558933 0.121410
H19   H     H_    0.543485 0.647660 0.440967 0.120825
H20   H     H_    0.458569 0.647277 0.558931 0.121407
H21   H     H_    0.958233 0.165899 0.436826 0.123108
H22   H     H_    0.044068 0.164567 0.563917 0.124089
H23   H     H_    0.458233 0.665922 0.436823 0.123157
H24   H     H_    0.544067 0.664562 0.563920 0.124094
H25   H     H_    0.619542 0.884940 0.466476 0.118310
H26   H     H_    0.384012 0.876330 0.534591 0.116821
H27   H     H_    0.119529 0.384940 0.466456 0.118323
H28   H     H_    0.884004 0.376332 0.534597 0.116813
H29   H     H_    0.954884 0.494308 0.425507 0.135844
H30   H     H_    0.047251 0.492939 0.578046 0.137142
H31   H     H_    0.454903 0.994318 0.425511 0.135855
H32   H     H_    0.547257 0.992932 0.578059 0.137148
H33   H     H_    0.942990 0.493332 0.539281 0.106303
H34   H     H_    0.057202 0.494778 0.464932 0.080285
H35   H     H_    0.442996 0.993338 0.539285 0.106317
H36   H     H_    0.557212 0.994774 0.464948 0.080265
H37   H     H_    0.831888 0.939180 0.063007 0.138366
H38   H     H_    0.181636 0.918743 0.939820 0.139391
H39   H     H_    0.331887 0.439180 0.063007 0.138366
H40   H     H_    0.681636 0.418743 0.939820 0.139391
H41   H     H_    0.859277 0.085534 0.073261 0.115772
H42   H     H_    0.142615 0.054572 0.932314 0.116321
H43   H     H_    0.359277 0.585534 0.073261 0.115773
H44   H     H_    0.642615 0.554571 0.932314 0.116321
H45   H     H_    0.870460 0.074598 0.953565 0.134049
H46   H     H_    0.132733 0.043740 0.049616 0.133821
H47   H     H_    0.370460 0.574598 0.953565 0.134049
H48   H     H_    0.632733 0.543740 0.049616 0.133821
H49   H     H_    0.823055 0.947335 0.945550 0.116507
H50   H     H_    0.191942 0.929238 0.059774 0.118177
H51   H     H_    0.323055 0.447335 0.945550 0.116507
H52   H     H_    0.691942 0.429238 0.059774 0.118177
H53   H     H_    0.700425 0.922256 0.043364 0.108894
H54   H     H_    0.337239 0.947983 0.954758 0.108375
H55   H     H_    0.200425 0.422256 0.043364 0.108894
H56   H     H_    0.837239 0.447983 0.954758 0.108375
H57   H     H_    0.706550 0.941900 0.921564 0.106121
H58   H     H_    0.310169 0.956502 0.077536 0.102569
H59   H     H_    0.206550 0.441900 0.921564 0.106121
H60   H     H_    0.810168 0.456502 0.077536 0.102568
H61   H     H_    0.696441 0.237546 0.083885 0.115575
H62   H     H_    0.288799 0.248771 0.917444 0.113310
H63   H     H_    0.196441 0.737546 0.083885 0.115574
H64   H     H_    0.788799 0.748771 0.917444 0.113310
H65   H     H_    0.786764 0.250727 0.087942 0.102520
H66   H     H_    0.199392 0.232129 0.909089 0.104063
H67   H     H_    0.286764 0.750727 0.087942 0.102520
H68   H     H_    0.699392 0.732129 0.909089 0.104063
H69   H     H_    0.779440 0.293434 0.965067 0.107556
H70   H     H_    0.188582 0.248870 0.028129 0.109677
H71   H     H_    0.279440 0.793435 0.965067 0.107556
H72   H     H_    0.688582 0.748870 0.028129 0.109677
H73   H     H_    0.694070 0.247370 0.963592 0.119476
H74   H     H_    0.277288 0.278273 0.039385 0.125961
H75   H     H_    0.194070 0.747371 0.963592 0.119476
H76   H     H_    0.777288 0.778273 0.039385 0.125961
H77   H     H_    0.643021 0.043647 0.047624 0.127390
H78   H     H_    0.356034 0.099470 0.955999 0.119879
H79   H     H_    0.143021 0.543647 0.047624 0.127390
H80   H     H_    0.856034 0.599470 0.955999 0.119879
H81   H     H_    0.685895 0.233026 0.561785 0.160906
H82   H     H_    0.307821 0.239823 0.444220 0.143071
H83   H     H_    0.185897 0.733024 0.561783 0.160914
H84   H     H_    0.807815 0.739833 0.444224 0.143073
H85   H     H_    0.653381 0.068426 0.925495 0.111929
H86   H     H_    0.348264 0.099735 0.076029 0.116450
H87   H     H_    0.153381 0.568426 0.925495 0.111929
H88   H     H_    0.848264 0.599735 0.076029 0.116450
H89   H     H_    0.034434 0.542384 0.058840 0.134665
H90   H     H_    0.949284 0.532911 0.944056 0.134555
H91   H     H_    0.534434 0.042384 0.058840 0.134665
H92   H     H_    0.449284 0.032911 0.944056 0.134555
H93   H     H_    0.947478 0.511885 0.065225 0.116146
H94   H     H_    0.036341 0.524626 0.940270 0.114627
H95   H     H_    0.447478 0.011885 0.065225 0.116147
H96   H     H_    0.536341 0.024626 0.940270 0.114627
H97   H     H_    0.608341 0.852535 0.041540 0.109073
H98   H     H_    0.385593 0.783703 0.955490 0.109768
H99   H     H_    0.108341 0.352535 0.041539 0.109073
H100  H     H_    0.885593 0.283703 0.955490 0.109768
H101  H     H_    0.597482 0.852188 0.919599 0.105462
H102  H     H_    0.400760 0.820078 0.078893 0.102712
H103  H     H_    0.097482 0.352188 0.919599 0.105462
H104  H     H_    0.900760 0.320078 0.078893 0.102711
H105  H     H_    0.952633 0.190389 0.077913 0.115336
H106  H     H_    0.061263 0.208680 0.923028 0.110850
H107  H     H_    0.452633 0.690389 0.077913 0.115336
H108  H     H_    0.561263 0.708680 0.923028 0.110850
H109  H     H_    0.951967 0.180284 0.957940 0.124555
H110  H     H_    0.076387 0.205828 0.045197 0.132358
H111  H     H_    0.451966 0.680284 0.957940 0.124555
H112  H     H_    0.576387 0.705828 0.045197 0.132358
H113  H     H_    0.651287 0.093069 0.574910 0.093534
H114  H     H_    0.347961 0.108243 0.421402 0.103532
H115  H     H_    0.151289 0.593069 0.574910 0.093533
H116  H     H_    0.847961 0.608265 0.421404 0.103542
H117  H     H_    0.727668 0.876345 0.463335 0.115558
H118  H     H_    0.270899 0.873822 0.534850 0.121174
H119  H     H_    0.227665 0.376341 0.463338 0.115564
H120  H     H_    0.770896 0.373820 0.534851 0.121176
H121  H     H_    0.722980 0.918533 0.585336 0.145052
H122  H     H_    0.280240 0.922733 0.414483 0.152012
H123  H     H_    0.222984 0.418530 0.585341 0.145047
H124  H     H_    0.780262 0.422770 0.414493 0.152049
H125  H     H_    0.852612 0.110854 0.419929 0.115425
H126  H     H_    0.148614 0.111994 0.581667 0.126823
H127  H     H_    0.352616 0.610840 0.419930 0.115443
H128  H     H_    0.648612 0.611986 0.581664 0.126827
H129  H     H_    0.795442 0.231805 0.428714 0.187025
H130  H     H_    0.206895 0.230664 0.570650 0.157077
H131  H     H_    0.295450 0.731796 0.428710 0.186999
H132  H     H_    0.706891 0.730660 0.570649 0.157086
H133  H     H_    0.833904 0.230773 0.550833 0.114260
H134  H     H_    0.162875 0.229632 0.451244 0.120128
H135  H     H_    0.333907 0.730772 0.550831 0.114256
H136  H     H_    0.662872 0.729625 0.451242 0.120119
O1    O     O_R   0.957210 0.449410 0.665480 -0.527337
O2    O     O_R   0.042790 0.449410 0.334520 -0.537344
O3    O     O_R   0.457210 0.949410 0.665480 -0.527341
O4    O     O_R   0.542790 0.949410 0.334520 -0.537345
O5    O     O_R   0.736260 0.212010 0.826560 -0.510755
O6    O     O_R   0.263740 0.212010 0.173440 -0.510638
O7    O     O_R   0.236260 0.712010 0.826560 -0.510755
O8    O     O_R   0.763740 0.712010 0.173440 -0.510638
O9    O     O_R   0.832520 0.095300 0.836000 -0.532827
O10   O     O_R   0.167480 0.095300 0.164000 -0.533719
O11   O     O_R   0.332520 0.595300 0.836000 -0.532827
O12   O     O_R   0.667480 0.595300 0.164000 -0.533719
O13   O     O_R   0.946380 0.253940 0.826940 -0.513838
O14   O     O_R   0.053620 0.253940 0.173060 -0.512612
O15   O     O_R   0.446380 0.753940 0.826940 -0.513838
O16   O     O_R   0.553620 0.753940 0.173060 -0.512608
O17   O     O_3   0.834560 0.334570 0.748840 -0.283279
O18   O     O_3   0.165440 0.334570 0.251160 -0.276030
O19   O     O_3   0.334560 0.834570 0.748840 -0.283278
O20   O     O_3   0.665440 0.834570 0.251160 -0.276041
O21   O     O_R   0.820730 0.541240 0.668250 -0.479551
O22   O     O_R   0.179270 0.541240 0.331750 -0.524544
O23   O     O_R   0.320730 0.041240 0.668250 -0.479555
O24   O     O_R   0.679270 0.041240 0.331750 -0.524554
O25   O     O_R   0.714240 0.455060 0.663710 -0.539725
O26   O     O_R   0.285760 0.455060 0.336290 -0.534394
O27   O     O_R   0.214240 0.955060 0.663710 -0.539726
O28   O     O_R   0.785760 0.955060 0.336290 -0.534396
O29   O     O_R   0.736780 0.204870 0.675910 -0.519141
O30   O     O_R   0.263220 0.204870 0.324090 -0.514907
O31   O     O_R   0.236780 0.704870 0.675910 -0.519141
O32   O     O_R   0.763220 0.704870 0.324090 -0.514907
O33   O     O_R   0.833070 0.087590 0.673490 -0.527540
O34   O     O_R   0.166930 0.087590 0.326510 -0.533606
O35   O     O_R   0.333070 0.587590 0.673490 -0.527541
O36   O     O_R   0.666930 0.587590 0.326510 -0.533606
O37   O     O_R   0.946890 0.246800 0.676300 -0.517286
O38   O     O_R   0.053110 0.246800 0.323700 -0.517115
O39   O     O_R   0.446890 0.746800 0.676300 -0.517288
O40   O     O_R   0.553110 0.746800 0.323700 -0.517118
O41   O     O_R   0.956650 0.457120 0.827980 -0.531466
O42   O     O_R   0.043350 0.457120 0.172020 -0.531039
O43   O     O_R   0.456650 0.957120 0.827980 -0.531466
O44   O     O_R   0.543350 0.957120 0.172020 -0.531035
O45   O     O_R   0.820220 0.548390 0.818890 -0.510616
O46   O     O_R   0.179780 0.548390 0.181110 -0.510761
O47   O     O_R   0.320220 0.048390 0.818890 -0.510616
O48   O     O_R   0.679780 0.048390 0.181110 -0.510761
O49   O     O_R   0.713680 0.462770 0.826210 -0.533934
O50   O     O_R   0.286320 0.462770 0.173790 -0.533033
O51   O     O_R   0.213680 0.962770 0.826210 -0.533934
O52   O     O_R   0.786320 0.962770 0.173790 -0.533033
N1    N     N_3   0.610255 0.851299 0.602780 -0.684448
H137  H     H_    0.594706 0.783996 0.636643 0.230897
H138  H     H_    0.626261 0.915942 0.638973 0.216161
N2    N     N_3   0.392427 0.853112 0.398722 -0.687810
H139  H     H_    0.377457 0.917962 0.362312 0.217568
H140  H     H_    0.407541 0.784885 0.365174 0.232361
N3    N     N_3   0.110254 0.351311 0.602765 -0.684435
H141  H     H_    0.094709 0.284006 0.636630 0.230888
H142  H     H_    0.126258 0.415958 0.638959 0.216157
N4    N     N_3   0.892414 0.353094 0.398720 -0.687799
H143  H     H_    0.877464 0.417918 0.362275 0.217571
H144  H     H_    0.907518 0.284809 0.365202 0.232319
N5    N     N_3   0.668102 0.234989 0.432405 -0.694707
H145  H     H_    0.620275 0.260820 0.449827 0.212233
H146  H     H_    0.664272 0.227719 0.377014 0.258678
N6    N     N_3   0.347102 0.209386 0.575215 -0.635805
H147  H     H_    0.371508 0.271272 0.543444 0.215642
H148  H     H_    0.312353 0.248593 0.609132 0.240260
N7    N     N_3   0.168107 0.734985 0.432404 -0.694714
H149  H     H_    0.120270 0.760796 0.449801 0.212241
H150  H     H_    0.164308 0.727728 0.377012 0.258676
N8    N     N_3   0.847097 0.709391 0.575219 -0.635806
H151  H     H_    0.871507 0.771276 0.543451 0.215645
H152  H     H_    0.812346 0.748598 0.609133 0.240260

loop_
_geom_bond_atom_site_label_1
_geom_bond_atom_site_label_2
_ccdc_geom_bond_type
C78   H94   S    
C82   C94   S    
C119  H11   S    
C10   C110  S    
C7    H127  S    
C120  H12   S    
C41   C61   S    
C116  H84   S    
C53   C69   S    
C104  O12   A    
C43   C63   S    
Cr5   O5    S    
N5    H145  S    
C44   C64   S    
C70   H86   S    
C16   C20   S    
C50   H46   S    
C63   C98   S    
C51   H51   S    
C35   C39   S    
C28   C40   S    
C30   C38   S    
C42   H38   S    
Cr9   O37   S    
N2    H139  S    
C56   C72   S    
C105  O13   A    
C21   H5    S    
C8    H132  S    
C84   H98   S    
C18   C118  S    
C54   H54   S    
C81   C86   S    
C108  O16   A    
C83   C88   S    
C48   O36   A    
C5    H129  S    
C90   O2    A    
C72   H88   S    
C41   C49   S    
Cr8   O32   S    
C49   H45   S    
Cr5   O17   S    
Cr2   O46   S    
N4    H143  S    
C109  H1    S    
Cr7   O19   S    
C33   N4    S    
Cr8   O20   S    
C118  H118  S    
N8    H151  S    
C26   C38   S    
Cr10  O38   S    
C59   H63   S    
C14   C114  S    
C73   H69   S    
C83   H112  S    
C60   C76   S    
C35   H31   S    
C120  H120  S    
C81   H110  S    
C33   H29   S    
C44   H40   S    
C112  N8    S    
C22   H134  S    
C54   C70   S    
C68   C72   S    
C97   O49   A    
C115  H83   S    
C98   O46   A    
C102  O6    A    
C99   O51   A    
C31   H25   S    
C19   H123  S    
C64   C97   S    
C17   H13   S    
C15   C115  S    
C20   C120  S    
C70   H58   S    
Cr7   O27   S    
Cr8   O28   S    
C43   H39   S    
C57   H65   S    
C52   H52   S    
Cr7   O7    S    
N6    H147  S    
Cr4   O24   S    
C57   C61   S    
C82   C85   S    
C59   C63   S    
C60   C64   S    
Cr9   O17   S    
C13   C45   S    
C66   C70   S    
C78   C94   S    
C113  H113  S    
C23   H135  S    
C86   H106  S    
C95   C108  S    
C60   H68   S    
C62   C99   S    
C5    C21   S    
N1    H137  S    
C81   H99   S    
C31   C36   S    
C48   O32   A    
C55   C71   S    
C76   H76   S    
Cr6   O26   S    
C6    C22   S    
C114  H82   S    
C52   H48   S    
Cr2   O22   S    
C65   C101  S    
Cr10  O18   S    
C43   C51   S    
Cr11  O15   S    
C67   C103  S    
C18   H122  S    
C88   H101  S    
C37   C90   S    
Cr11  O35   S    
Cr1   O41   S    
C66   C74   S    
C25   H17   S    
C57   C73   S    
C110  N6    S    
C105  O41   A    
C85   C93   S    
C107  O43   A    
C87   C95   S    
Cr5   O49   S    
C56   C64   S    
C7    H131  S    
C2    O22   A    
C45   O33   A    
C104  O8    A    
C85   H105  S    
C44   C52   S    
Cr6   O6    S    
C50   H50   S    
C1    C12   S    
C75   H75   S    
C35   N2    S    
C112  H4    S    
C51   H47   S    
C2    C11   S    
Cr12  O12   S    
C87   H107  S    
C42   H42   S    
N3    H142  S    
C75   H71   S    
C15   C47   S    
C25   C26   S    
C34   N3    S    
C106  O14   A    
C8    H128  S    
C5    C9    S    
C119  H119  S    
C93   C106  S    
C8    C12   S    
C5    H125  S    
C6    H130  S    
C51   C67   S    
C78   H90   S    
C49   H49   S    
C42   C50   S    
Cr6   O18   S    
Cr3   O47   S    
C110  H2    S    
C61   C100  S    
C67   C75   S    
Cr1   O1    S    
C112  C116  S    
C58   C74   S    
Cr3   O3    S    
C41   H41   S    
Cr4   O4    S    
C44   H44   S    
C30   H33   S    
C34   H30   S    
C79   H91   S    
C68   C76   S    
C13   C17   S    
C98   O50   A    
C14   C22   S    
C99   O47   A    
C103  O7    A    
C13   C21   S    
C27   C39   S    
C7    C23   S    
C8    C24   S    
C40   C91   S    
Cr7   O31   S    
C54   H78   S    
N2    H140  S    
Cr3   O43   S    
C71   H59   S    
C4    C9    S    
C72   H60   S    
C24   H136  S    
C91   O39   A    
C58   C62   S    
C88   C96   S    
C94   C105  S    
C77   H93   S    
C12   C112  S    
C14   C46   S    
C77   C78   S    
C15   C19   S    
Cr9   O33   S    
N4    H144  S    
C69   H85   S    
C101  O9    A    
C92   O4    A    
N8    H152  S    
C29   H34   S    
C108  O44   A    
C88   H108  S    
C71   H87   S    
C14   C18   S    
Cr11  O39   S    
Cr7   O51   S    
C116  H116  S    
Cr8   O52   S    
C3    O23   A    
Cr3   O23   S    
Cr11  O11   S    
C17   C117  S    
C42   C62   S    
C19   C119  S    
Cr10  O34   S    
C9    C109  S    
C2    O26   A    
Cr12  O40   S    
C16   C116  S    
C100  O48   A    
C20   H124  S    
C115  H115  S    
N5    H146  S    
C27   H23   S    
C25   H21   S    
C26   H18   S    
N6    H148  S    
C117  H117  S    
C106  O42   A    
C74   H70   S    
C18   H14   S    
C11   C111  S    
C29   C34   S    
C58   H62   S    
C33   C37   S    
C82   H109  S    
C45   O29   A    
C47   O31   A    
C4    O24   A    
C79   C95   S    
C89   O37   A    
C80   H92   S    
Cr5   O29   S    
N7    H149  S    
C76   H72   S    
Cr1   O17   S    
C80   H96   S    
Cr3   O19   S    
Cr4   O20   S    
Cr12  O16   S    
C96   C107  S    
C39   C92   S    
C27   H19   S    
C107  O15   A    
C68   C104  S    
C6    C10   S    
C1    O25   A    
C54   C62   S    
C22   H6    S    
C6    H126  S    
N3    H141  S    
C103  O11   A    
C111  H3    S    
C114  H114  S    
C41   H37   S    
C65   C69   S    
C77   C93   S    
Cr4   O44   S    
C84   H111  S    
C67   C71   S    
C19   H15   S    
Cr2   O2    S    
C3    O27   A    
C31   H36   S    
C53   H77   S    
Cr12  O36   S    
C32   H35   S    
C29   C37   S    
C36   H32   S    
C92   O40   A    
C46   O30   A    
C30   H28   S    
C43   H43   S    
C85   H104  S    
C9    C117  S    
C66   C102  S    
C117  H9    S    
C84   C87   S    
C113  H81   S    
C11   C119  S    
C16   C48   S    
C29   H27   S    
C7    C11   S    
C38   C89   S    
C17   H121  S    
C87   H102  S    
C49   C65   S    
C89   O1    A    
C23   H7    S    
C56   H80   S    
C91   O3    A    
Cr1   O45   S    
Cr2   O42   S    
C65   C73   S    
C84   C96   S    
Cr4   O48   S    
C53   H53   S    
Cr8   O8    S    
C86   C94   S    
C25   C37   S    
C12   C120  S    
C56   H56   S    
C59   H67   S    
N1    H138  S    
Cr9   O9    S    
C55   H55   S    
C80   C96   S    
C52   C68   S    
C21   H133  S    
C15   C23   S    
C16   C24   S    
C55   C63   S    
C97   O45   A    
C101  O5    A    
C53   C61   S    
C102  O10   A    
C79   H95   S    
C32   H26   S    
C1    O21   A    
C32   C35   S    
C36   C40   S    
C69   H57   S    
Cr6   O50   S    
C73   H73   S    
C57   H61   S    
Cr10  O10   S    
C46   O34   A    
C10   C118  S    
C81   C93   S    
C83   C95   S    
C20   H16   S    
C82   H100  S    
Cr9   O13   S    
C50   C66   S    
C100  O52   A    
C77   H89   S    
N7    H150  S    
C28   H20   S    
C111  N7    S    
C26   H22   S    
C24   H8    S    
C59   C75   S    
C60   H64   S    
C74   H74   S    
C110  C114  S    
C58   H66   S    
C30   C33   S    
C34   C38   S    
C83   H97   S    
C47   O35   A    
C4    O28   A    
C118  H10   S    
Cr5   O25   S    
C90   O38   A    
Cr6   O30   S    
C109  C113  S    
C86   H103  S    
Cr1   O21   S    
Cr2   O18   S    
Cr10  O14   S    
C3    C10   S    
Cr11  O19   S    
Cr12  O20   S    
C31   C39   S    
C32   C40   S    
C109  N5    S    
C55   H79   S    
C79   C80   S    
C27   C28   S    
C28   H24   S    
C36   N1    S    
C111  C115  S    
C13   C113  S    
