data_mof_unit_68459.cif
_audit_creation_date              2012-12-11T18:51:50-0500
_audit_creation_method            fapswitch 2.2
_symmetry_space_group_name_H-M    P1
_symmetry_Int_Tables_number       1
_space_group_crystal_system       triclinic
_cell_length_a                    8.635954
_cell_length_b                    15.21614
_cell_length_c                    15.247318
_cell_angle_alpha                 101.431224
_cell_angle_beta                  98.276705
_cell_angle_gamma                 98.877442
_cell_volume                      1908.54348705

loop_
_atom_site_label
_atom_site_type_symbol
_atom_type_description
_atom_site_fract_x
_atom_site_fract_y
_atom_site_fract_z
_atom_type_partial_charge
Ba1   Ba    Ba6+2 0.844890 0.542420 0.457460 1.688694
Ba2   Ba    Ba6+2 0.344950 0.457650 0.542550 1.657233
C1    C     C_3   0.592814 0.867774 0.249613 -0.066220
C2    C     C_R   0.892519 0.462466 0.923574 -0.088815
C3    C     C_R   0.035775 0.468299 0.111025 -0.065158
C4    C     C_3   0.043960 0.736887 0.226123 0.321197
C5    C     C_R   0.881613 0.423825 0.074456 -0.043678
C6    C     C_R   0.807773 0.423289 0.986193 -0.114786
C7    C     C_R   0.102224 0.476094 0.205775 0.049961
C8    C     C_R   0.262121 0.518299 0.235767 -0.286023
C9    C     C_R   0.083936 0.536054 0.802740 -0.013002
C10   C     C_R   0.152370 0.540001 0.897654 0.015104
C11   C     C_R   0.056994 0.501190 0.956370 0.024969
C12   C     C_3   0.555291 0.768197 0.260397 0.365892
C13   C     C_R   0.310250 0.584974 0.940184 0.079550
C14   C     C_R   0.379006 0.573373 0.024652 -0.016921
C15   C     C_R   0.288202 0.541782 0.083891 0.056058
C16   C     C_3   0.000253 0.770116 0.137303 -0.115803
C17   C     C_R   0.126164 0.504594 0.050620 0.025950
C18   C     C_R   0.356418 0.549110 0.176316 0.039489
C19   C     C_R   0.916853 0.508438 0.776380 -0.230187
C20   C     C_R   0.341573 0.818895 0.438893 -0.061257
C21   C     C_R   0.590330 0.786929 0.513661 0.108146
C22   C     C_R   0.768070 0.232083 0.520838 -0.208831
C23   C     C_3   0.382975 0.277707 0.256800 0.261418
C24   C     C_R   0.865580 0.175818 0.551693 -0.010725
C25   C     C_R   0.804015 0.082628 0.541381 -0.183725
C26   C     C_R   0.641929 0.042054 0.504331 -0.026171
C27   C     C_R   0.544958 0.101019 0.471151 -0.028713
C28   C     C_3   0.229408 0.755425 0.684944 0.214296
C29   C     C_R   0.573343 0.945456 0.494990 -0.017265
C30   C     C_R   0.412402 0.912165 0.450020 -0.019240
C31   C     C_R   0.323442 0.972944 0.418400 -0.042227
C32   C     C_R   0.387921 0.063989 0.427877 -0.041226
C33   C     C_R   0.653191 0.881112 0.532086 -0.142402
C34   C     C_3   0.406758 0.254917 0.157982 -0.121922
C35   C     C_R   0.434527 0.756617 0.464358 -0.294714
C36   C     C_R   0.607856 0.195681 0.479801 0.046494
C37   C     C_3   0.232972 0.859201 0.726108 -0.214125
C38   C     C_3   0.878707 0.244456 0.282609 0.239740
C39   C     C_3   0.801749 0.155545 0.210823 -0.194183
C40   C     C_3   0.728410 0.728630 0.765447 0.260696
C41   C     C_3   0.656408 0.783649 0.838555 -0.369320
C42   C     C_3   0.354575 0.900029 0.814416 -0.416682
C43   C     C_2   0.266051 0.915926 0.658279 0.561370
C44   C     C_3   0.991262 0.223452 0.359517 -0.296692
C45   C     C_3   0.133878 0.278244 0.778219 0.318304
C46   C     C_2   0.924951 0.115277 0.163943 0.504906
C47   C     C_2   0.897136 0.732719 0.808074 0.396258
C48   C     C_3   0.751985 0.921974 0.309466 -0.291158
C49   C     C_3   0.355988 0.151912 0.112531 -0.393326
C50   C     C_2   0.316855 0.310870 0.106271 0.442225
C51   C     C_3   0.581119 0.874900 0.149582 -0.312171
C52   C     C_2   0.139430 0.787994 0.089686 0.477867
C53   C     C_2   0.182454 0.173031 0.884463 0.481357
C54   C     C_2   0.497595 0.105562 0.722093 0.542942
C55   C     C_2   0.637768 0.384358 0.970174 0.600905
C56   C     C_3   0.118796 0.256010 0.871260 -0.263184
C57   C     C_3   0.395375 0.666083 0.915093 -0.315148
C58   C     C_2   0.845559 0.545805 0.699072 0.451621
C59   C     C_3   0.830508 0.330317 0.522548 -0.296065
C60   C     C_2   0.920502 0.029112 0.561639 0.584074
C61   C     C_3   0.858612 0.705839 0.070132 -0.407239
C62   C     C_2   0.375193 0.747644 0.650902 0.443180
C63   C     C_3   0.682528 0.251017 0.769491 0.356001
C64   C     C_3   0.648096 0.154484 0.783877 -0.219583
C65   C     C_R   0.822678 0.465465 0.831749 -0.040570
H1    H     H_    0.596335 0.767924 0.332217 0.010641
H2    H     H_    0.424554 0.745204 0.244728 -0.022435
H3    H     H_    0.497071 0.900571 0.275772 0.060172
H4    H     H_    0.254869 0.260438 0.258983 0.021562
H5    H     H_    0.426020 0.352287 0.284672 0.009365
H6    H     H_    0.536419 0.275564 0.158782 0.136621
H7    H     H_    0.250432 0.323116 0.784465 0.118662
H8    H     H_    0.038440 0.316737 0.761344 -0.083564
H9    H     H_    0.180394 0.315757 0.925580 0.085323
H10   H     H_    0.992992 0.243893 0.878247 0.089314
H11   H     H_    0.797289 0.285985 0.811831 -0.055274
H12   H     H_    0.115174 0.868361 0.742488 0.128158
H13   H     H_    0.691034 0.247814 0.696905 -0.051644
H14   H     H_    0.746638 0.118473 0.768161 -0.012035
H15   H     H_    0.957240 0.675363 0.227543 0.091903
H16   H     H_    0.636748 0.156070 0.855729 0.148341
H17   H     H_    0.812400 0.390668 0.116319 0.139676
H18   H     H_    0.504061 0.600906 0.047803 0.073534
H19   H     H_    0.316535 0.523411 0.305511 0.061822
H20   H     H_    0.379304 0.685793 0.454591 0.091901
H21   H     H_    0.201152 0.951532 0.384810 0.144120
H22   H     H_    0.758614 0.901138 0.582746 0.077588
H23   H     H_    0.780737 0.275545 0.307338 0.051882
H24   H     H_    0.161943 0.716230 0.230454 -0.014827
H25   H     H_    0.310733 0.104900 0.400073 0.109551
H26   H     H_    0.963954 0.837180 0.156506 0.117508
H27   H     H_    0.126558 0.728446 0.628970 0.060487
H28   H     H_    0.341135 0.857634 0.865147 0.152491
H29   H     H_    0.477697 0.909408 0.800253 0.097635
H30   H     H_    0.335480 0.968879 0.845649 0.166211
H31   H     H_    0.375889 0.922237 0.632463 -0.064275
H32   H     H_    0.927569 0.172977 0.390524 0.048963
H33   H     H_    0.088943 0.193310 0.333921 0.124670
H34   H     H_    0.713613 0.170296 0.157947 0.059940
H35   H     H_    0.044113 0.286529 0.411768 0.139810
H36   H     H_    0.996353 0.155601 0.127836 0.036009
H37   H     H_    0.988440 0.755096 0.773679 0.045493
H38   H     H_    0.854128 0.921395 0.273299 0.186308
H39   H     H_    0.742639 0.994121 0.333348 0.103720
H40   H     H_    0.782294 0.894073 0.370101 0.161788
H41   H     H_    0.373299 0.107465 0.161363 0.149997
H42   H     H_    0.229716 0.134124 0.079332 0.160260
H43   H     H_    0.429125 0.133643 0.059902 0.143086
H44   H     H_    0.187780 0.300335 0.095912 -0.003806
H45   H     H_    0.735932 0.105025 0.242325 0.073343
H46   H     H_    0.508875 0.926536 0.135653 0.097739
H47   H     H_    0.699745 0.893810 0.131915 0.146044
H48   H     H_    0.523679 0.809485 0.102942 0.170710
H49   H     H_    0.143634 0.839720 0.049676 0.049107
H50   H     H_    0.143206 0.105008 0.841498 0.268928
H51   H     H_    0.498939 0.073387 0.652472 -0.010608
H52   H     H_    0.550163 0.426274 0.959899 0.047999
H53   H     H_    0.485150 0.709531 0.972424 0.070373
H54   H     H_    0.463906 0.644220 0.862855 0.137313
H55   H     H_    0.312235 0.711619 0.901281 0.168378
H56   H     H_    0.657864 0.658150 0.742718 0.070703
H57   H     H_    0.902959 0.608443 0.686909 -0.042257
H58   H     H_    0.943635 0.373475 0.538984 0.146844
H59   H     H_    0.816225 0.334330 0.450862 0.073292
H60   H     H_    0.765465 0.368910 0.567763 0.165801
H61   H     H_    0.953156 0.025660 0.631946 0.058018
H62   H     H_    0.895615 0.662424 0.012746 0.182953
H63   H     H_    0.792031 0.656478 0.100980 0.162231
H64   H     H_    0.774486 0.747008 0.044397 0.126015
H65   H     H_    0.464209 0.805805 0.653910 -0.090015
H66   H     H_    0.709507 0.857385 0.853089 0.134169
H67   H     H_    0.679395 0.761277 0.902767 0.099541
H68   H     H_    0.527503 0.773047 0.816808 0.114847
O1    O     O_2   0.826410 0.445300 0.275350 -0.465777
O2    O     O_2   0.193005 0.177518 0.546822 -0.430527
O3    O     O_3   0.122893 0.198604 0.710522 -0.579043
O4    O     O_3   0.098900 0.448430 0.388910 -0.495631
O5    O     O_3   0.590780 0.611410 0.551120 -0.388605
O6    O     O_2   0.326530 0.274990 0.446290 -0.479324
O7    O     O_3   0.468735 0.226257 0.304812 -0.666701
O8    O     O_2   0.486024 0.458677 0.817044 -0.522173
O9    O     O_3   0.562194 0.297911 0.794735 -0.565153
O10   O     O_3   0.628630 0.613330 0.338230 -0.480366
O11   O     O_2   0.681586 0.540856 0.176791 -0.493895
O12   O     O_3   0.733136 0.775353 0.694992 -0.666301
O13   O     O_3   0.968177 0.301416 0.239573 -0.671834
O14   O     O_3   0.627306 0.708598 0.203476 -0.611616
O15   O     O_2   0.863180 0.725040 0.553770 -0.478011
O16   O     O_3   0.060890 0.661420 0.386090 -0.491813
O17   O     O_2   0.031909 0.821810 0.472851 -0.403218
O18   O     O_2   0.169591 0.958887 0.632705 -0.523745
O19   O     O_2   0.948070 0.038945 0.167878 -0.623562
O20   O     O_2   0.932055 0.706312 0.877309 -0.652618
O21   O     O_2   0.389102 0.370795 0.077341 -0.607509
O22   O     O_2   0.243636 0.742257 0.091277 -0.641758
O23   O     O_3   0.041789 0.806970 0.301423 -0.623962
O24   O     O_2   0.106205 0.109843 0.908911 -0.695457
O25   O     O_2   0.371171 0.107428 0.748126 -0.544848
O26   O     O_2   0.594274 0.305549 0.975247 -0.573267
O27   O     O_2   0.729070 0.510569 0.643497 -0.534433
O28   O     O_2   0.984264 0.993442 0.501371 -0.534597
O29   O     O_2   0.400032 0.672794 0.624744 -0.559161
O30   O     O_2   0.363300 0.554730 0.724710 -0.413583
O31   O     O_3   0.090820 0.551650 0.611100 -0.493241
O32   O     O_3   0.561090 0.386750 0.661790 -0.402556
O33   O     O_3   0.226668 0.703125 0.751221 -0.657028
O34   O     O_3   0.598940 0.388670 0.448890 -0.458783
O35   O     O_3   0.128820 0.338650 0.613920 -0.516926
P1    P     P_3+3 0.996530 0.418490 0.288400 0.955805
P2    P     P_3+3 0.693090 0.712100 0.580610 1.062522
P3    P     P_3+3 0.122774 0.777682 0.401146 0.960577
P4    P     P_3+3 0.193180 0.581580 0.711620 1.033055
P5    P     P_3+3 0.078478 0.222432 0.602902 1.001915
P6    P     P_3+3 0.570696 0.599068 0.222295 0.949609
P7    P     P_3+3 0.497769 0.271600 0.421518 0.941088
P8    P     P_3+3 0.611940 0.408179 0.778420 0.976893

loop_
_geom_bond_atom_site_label_1
_geom_bond_atom_site_label_2
_ccdc_geom_bond_type
C57   H54   S    
C44   H32   S    
C57   H53   S    
O16   P3    S    
C28   C62   S    
C1    C51   S    
Ba1   O10   S    
C23   O7    S    
C62   O29   D    
C15   C18   A    
C47   H37   S    
C56   H9    S    
C5    C6    A    
C18   P6    S    
O12   P2    S    
O33   P4    S    
C44   H35   S    
C24   C25   A    
C22   C59   S    
C20   C30   A    
C4    H15   S    
Ba2   O4    S    
C24   P5    S    
C26   C27   A    
C31   H21   S    
C22   C24   A    
O2    P5    D    
C43   H31   S    
C16   C61   S    
O8    P8    D    
O7    P7    S    
C13   C14   A    
O13   P1    S    
C45   O3    S    
C41   H66   S    
Ba1   Ba2   S    
C61   H63   S    
C2    C11   A    
C58   H57   S    
C46   O19   D    
C56   H10   S    
C45   C56   S    
C64   H16   S    
O15   P2    D    
C21   P2    S    
C62   H65   S    
C8    C18   A    
C14   C15   A    
C39   H45   S    
O11   P6    D    
C27   C36   A    
C48   H38   S    
C58   O27   D    
O1    P1    D    
O4    P1    S    
C59   H59   S    
C23   H4    S    
C61   H64   S    
Ba1   O1    S    
C7    C8    A    
Ba2   O31   S    
Ba1   O4    S    
C2    C6    A    
C37   C43   S    
C4    H24   S    
C57   H55   S    
C53   O24   D    
C5    H17   S    
O5    P2    S    
C63   H13   S    
C19   C65   A    
C54   H51   S    
C40   O12   S    
O34   P7    S    
C4    O23   S    
C1    C48   S    
C51   H46   S    
C40   H56   S    
O35   P5    S    
C26   C29   A    
C4    C16   S    
O31   P4    S    
C11   C17   A    
C1    H3    S    
C19   C58   S    
C3    C5    A    
C63   O9    S    
C38   O13   S    
C49   H41   S    
C40   C47   S    
C50   H44   S    
O30   P4    D    
C21   C35   A    
C46   H36   S    
C27   C32   A    
Ba1   P1    S    
C52   H49   S    
C37   H12   S    
C41   H67   S    
C38   C44   S    
C3    C7    A    
C42   H29   S    
C25   C60   S    
C6    C55   S    
C42   H30   S    
O23   P3    S    
C22   C36   A    
C60   O28   D    
O10   P6    S    
C31   C32   A    
Ba1   O15   S    
C59   H60   S    
C23   H5    S    
C41   H68   S    
C34   C49   S    
Ba2   O30   S    
Ba1   O5    S    
Ba2   O35   S    
O17   P3    D    
C33   H22   S    
C38   C39   S    
O9    P8    S    
C49   H43   S    
C21   C33   A    
C14   H18   S    
C12   H2    S    
O6    P7    D    
C7    P1    S    
C43   O18   D    
C40   C41   S    
O3    P5    S    
C20   P3    S    
C51   H47   S    
C48   H39   S    
C53   H50   S    
C39   H34   S    
Ba2   O6    S    
C44   H33   S    
C8    H19   S    
C9    P4    S    
C63   H11   S    
C23   C34   S    
C13   C57   S    
C35   H20   S    
C29   C30   A    
C45   H7    S    
C65   P8    S    
C34   C50   S    
C2    C65   A    
C9    C10   A    
C37   C42   S    
C3    C17   A    
C1    C12   S    
C50   O21   D    
Ba1   P2    S    
C55   H52   S    
O14   P6    S    
Ba2   O5    S    
C30   C31   A    
C10   C13   A    
C49   H42   S    
C28   O33   S    
C28   H27   S    
C42   H28   S    
Ba2   P4    S    
C52   O22   D    
C60   H61   S    
C20   C35   A    
C48   H40   S    
Ba1   O31   S    
C54   C64   S    
C12   O14   S    
Ba1   O34   S    
C15   C17   A    
C39   C46   S    
C9    C19   A    
C28   C37   S    
Ba1   O16   S    
C29   C33   A    
C61   H62   S    
C47   O20   D    
C32   H25   S    
C34   H6    S    
C16   C52   S    
Ba2   O34   S    
C45   H8    S    
O32   P8    S    
C55   O26   D    
C10   C11   A    
C54   O25   D    
C63   C64   S    
C53   C56   S    
C25   C26   A    
C36   P7    S    
C16   H26   S    
C12   H1    S    
C59   H58   S    
C38   H23   S    
Ba2   O32   S    
C51   H48   S    
C64   H14   S    
