data_mof_unit_59133.cif
_audit_creation_date              2012-12-10T19:13:33-0500
_audit_creation_method            fapswitch 2.2
_symmetry_space_group_name_H-M    P1
_symmetry_Int_Tables_number       1
_space_group_crystal_system       triclinic
_cell_length_a                    9.70842
_cell_length_b                    10.63758
_cell_length_c                    16.753195
_cell_angle_alpha                 89.823362
_cell_angle_beta                  84.068531
_cell_angle_gamma                 90.13262
_cell_volume                      1720.89386029

loop_
_atom_site_label
_atom_site_type_symbol
_atom_type_description
_atom_site_fract_x
_atom_site_fract_y
_atom_site_fract_z
_atom_type_partial_charge
C1    C     C_R   0.499402 0.742116 0.503086 0.938040
C2    C     C_R   0.385937 0.636843 0.763113 -0.255309
C3    C     C_R   0.469674 0.497884 0.129407 0.514790
C4    C     C_R   0.458315 0.466021 0.210808 -0.289032
C5    C     C_R   0.628232 0.626280 0.233825 -0.203251
C6    C     C_R   0.636283 0.662106 0.153909 -0.240344
C7    C     C_R   0.555838 0.599985 0.101833 0.057010
C8    C     C_2   0.451866 0.648785 0.980018 0.450101
C9    C     C_2   0.567904 0.636905 0.016762 0.351523
C10   C     C_R   0.537548 0.529882 0.262295 -0.066789
C11   C     C_3   0.355723 0.926648 0.543392 -0.505189
C12   C     C_R   0.479439 0.502245 0.652987 0.957565
C13   C     C_3   0.355820 0.071018 0.544677 0.285183
C14   C     C_3   0.617769 0.927010 0.553197 0.230876
C15   C     C_3   0.525029 0.928097 0.416860 0.132551
C16   C     C_3   0.498711 0.878310 0.504726 -0.142685
C17   C     C_3   0.499607 0.121650 0.506668 -0.220979
C18   C     C_3   0.617851 0.072024 0.555423 0.202418
C19   C     C_3   0.521924 0.073548 0.418071 0.126036
C20   C     C_3   0.918211 0.630568 0.499274 -0.290503
C21   C     C_3   0.080798 0.632571 0.499287 -0.474815
C22   C     C_3   0.906109 0.438408 0.574287 -0.303668
C23   C     C_R   0.499273 0.257960 0.504293 1.018552
C24   C     C_3   0.930419 0.432826 0.431319 -0.302597
C25   C     C_3   0.068654 0.442315 0.575055 0.434454
C26   C     C_3   0.093255 0.437695 0.429232 0.444714
C27   C     C_R   0.520651 0.502726 0.346997 0.898871
C28   C     C_R   0.463664 0.530766 0.737421 -0.052976
C29   C     C_R   0.534475 0.460829 0.790817 0.419041
C30   C     C_R   0.526985 0.499342 0.870661 -0.165529
C31   C     C_R   0.455343 0.609638 0.895685 0.056746
C32   C     C_R   0.382599 0.676829 0.842040 -0.185368
H1    H     H_    0.704120 0.738892 0.132773 0.175841
H2    H     H_    0.274785 0.102091 0.506486 0.200469
H3    H     H_    0.629003 0.895437 0.390100 0.095822
H4    H     H_    0.432078 0.105749 0.387031 0.207145
H5    H     H_    0.389815 0.390694 0.233821 0.140039
H6    H     H_    0.720651 0.104153 0.526419 0.082253
H7    H     H_    0.870221 0.684376 0.551768 0.204320
H8    H     H_    0.128310 0.683765 0.445253 0.197020
H9    H     H_    0.109125 0.686786 0.551923 0.179958
H10   H     H_    0.857666 0.486052 0.629082 0.165859
H11   H     H_    0.092889 0.498336 0.628142 0.062373
H12   H     H_    0.689051 0.676691 0.274122 0.149334
H13   H     H_    0.134425 0.490979 0.374325 0.066462
H14   H     H_    0.867523 0.339738 0.577882 0.179534
H15   H     H_    0.325557 0.760883 0.860831 0.162018
H16   H     H_    0.332484 0.691497 0.721168 0.152003
H17   H     H_    0.577829 0.443776 0.913269 0.165800
N1    N     N_3   0.861190 0.500250 0.501720 -0.073481
N2    N     N_3   0.138550 0.503270 0.501080 -0.055355
O1    O     O_R   0.383960 0.685090 0.500020 -0.632400
O2    O     O_R   0.616040 0.685320 0.499960 -0.641031
O3    O     O_R   0.370240 0.499890 0.615830 -0.628622
O4    O     O_R   0.602330 0.500120 0.615770 -0.597933
O5    O     O_R   0.383960 0.314680 0.500040 -0.515412
O6    O     O_R   0.616040 0.314910 0.499980 -0.637288
O7    O     O_R   0.397670 0.499880 0.384230 -0.619324
O8    O     O_R   0.629760 0.500110 0.384170 -0.619749
Zn1   Zn    Zn3+2 0.345040 0.499850 0.500040 1.003582
Zn2   Zn    Zn3+2 0.654960 0.500150 0.499960 0.938963
O9    O     O_3   0.608813 0.355961 0.763888 -0.775272
H18   H     H_    0.652657 0.318325 0.809200 0.344784
H19   H     H_    0.329363 0.885647 0.604150 0.167935
H20   H     H_    0.271711 0.894907 0.507565 0.220718
O10   O     O_3   0.317570 0.120369 0.621868 -0.695258
H21   H     H_    0.359264 0.068764 0.662354 0.377561
O11   O     O_3   0.613885 0.872160 0.630202 -0.704392
H22   H     H_    0.526079 0.896290 0.661691 0.363564
O12   O     O_3   0.602965 0.116312 0.634976 -0.700430
H23   H     H_    0.648796 0.199761 0.635044 0.370252
O13   O     O_3   0.423028 0.883722 0.369808 -0.747911
H24   H     H_    0.454872 0.801223 0.347459 0.338344
O14   O     O_3   0.640701 0.125860 0.374599 -0.757943
H25   H     H_    0.724075 0.088251 0.394435 0.319927
H26   H     H_    0.718429 0.898324 0.520355 0.094915
H27   H     H_    0.889219 0.680078 0.444874 0.166399
H28   H     H_    0.893319 0.333702 0.431931 0.192352
H29   H     H_    0.899299 0.475291 0.375187 0.139592
O15   O     O_3   0.148234 0.315699 0.423334 -0.708111
H30   H     H_    0.137542 0.285600 0.368264 0.300405
O16   O     O_3   0.120219 0.320453 0.583733 -0.655749
H31   H     H_    0.088958 0.292885 0.639358 0.333189
O17   O     O_3   0.695901 0.639321 0.971749 -0.793284
H32   H     H_    0.767772 0.615846 0.006983 0.339573
O18   O     O_3   0.400269 0.429811 0.075805 -0.775424
H33   H     H_    0.345696 0.362020 0.105079 0.338232
O19   O     O_3   0.327388 0.674068 0.025188 -0.762340
H34   H     H_    0.251282 0.663887 0.990595 0.340734

loop_
_geom_bond_atom_site_label_1
_geom_bond_atom_site_label_2
_ccdc_geom_bond_type
C10   C27   S    
C18   O12   S    
C14   C18   S    
C25   H11   S    
C23   O5    A    
O3    Zn1   S    
C15   C19   S    
C15   O13   S    
C29   C30   A    
C20   H27   S    
C12   C28   S    
C28   C29   A    
C24   C26   S    
C3    C7    A    
C19   H4    S    
C5    C6    A    
O15   H30   S    
O7    Zn1   S    
C15   C16   S    
C2    C32   A    
C1    O2    A    
C20   N1    S    
O1    Zn1   S    
C26   H13   S    
O2    Zn2   S    
C8    C9    D    
C22   C25   S    
O12   H23   S    
C22   N1    S    
O19   H34   S    
O10   H21   S    
C3    O18   S    
C15   H3    S    
C13   O10   S    
C24   N1    S    
O8    Zn2   S    
O14   H25   S    
O17   H32   S    
C11   H19   S    
C20   H7    S    
O18   H33   S    
O11   H22   S    
C2    H16   S    
C26   O15   S    
O5    Zn1   S    
C8    O19   S    
C14   H26   S    
C25   N2    S    
O9    H18   S    
C11   C16   S    
C24   H29   S    
C31   C32   A    
C30   C31   A    
C17   C18   S    
C1    C16   S    
C17   C23   S    
C20   C21   S    
C21   H9    S    
C24   H28   S    
C22   H14   S    
C5    H12   S    
C25   O16   S    
C32   H15   S    
C14   C16   S    
C4    C10   A    
C3    C4    A    
C21   N2    S    
C23   O6    A    
C29   O9    S    
C8    C31   S    
C30   H17   S    
C19   O14   S    
O13   H24   S    
C27   O7    A    
O6    Zn2   S    
C6    C7    A    
C6    H1    S    
C13   C17   S    
C18   H6    S    
C13   H2    S    
C27   O8    A    
C26   N2    S    
C11   C13   S    
C22   H10   S    
C21   H8    S    
O4    Zn2   S    
C17   C19   S    
C1    O1    A    
C12   O4    A    
C9    O17   S    
C7    C9    S    
C5    C10   A    
C4    H5    S    
O16   H31   S    
N1    Zn2   S    
C14   O11   S    
C2    C28   A    
N2    Zn1   S    
C12   O3    A    
C11   H20   S    
