data_mof_unit_39638.cif
_audit_creation_date              2012-12-11T15:34:57-0500
_audit_creation_method            fapswitch 2.2
_symmetry_space_group_name_H-M    P1
_symmetry_Int_Tables_number       1
_space_group_crystal_system       triclinic
_cell_length_a                    30.38986
_cell_length_b                    7.250255
_cell_length_c                    26.075998
_cell_angle_alpha                 89.994129
_cell_angle_beta                  111.980536
_cell_angle_gamma                 90.00379
_cell_volume                      5327.80543577

loop_
_atom_site_label
_atom_site_type_symbol
_atom_type_description
_atom_site_fract_x
_atom_site_fract_y
_atom_site_fract_z
_atom_type_partial_charge
O1    O     O_R   0.295360 0.592990 0.320420 -0.531972
O2    O     O_R   0.704640 0.407010 0.679580 -0.533677
O3    O     O_R   0.204640 0.092990 0.179580 -0.531965
O4    O     O_R   0.795360 0.907010 0.820420 -0.533718
O5    O     O_R   0.294060 0.265620 0.213230 -0.537307
O6    O     O_R   0.705940 0.734380 0.786770 -0.538537
O7    O     O_R   0.205940 0.765620 0.286770 -0.537310
O8    O     O_R   0.794060 0.234380 0.713230 -0.538500
C1    C     C_R   0.305264 0.432301 0.200743 0.713343
C2    C     C_R   0.695588 0.567851 0.800094 0.715934
C3    C     C_R   0.194736 0.932284 0.299258 0.713294
C4    C     C_R   0.804413 0.067869 0.699914 0.715920
O9    O     O_R   0.300850 0.263360 0.322080 -0.533620
O10   O     O_R   0.699150 0.736640 0.677920 -0.535604
O11   O     O_R   0.199150 0.763360 0.177920 -0.533623
O12   O     O_R   0.800850 0.236640 0.822080 -0.535618
O13   O     O_R   0.211480 0.091820 0.289210 -0.539498
O14   O     O_R   0.788520 0.908180 0.710790 -0.538531
O15   O     O_R   0.288520 0.591820 0.210790 -0.539494
O16   O     O_R   0.711480 0.408180 0.789210 -0.538550
C5    C     C_R   0.313181 0.430932 0.343233 0.676713
C6    C     C_R   0.687153 0.568933 0.656443 0.684537
C7    C     C_R   0.186819 0.930942 0.156768 0.676728
C8    C     C_R   0.812849 0.068922 0.843553 0.684525
O17   O     O_3   0.220670 0.426670 0.239090 -0.374603
O18   O     O_3   0.779330 0.573330 0.760910 -0.376367
O19   O     O_3   0.279330 0.926670 0.260910 -0.374605
O20   O     O_3   0.720670 0.073330 0.739090 -0.376432
V1    V     V_3+5 0.255440 0.152290 0.252020 1.400033
V2    V     V_3+5 0.744560 0.847710 0.747980 1.400111
V3    V     V_3+5 0.244560 0.652290 0.247980 1.400017
V4    V     V_3+5 0.755440 0.347710 0.752020 1.400175
C9    C     C_R   0.849058 0.067909 0.900396 -0.045288
C10   C     C_R   0.149470 0.930095 0.100811 -0.040616
C11   C     C_R   0.650947 0.567973 0.599594 -0.045407
C12   C     C_R   0.350537 0.430034 0.399187 -0.040651
C13   C     C_R   0.875657 0.193149 0.993113 -0.156418
C14   C     C_R   0.121753 0.798746 0.008883 -0.157637
C15   C     C_R   0.624331 0.693551 0.506907 -0.156452
C16   C     C_R   0.378291 0.298238 0.491067 -0.157648
C17   C     C_R   0.840125 0.167941 0.941271 -0.156704
C18   C     C_R   0.158373 0.835568 0.059029 -0.152434
C19   C     C_R   0.659867 0.668227 0.558742 -0.156658
C20   C     C_R   0.341656 0.335235 0.440947 -0.152397
C21   C     C_R   0.894186 0.989700 0.912406 -0.221465
C22   C     C_R   0.103174 0.991978 0.091380 -0.220420
C23   C     C_R   0.605828 0.489628 0.587561 -0.221419
C24   C     C_R   0.396825 0.492061 0.408625 -0.220464
C25   C     C_R   0.931841 0.019789 0.964515 0.085489
C26   C     C_R   0.064762 0.953656 0.040530 0.086152
C27   C     C_R   0.568171 0.519791 0.535456 0.085496
C28   C     C_R   0.435251 0.453570 0.459449 0.086132
C29   C     C_R   0.921483 0.124138 0.004652 0.134382
C30   C     C_R   0.075143 0.853014 0.999713 0.134221
C31   C     C_R   0.578513 0.624414 0.495351 0.134361
C32   C     C_R   0.424893 0.352608 0.500235 0.134219
C33   C     C_R   0.979706 0.957884 0.977324 0.058794
C34   C     C_R   0.016453 0.007364 0.029071 0.057293
C35   C     C_R   0.520316 0.457722 0.522628 0.058794
C36   C     C_R   0.483555 0.507400 0.470911 0.057259
C37   C     C_R   0.003635 0.108974 0.067480 -0.186190
C38   C     C_R   0.992115 0.849480 0.939927 -0.192117
C39   C     C_R   0.496354 0.609306 0.432535 -0.186190
C40   C     C_R   0.507933 0.348931 0.559976 -0.191996
C41   C     C_R   0.957114 0.164153 0.055601 -0.191871
C42   C     C_R   0.038865 0.801461 0.950519 -0.191262
C43   C     C_R   0.542870 0.664585 0.444421 -0.191863
C44   C     C_R   0.461189 0.300812 0.549388 -0.191285
H1    H     H_    0.949163 0.243523 0.086312 0.132274
H2    H     H_    0.046618 0.720152 0.920019 0.130469
H3    H     H_    0.550809 0.744172 0.413735 0.132264
H4    H     H_    0.453456 0.219217 0.579854 0.130480
C45   C     C_R   0.089813 0.035703 0.476834 0.548577
C46   C     C_R   0.901670 0.030924 0.512788 0.560428
C47   C     C_R   0.410197 0.535379 0.023170 0.548728
C48   C     C_R   0.598393 0.532118 0.987327 0.560530
N1    N     N_R   0.070761 0.005319 0.420722 -0.543879
N2    N     N_R   0.920951 0.053419 0.569203 -0.543911
N3    N     N_R   0.429255 0.505473 0.079307 -0.543912
N4    N     N_R   0.579106 0.553937 0.930885 -0.543905
C49   C     C_R   0.022434 0.003699 0.392672 0.558427
C50   C     C_R   0.968672 0.085903 0.595896 0.546363
C51   C     C_R   0.477580 0.504405 0.107379 0.558342
C52   C     C_R   0.531360 0.585762 0.904138 0.546775
C53   C     C_R   0.991508 0.016192 0.421504 -0.027060
C54   C     C_R   0.999408 0.080307 0.566751 -0.022877
C55   C     C_R   0.508514 0.517080 0.078561 -0.027071
C56   C     C_R   0.500614 0.580151 0.933271 -0.023097
C57   C     C_R   0.010662 0.041761 0.479194 -0.018658
C58   C     C_R   0.980292 0.051403 0.509206 -0.016227
C59   C     C_R   0.489358 0.542126 0.020847 -0.018644
C60   C     C_R   0.519738 0.551864 0.990848 -0.016391
C61   C     C_R   0.060143 0.056451 0.507008 -0.034199
C62   C     C_R   0.930914 0.030946 0.481661 -0.032865
C63   C     C_R   0.439867 0.556176 0.992997 -0.034211
C64   C     C_R   0.569133 0.532096 0.018436 -0.032960
C65   C     C_R   0.942031 0.001499 0.394180 -0.146184
C66   C     C_R   0.048761 0.100656 0.593843 -0.148283
C67   C     C_R   0.558003 0.503073 0.105923 -0.146168
C68   C     C_R   0.451246 0.599843 0.906137 -0.148177
C69   C     C_R   0.912136 0.007362 0.423937 -0.142819
C70   C     C_R   0.078785 0.087470 0.564406 -0.142004
C71   C     C_R   0.587912 0.509086 0.076183 -0.142731
C72   C     C_R   0.421217 0.586616 0.935568 -0.141960
O21   O     O_2   0.137330 0.041106 0.503648 -0.525603
O22   O     O_2   0.854555 0.004002 0.487016 -0.525918
O23   O     O_2   0.362678 0.540256 0.996337 -0.525576
O24   O     O_2   0.645530 0.505879 0.013147 -0.525915
O25   O     O_2   0.004296 0.990002 0.337030 -0.536120
O26   O     O_2   0.986397 0.123514 0.650549 -0.538822
O27   O     O_2   0.495708 0.491083 0.163030 -0.536109
O28   O     O_2   0.513618 0.622702 0.849442 -0.538702
C73   C     C_R   0.897883 0.910769 0.643210 0.141140
C74   C     C_R   0.101084 0.810285 0.361225 0.138309
C75   C     C_R   0.602291 0.410497 0.857081 0.140789
C76   C     C_R   0.398990 0.310496 0.138880 0.138168
C77   C     C_R   0.874831 0.936125 0.681489 0.074357
C78   C     C_R   0.125565 0.805433 0.323662 0.065203
C79   C     C_R   0.625312 0.435566 0.818754 0.074031
C80   C     C_R   0.374489 0.305648 0.176423 0.065220
C81   C     C_R   0.835892 0.060175 0.667893 -0.075029
C82   C     C_R   0.160775 0.942704 0.328557 -0.080110
C83   C     C_R   0.664139 0.560145 0.832159 -0.075158
C84   C     C_R   0.339229 0.442765 0.171453 -0.080108
C85   C     C_R   0.826762 0.180285 0.623004 -0.246177
C86   C     C_R   0.163574 0.097227 0.362062 -0.252666
C87   C     C_R   0.673182 0.680829 0.876901 -0.246125
C88   C     C_R   0.336389 0.597186 0.137888 -0.252583
C89   C     C_R   0.855085 0.177934 0.591602 -0.142708
C90   C     C_R   0.133219 0.117353 0.390381 -0.151041
C91   C     C_R   0.644876 0.678611 0.908324 -0.142717
C92   C     C_R   0.366750 0.617349 0.109575 -0.150938
C93   C     C_R   0.890773 0.045199 0.601042 0.351545
C94   C     C_R   0.101902 0.976482 0.390720 0.363398
C95   C     C_R   0.609294 0.545516 0.899064 0.351763
C96   C     C_R   0.398117 0.476598 0.109311 0.363407
H5    H     H_    0.798096 0.279505 0.612894 0.142992
H6    H     H_    0.188957 0.206247 0.365731 0.146885
H7    H     H_    0.701763 0.780406 0.886876 0.143105
H8    H     H_    0.310968 0.706090 0.134165 0.146855
H9    H     H_    0.848732 0.278608 0.558956 0.149091
H10   H     H_    0.135099 0.242384 0.413687 0.150797
H11   H     H_    0.651160 0.779704 0.940843 0.149012
H12   H     H_    0.364839 0.742311 0.086219 0.150704
H13   H     H_    0.098053 0.060429 0.125380 0.101857
H14   H     H_    0.899250 0.915281 0.879375 0.111144
H15   H     H_    0.401931 0.560736 0.374644 0.101923
H16   H     H_    0.600765 0.415082 0.620577 0.111133
H17   H     H_    0.193659 0.784252 0.066054 0.113470
H18   H     H_    0.805651 0.230145 0.932568 0.117899
H19   H     H_    0.306378 0.283813 0.433918 0.113511
H20   H     H_    0.694332 0.730539 0.567460 0.117949
H21   H     H_    0.867698 0.272975 0.023719 0.124287
H22   H     H_    0.129689 0.721983 0.977719 0.123364
H23   H     H_    0.632278 0.773575 0.476324 0.124281
H24   H     H_    0.370373 0.221239 0.522208 0.123368
H25   H     H_    0.028916 0.150201 0.107251 0.126852
H26   H     H_    0.966279 0.797028 0.902044 0.123320
H27   H     H_    0.471062 0.650682 0.392784 0.126853
H28   H     H_    0.533788 0.296220 0.597807 0.123266
H29   H     H_    0.926277 0.982058 0.349814 0.168506
H30   H     H_    0.064456 0.123485 0.638065 0.168290
H31   H     H_    0.573759 0.484066 0.150308 0.168495
H32   H     H_    0.435545 0.622186 0.861891 0.168285
H33   H     H_    0.874288 0.992306 0.401568 0.170183
H34   H     H_    0.116671 0.100573 0.586865 0.170358
H35   H     H_    0.625771 0.494569 0.098584 0.170171
H36   H     H_    0.383322 0.599207 0.913080 0.170345
C97   C     C_3   0.928092 0.739795 0.645635 -0.357319
C98   C     C_3   0.911083 0.631856 0.591226 -0.715626
H37   H     H_    0.871776 0.620322 0.573979 0.229930
H38   H     H_    0.923212 0.697305 0.560505 0.230725
H39   H     H_    0.926396 0.490675 0.598679 0.227054
H40   H     H_    0.965942 0.777894 0.657398 0.216304
H41   H     H_    0.926094 0.638951 0.676462 0.179069
C99   C     C_3   0.076119 0.638801 0.371665 -0.375981
C100  C     C_3   0.092320 0.586829 0.432924 -0.710706
H42   H     H_    0.081299 0.443060 0.436755 0.211140
H43   H     H_    0.131546 0.596163 0.453368 0.239685
H44   H     H_    0.075306 0.674728 0.454855 0.231427
H45   H     H_    0.037075 0.657534 0.354097 0.220903
H46   H     H_    0.084230 0.514748 0.352182 0.173632
C101  C     C_3   0.572167 0.239360 0.854827 -0.357267
C102  C     C_3   0.588961 0.132671 0.909467 -0.715287
H47   H     H_    0.628286 0.122278 0.927182 0.230192
H48   H     H_    0.576355 0.198290 0.939760 0.230381
H49   H     H_    0.573921 0.991026 0.902161 0.226438
H50   H     H_    0.534256 0.277120 0.842676 0.216342
H51   H     H_    0.574464 0.137824 0.824323 0.179032
C103  C     C_3   0.424044 0.139116 0.128549 -0.375779
C104  C     C_3   0.407908 0.086861 0.067319 -0.710721
H52   H     H_    0.418944 0.943056 0.063573 0.211072
H53   H     H_    0.368686 0.096145 0.046816 0.239676
H54   H     H_    0.424957 0.174639 0.045391 0.231389
H55   H     H_    0.463079 0.158133 0.146144 0.220847
H56   H     H_    0.415967 0.015067 0.148073 0.173745
C105  C     C_3   0.897165 0.864789 0.740691 -0.377781
C106  C     C_3   0.918097 0.025252 0.780550 -0.740191
H57   H     H_    0.939649 0.115887 0.764665 0.249104
H58   H     H_    0.889709 0.108271 0.786492 0.207434
H59   H     H_    0.941792 0.971621 0.821258 0.208788
H60   H     H_    0.870943 0.788248 0.752758 0.193753
H61   H     H_    0.927041 0.769309 0.747217 0.181221
C107  C     C_3   0.110075 0.670733 0.274865 -0.351226
C108  C     C_3   0.091503 0.771008 0.219096 -0.711802
H62   H     H_    0.062076 0.865488 0.216928 0.229728
H63   H     H_    0.119637 0.851549 0.212078 0.200801
H64   H     H_    0.077788 0.668623 0.185106 0.212949
H65   H     H_    0.139216 0.574812 0.277431 0.198175
H66   H     H_    0.079998 0.582981 0.273609 0.177392
C109  C     C_3   0.603016 0.363250 0.759658 -0.377416
C110  C     C_3   0.581948 0.523007 0.719554 -0.739887
H67   H     H_    0.560344 0.613795 0.735315 0.249065
H68   H     H_    0.610261 0.606071 0.713454 0.207165
H69   H     H_    0.558274 0.468615 0.678942 0.208665
H70   H     H_    0.629278 0.286625 0.747691 0.193987
H71   H     H_    0.573211 0.267522 0.753295 0.181158
C111  C     C_3   0.390001 0.171149 0.225278 -0.351287
C112  C     C_3   0.408529 0.271659 0.281004 -0.711936
H72   H     H_    0.437935 0.366232 0.283144 0.229753
H73   H     H_    0.380366 0.352142 0.287969 0.200764
H74   H     H_    0.422261 0.169430 0.315041 0.212985
H75   H     H_    0.360881 0.075144 0.222741 0.198200
H76   H     H_    0.420104 0.083479 0.226588 0.177386

loop_
_geom_bond_atom_site_label_1
_geom_bond_atom_site_label_2
_ccdc_geom_bond_type
O17   V3    S    
C51   C55   A    
O1    C5    A    
C103  C104  S    
C55   C59   A    
O19   V1    S    
C9    C21   A    
C97   C98   S    
C46   C62   A    
O3    C7    A    
C10   C18   A    
C45   C61   A    
N4    C52   A    
C11   C23   A    
C111  C112  S    
C47   C63   A    
C111  H75   S    
C5    C12   S    
C108  H62   S    
O7    C3    A    
C6    C11   S    
C35   C40   A    
C52   O28   S    
N4    C95   S    
C75   C95   A    
C36   C39   A    
C50   O26   S    
O9    V1    S    
C14   C18   A    
C91   C95   A    
O4    C8    A    
C25   C29   A    
C108  H64   S    
C22   H13   S    
C89   H9    S    
C98   H37   S    
C86   C90   A    
C24   H15   S    
C88   C92   A    
O1    V3    S    
C1    C84   S    
O13   V1    S    
C102  H47   S    
O2    V4    S    
C78   C82   A    
O3    V1    S    
C18   H17   S    
C77   C81   A    
C28   C36   A    
C45   O21   S    
C1    O15   A    
C68   C72   A    
C15   C31   A    
C4    C81   S    
C56   C60   A    
C62   C69   A    
C2    O16   A    
C16   C32   A    
C107  H65   S    
O2    C6    A    
C43   H3    S    
C97   H40   S    
C38   H26   S    
C105  H61   S    
C106  H57   S    
C10   C22   A    
C39   H27   S    
C11   C19   A    
C16   C20   A    
O5    V1    S    
C92   C96   A    
C84   C88   A    
C13   C29   A    
C7    C10   S    
C34   C37   A    
O11   C7    A    
C109  H70   S    
O15   V3    S    
C92   H12   S    
C48   O24   S    
C73   C93   A    
C57   C61   A    
C90   C94   A    
C87   H7    S    
O10   V2    S    
C90   H10   S    
C101  H51   S    
C66   H30   S    
C58   C62   A    
C55   C67   A    
C108  H63   S    
C60   C64   A    
C15   C19   A    
C99   H45   S    
C109  H71   S    
C39   C43   A    
C75   C101  S    
C20   H19   S    
O7    V3    S    
C38   C42   A    
C28   C32   A    
C104  H52   S    
O8    V4    S    
C13   H21   S    
C47   O23   S    
C33   C38   A    
C67   C71   A    
C54   C58   A    
C59   C60   A    
C53   C57   A    
O18   V4    S    
C23   C27   A    
C17   H18   S    
C100  H43   S    
C32   C44   A    
C76   C80   A    
C75   C79   A    
C15   H23   S    
C44   H4    S    
C26   C34   A    
C82   C86   A    
C99   H46   S    
C101  C102  S    
C104  H53   S    
C35   C36   A    
C81   C85   A    
N3    C96   S    
C8    C9    S    
C37   H25   S    
C46   O22   S    
N2    C50   A    
C83   C87   A    
C109  C110  S    
C14   C30   A    
C110  H69   S    
C21   C25   A    
O8    C4    A    
C100  H44   S    
C65   C69   A    
C29   C41   A    
C40   H28   S    
C106  H59   S    
C74   C94   A    
O9    C5    A    
C105  H60   S    
C68   H32   S    
C74   C78   A    
C71   H35   S    
C110  H67   S    
C77   C105  S    
C69   H33   S    
C56   C68   A    
C103  H55   S    
C100  H42   S    
C67   H31   S    
C80   C111  S    
C99   C100  S    
O6    V2    S    
C49   O25   S    
C2    C83   S    
C65   H29   S    
O14   V2    S    
C51   O27   S    
C12   C20   A    
C3    C82   S    
O12   V4    S    
N1    C94   S    
C14   H22   S    
C107  H66   S    
C40   C44   A    
C112  H72   S    
C91   H11   S    
C63   C72   A    
O16   V4    S    
C73   C77   A    
C76   C103  S    
C23   H16   S    
C3    O13   A    
C89   C93   A    
C78   C107  S    
C48   N4    A    
O5    C1    A    
C61   C70   A    
O6    C2    A    
C25   C33   A    
C73   C97   S    
C70   H34   S    
O11   V3    S    
C76   C96   A    
C79   C83   A    
C97   H41   S    
C22   C26   A    
C79   C109  S    
C21   H14   S    
C72   H36   S    
C102  H49   S    
C85   H5    S    
O10   C6    A    
C87   C91   A    
O20   V2    S    
C88   H8    S    
C104  H54   S    
C9    C17   A    
C31   C43   A    
C26   C30   A    
C66   C70   A    
C101  H50   S    
C48   C64   A    
C112  H74   S    
C50   C54   A    
C103  H56   S    
C33   C34   A    
C42   H2    S    
C52   C56   A    
C98   H38   S    
C41   H1    S    
C74   C99   S    
C86   H6    S    
C102  H48   S    
C12   C24   A    
C27   C31   A    
C111  H76   S    
C37   C41   A    
C13   C17   A    
C105  C106  S    
C54   C66   A    
N2    C93   S    
O4    V2    S    
C53   C65   A    
C110  H68   S    
C59   C63   A    
N3    C51   A    
C85   C89   A    
C24   C28   A    
C27   C35   A    
C107  C108  S    
O12   C8    A    
N1    C49   A    
C46   N2    A    
C64   C71   A    
C4    O14   A    
C45   N1    A    
C16   H24   S    
C106  H58   S    
C57   C58   A    
C30   C42   A    
C47   N3    A    
C112  H73   S    
C49   C53   A    
C19   H20   S    
C80   C84   A    
C98   H39   S    
