data_mof_unit_23464.cif
_audit_creation_date              2012-12-10T16:52:08-0500
_audit_creation_method            fapswitch 2.2
_symmetry_space_group_name_H-M    P1
_symmetry_Int_Tables_number       1
_space_group_crystal_system       triclinic
_cell_length_a                    7.822681
_cell_length_b                    8.518895
_cell_length_c                    14.893156
_cell_angle_alpha                 92.573505
_cell_angle_beta                  84.251203
_cell_angle_gamma                 93.703568
_cell_volume                      984.696490375

loop_
_atom_site_label
_atom_site_type_symbol
_atom_type_description
_atom_site_fract_x
_atom_site_fract_y
_atom_site_fract_z
_atom_type_partial_charge
C1    C     C_R   0.544596 0.794663 0.498796 0.954166
C2    C     C_R   0.596395 0.602536 0.809239 -0.236043
C3    C     C_R   0.502498 0.514440 0.232122 -0.099728
C4    C     C_R   0.497503 0.485558 0.767877 -0.099729
C5    C     C_R   0.601965 0.631632 0.183397 0.125427
C6    C     C_R   0.398036 0.368364 0.816602 0.125426
C7    C     C_R   0.587947 0.636807 0.089816 0.010648
C8    C     C_R   0.412058 0.363188 0.910184 0.010648
C9    C     C_R   0.499268 0.506267 0.047030 0.022388
C10   C     C_R   0.500737 0.493729 0.952969 0.022387
C11   C     C_R   0.408436 0.387647 0.098311 0.098014
C12   C     C_R   0.455404 0.205337 0.501205 0.954165
C13   C     C_R   0.591570 0.612349 0.901688 0.098014
C14   C     C_R   0.660005 0.762798 0.036097 0.211597
C15   C     C_R   0.340004 0.237197 0.963902 0.211595
C16   C     C_3   0.967902 0.299205 0.342181 -0.583904
C17   C     C_3   0.032097 0.700793 0.657819 -0.583905
C18   C     C_R   0.668912 0.744653 0.942845 -0.194503
C19   C     C_R   0.331098 0.255342 0.057154 -0.194504
C20   C     C_2   0.560382 0.957425 0.514814 -0.077955
C21   C     C_2   0.439618 0.042575 0.485187 -0.077954
C22   C     C_R   0.498410 0.492892 0.672571 0.918677
C23   C     C_R   0.501590 0.507107 0.327429 0.918677
C24   C     C_R   0.403610 0.397461 0.190761 -0.236047
H1    H     H_    0.332381 0.307007 0.230854 0.163271
H2    H     H_    0.952218 0.790316 0.694691 0.222218
H3    H     H_    0.167973 0.748327 0.652325 0.251634
H4    H     H_    0.017625 0.592175 0.697187 0.245786
H5    H     H_    0.667624 0.692990 0.769146 0.163271
H6    H     H_    0.727036 0.839894 0.901959 0.191195
H7    H     H_    0.272976 0.160101 0.098039 0.191196
H8    H     H_    0.010903 0.233079 0.469176 0.259582
H9    H     H_    0.047780 0.209681 0.305310 0.222219
H10   H     H_    0.982375 0.407823 0.302813 0.245786
H11   H     H_    0.832025 0.251672 0.347676 0.251634
H12   H     H_    0.989096 0.766921 0.530825 0.259582
I1    I     I_    0.795701 0.768522 0.251215 -0.274121
I2    I     I_    0.204295 0.231473 0.748782 -0.274120
I3    I     I_    0.712633 0.001860 0.079812 -0.298540
I4    I     I_    0.287383 0.998131 0.920187 -0.298543
I5    I     I_    0.727677 0.033617 0.616356 -0.339390
I6    I     I_    0.272321 0.966383 0.383645 -0.339390
N1    N     N_2   0.950330 0.457950 0.475660 0.035879
N2    N     N_2   0.049670 0.542050 0.524340 0.035879
N3    N     N_2   0.024720 0.331542 0.430726 -0.195726
N4    N     N_2   0.975279 0.668457 0.569274 -0.195726
O1    O     O_R   0.389250 0.738570 0.505970 -0.615006
O2    O     O_R   0.610750 0.261430 0.494030 -0.615007
O3    O     O_R   0.678390 0.711620 0.490370 -0.600874
O4    O     O_R   0.321610 0.288380 0.509630 -0.600874
O5    O     O_R   0.355420 0.513510 0.639950 -0.618626
O6    O     O_R   0.644580 0.486490 0.360050 -0.618625
O7    O     O_R   0.644560 0.486560 0.624350 -0.591171
O8    O     O_R   0.355440 0.513440 0.375650 -0.591170
Zn1   Zn    Zn3+2 0.306940 0.517990 0.510420 1.015109
Zn2   Zn    Zn3+2 0.693060 0.482010 0.489580 1.015109

loop_
_geom_bond_atom_site_label_1
_geom_bond_atom_site_label_2
_ccdc_geom_bond_type
C16   N3    S    
C2    C4    A    
N1    N2    D    
C6    I2    S    
H12   N4    S    
C18   H6    S    
C5    I1    S    
C16   H9    S    
C8    C15   A    
O3    Zn2   S    
C9    C11   A    
C9    C10   A    
C14   C18   A    
C12   O4    A    
O4    Zn1   S    
C12   O2    A    
N1    Zn2   S    
C19   H7    S    
C20   C21   D    
C20   I5    S    
C3    C24   A    
C5    C7    A    
C24   H1    S    
C15   C19   A    
N1    N3    S    
N2    Zn1   S    
C11   C19   A    
C23   O6    A    
C1    O3    A    
C13   C18   A    
C2    H5    S    
C17   H2    S    
C4    C6    A    
N2    N4    S    
C22   O7    A    
O5    Zn1   S    
C7    C14   A    
C16   H11   S    
C15   I4    S    
C21   I6    S    
C17   H3    S    
C7    C9    A    
C11   C24   A    
C4    C22   S    
C17   N4    S    
C23   O8    A    
O1    Zn1   S    
H8    N3    S    
O7    Zn2   S    
O2    Zn2   S    
C2    C13   A    
O8    Zn1   S    
C1    O1    A    
C1    C20   S    
C6    C8    A    
C16   H10   S    
C14   I3    S    
C17   H4    S    
C3    C23   S    
C12   C21   S    
C8    C10   A    
O6    Zn2   S    
C22   O5    A    
C3    C5    A    
C10   C13   A    
