data_mof_unit_36570.cif
_audit_creation_date              2013-03-05T15:58:47-0500
_audit_creation_method            fapswitch 2.2
_symmetry_space_group_name_H-M    P1
_symmetry_Int_Tables_number       1
_space_group_crystal_system       triclinic
_cell_length_a                    6.979221
_cell_length_b                    14.458511
_cell_length_c                    15.888377
_cell_angle_alpha                 90.245073
_cell_angle_beta                  89.875215
_cell_angle_gamma                 90.094315
_cell_volume                      1603.26189974

loop_
_atom_site_label
_atom_site_type_symbol
_atom_site_description
_atom_site_fract_x
_atom_site_fract_y
_atom_site_fract_z
_atom_type_partial_charge
O1    O     O_R   0.494320 0.415010 0.412140 -0.626015
O2    O     O_R   0.824010 0.404260 0.587250 -0.534228
O3    O     O_R   0.994320 0.584990 0.587860 -0.561387
C1    C     C_R   0.654480 0.378301 0.612727 1.207401
O4    O     O_R   0.824040 0.403870 0.412760 -0.591729
O5    O     O_R   0.994350 0.584590 0.412130 -0.613516
C2    C     C_R   0.655349 0.380955 0.384287 1.031159
O6    O     O_R   0.494300 0.415410 0.587870 -0.566025
O7    O     O_3   0.660800 0.559290 0.500000 -0.275309
V1    V     V_3+5 0.935650 0.489000 0.500000 1.318896
O8    O     O_R   0.324060 0.595740 0.412750 -0.613550
C3    C     C_R   0.155458 0.618170 0.383865 0.966992
O9    O     O_R   0.324040 0.596130 0.587240 -0.558933
C4    C     C_R   0.155073 0.618053 0.616247 1.170789
V2    V     V_3+5 0.435660 0.511000 0.500000 1.300250
O10   O     O_3   0.160640 0.440710 0.500000 -0.260568
C5    C     C_3   0.957063 0.727335 0.724950 0.957997
C6    C     C_3   0.037313 0.715019 0.815112 -0.299043
H1    H     H_    0.959428 0.684159 0.869170 0.239773
C7    C     C_3   0.120882 0.814122 0.810468 -0.555652
C8    C     C_3   0.036451 0.827431 0.720983 -0.377400
C9    C     C_3   0.224664 0.787974 0.683072 0.677089
C10   C     C_3   0.308278 0.776659 0.772063 0.765226
C11   C     C_3   0.224989 0.678658 0.775543 0.097930
C12   C     C_3   0.143792 0.688572 0.686193 -0.731694
H2    H     H_    0.957373 0.888998 0.698258 0.244786
C13   C     C_3   0.333900 0.804521 0.223629 0.195158
H3    H     H_    0.428083 0.780797 0.171011 0.111912
C14   C     C_3   0.346564 0.729939 0.293457 -0.471586
H4    H     H_    0.410354 0.759085 0.351970 0.229020
H5    H     H_    0.444634 0.673787 0.272136 0.175382
H6    H     H_    0.173987 0.689954 0.107898 0.086490
H7    H     H_    0.160590 0.582347 0.213709 0.172625
C15   C     C_3   0.068823 0.712920 0.156387 0.511616
C16   C     C_3   0.981650 0.835998 0.260553 0.761605
C17   C     C_3   0.123825 0.811839 0.187897 -0.475398
H8    H     H_    0.832981 0.826464 0.237292 0.109983
C18   C     C_3   0.145696 0.688663 0.312903 -0.124952
C19   C     C_3   0.069668 0.642792 0.230730 -0.433854
C20   C     C_3   0.010403 0.770230 0.336618 -0.468058
H9    H     H_    0.071372 0.809212 0.390845 0.249764
H10   H     H_    0.868163 0.743419 0.356953 0.153825
H11   H     H_    0.922014 0.616135 0.241608 0.241399
C21   C     C_3   0.451488 0.249470 0.676568 0.435634
H12   H     H_    0.331411 0.297317 0.690474 0.201480
C22   C     C_3   0.450416 0.168369 0.741294 0.869624
H13   H     H_    0.497586 0.297128 0.879718 0.298448
C23   C     C_3   0.647029 0.354268 0.769887 0.896907
C24   C     C_3   0.812897 0.232731 0.675606 0.933713
C25   C     C_3   0.644165 0.305078 0.681454 -0.810065
C26   C     C_3   0.618187 0.180905 0.805850 -0.515905
C27   C     C_3   0.625879 0.281396 0.841607 -0.578592
C28   C     C_3   0.802694 0.167446 0.753981 -0.457505
H14   H     H_    0.824998 0.093364 0.738283 0.246395
H15   H     H_    0.916127 0.186702 0.797161 0.290218
H16   H     H_    0.744226 0.286599 0.888039 0.225914
C29   C     C_3   0.591415 0.359718 0.229354 0.554060
H17   H     H_    0.453804 0.397154 0.238361 0.077879
C30   C     C_3   0.576414 0.287977 0.155654 0.095077
H18   H     H_    0.689172 0.305468 0.108470 0.151357
H19   H     H_    0.346233 0.269800 0.336499 0.227573
C31   C     C_3   0.489476 0.236444 0.331633 -0.562083
C32   C     C_3   0.839291 0.259968 0.299442 -0.253398
C33   C     C_3   0.645037 0.310775 0.312903 -0.259592
H20   H     H_    0.879454 0.222401 0.357681 0.228286
H21   H     H_    0.955568 0.310659 0.286323 0.235989
C34   C     C_3   0.620566 0.187649 0.187377 -0.434127
C35   C     C_3   0.484812 0.161188 0.261721 0.767142
C36   C     C_3   0.826286 0.190317 0.225425 -0.405344
H22   H     H_    0.931095 0.210004 0.175998 0.276084
H23   H     H_    0.867906 0.120350 0.247912 0.255142
H24   H     H_    0.518654 0.203393 0.393432 0.236171
H25   H     H_    0.534885 0.095083 0.289435 0.128486
O11   O     O_R   0.771990 0.083520 0.910980 -0.603300
O12   O     O_R   0.442180 0.095020 0.086060 -0.520515
O13   O     O_R   0.271950 0.914280 0.086680 -0.597356
C37   C     C_R   0.610796 0.117079 0.115594 1.051948
O14   O     O_R   0.442270 0.094630 0.911580 -0.553315
O15   O     O_R   0.272040 0.913890 0.910940 -0.576228
C38   C     C_R   0.610147 0.112448 0.879138 1.113691
O16   O     O_R   0.771900 0.083910 0.086710 -0.605498
O17   O     O_3   0.605520 0.939610 0.998840 -0.263219
V3    V     V_3+5 0.330640 0.009880 0.998810 1.367184
O18   O     O_R   0.942330 0.902710 0.911540 -0.581956
C39   C     C_R   0.110946 0.882323 0.881672 1.149444
O19   O     O_R   0.942240 0.903100 0.086030 -0.554938
C40   C     C_R   0.111285 0.881604 0.115853 1.032792
V4    V     V_3+5 0.830640 0.987830 0.998780 1.324394
O20   O     O_3   0.105630 0.058150 0.998800 -0.252491
F1    F     F_    0.997408 0.927623 0.285341 -0.628325
F2    F     F_    0.889659 0.713001 0.118740 -0.669708
F3    F     F_    0.774306 0.702274 0.700309 -0.578702
F4    F     F_    0.420097 0.215934 0.595796 -0.589826
F5    F     F_    0.477376 0.085597 0.697847 -0.582789
N1    N     N_R   0.266057 0.162823 0.783928 0.211052
O21   O     O_R   0.213986 0.228463 0.835325 -0.382664
O22   O     O_R   0.177604 0.083448 0.786298 -0.387205
F6    F     F_    0.489938 0.412473 0.775068 -0.624390
F7    F     F_    0.987215 0.278263 0.678303 -0.657237
N2    N     N_R   0.807005 0.180967 0.595218 0.278944
O23   O     O_R   0.845776 0.223590 0.525302 -0.379727
O24   O     O_R   0.781350 0.091818 0.592341 -0.257983
N3    N     N_R   0.819969 0.411707 0.780663 0.264182
O25   O     O_R   0.821314 0.496426 0.753381 -0.298295
O26   O     O_R   0.971384 0.380637 0.818776 -0.267012
F8    F     F_    0.728251 0.426024 0.209825 -0.692170
N4    N     N_R   0.390316 0.294391 0.113146 0.256243
O27   O     O_R   0.232129 0.302433 0.155922 -0.374785
O28   O     O_R   0.384347 0.303438 0.031832 -0.354446
F9    F     F_    0.298273 0.146572 0.235245 -0.638558
F10   F     F_    0.322786 0.825774 0.615784 -0.583535
F11   F     F_    0.491422 0.802253 0.795854 -0.598771
N5    N     N_R   0.326681 0.599108 0.808531 0.303292
O29   O     O_R   0.228827 0.529568 0.837489 -0.220947
O30   O     O_R   0.507873 0.605968 0.826507 -0.228361
N6    N     N_R   0.408962 0.893715 0.253888 0.268571
O31   O     O_R   0.549346 0.933035 0.213641 -0.427519
O32   O     O_R   0.355993 0.927963 0.326147 -0.283102

loop_
_geom_bond_atom_site_label_1
_geom_bond_atom_site_label_2
_geom_bond_distance
_ccdc_geom_bond_type
C18   C20   1.556503 S    
C8    H2    1.110226 S    
C32   H20   1.111642 S    
C13   C14   1.553220 S    
N1    O21   1.301094 A    
C34   C37   1.528620 S    
C1    O6    1.303582 A    
C28   H14   1.109879 S    
C11   N5    1.452853 S    
C10   F11   1.383100 S    
H7    C19   1.112943 S    
C6    C11   1.543739 S    
C16   H8    1.110385 S    
V4    O20   2.170413 S    
O5    C3    1.303674 A    
C18   C19   1.555779 S    
O14   C38   1.304731 A    
C29   C30   1.564561 S    
V2    O10   2.170394 S    
N6    O31   1.300241 A    
C6    H1    1.110275 S    
C36   H23   1.113508 S    
C26   C38   1.532356 S    
C31   C33   1.555573 S    
C21   F4    1.387668 S    
N3    O25   1.301107 A    
C30   C34   1.568948 S    
C15   F2    1.387295 S    
O8    V2    2.012935 S    
O14   V3    2.008982 S    
O11   V4    2.012116 S    
C22   N1    1.455044 S    
C32   C36   1.547720 S    
C9    C12   1.544155 S    
C14   C18   1.553678 S    
N4    O27   1.300300 A    
O1    V2    2.006313 S    
O7    V1    2.172304 S    
C6    C7    1.548142 S    
O17   V4    1.717853 S    
C13   N6    1.470451 S    
C23   C25   1.572226 S    
C29   F8    1.387672 S    
C32   H21   1.112571 S    
C30   H18   1.115211 S    
O11   C38   1.308664 A    
O9    C4    1.304278 A    
N4    O28   1.299870 A    
H19   C31   1.113084 S    
C5    F3    1.382361 S    
O13   V3    2.009882 S    
O4    V1    2.007485 S    
C21   C22   1.562965 S    
C28   H15   1.083949 S    
C17   C40   1.531660 S    
V3    O20   1.719543 S    
O19   V4    2.012844 S    
C15   C19   1.560018 S    
C11   C12   1.537058 S    
O4    C2    1.303948 A    
O19   C40   1.310713 A    
C19   H11   1.113036 S    
C35   H25   1.111273 S    
C23   N3    1.473850 S    
C22   C26   1.568076 S    
O17   V3    2.172356 S    
C5    C8    1.550301 S    
C34   C35   1.561106 S    
C1    C25   1.525691 S    
C34   C36   1.559406 S    
C16   C17   1.559454 S    
H6    C15   1.112941 S    
O2    C1    1.304760 A    
C14   H4    1.112622 S    
C24   F7    1.383006 S    
C22   F5    1.391857 S    
C7    C10   1.540229 S    
C37   O16   1.304792 A    
C10   C11   1.531844 S    
C7    C39   1.499123 S    
N2    O24   1.301667 A    
C5    C6    1.550331 S    
C31   H24   1.113157 S    
N3    O26   1.300727 A    
C35   F9    1.384654 S    
O18   C39   1.301718 A    
O12   C37   1.306401 A    
O13   C40   1.301259 A    
O3    C4    1.299723 A    
C20   H9    1.112531 S    
C24   C25   1.578722 S    
O6    V2    2.011876 S    
O9    V2    2.006741 S    
O2    V1    2.009138 S    
O15   C39   1.299003 A    
C21   H12   1.108836 S    
C29   C33   1.553719 S    
N5    O29   1.299754 A    
C21   C25   1.567523 S    
O1    C2    1.303506 A    
O18   V4    2.006841 S    
O5    V1    2.009798 S    
O8    C3    1.305878 A    
N1    O22   1.302894 A    
H13   C27   1.103287 S    
C13   C17   1.577269 S    
C23   F6    1.385310 S    
C31   C35   1.551952 S    
C5    C12   1.545197 S    
C16   C20   1.554545 S    
O7    V2    1.718390 S    
C26   C27   1.558697 S    
C14   H5    1.113922 S    
O3    V1    2.006637 S    
V1    O10   1.719534 S    
C24   N2    1.478210 S    
O15   V3    2.006648 S    
O12   V3    2.007492 S    
C29   H17   1.111892 S    
C24   C28   1.567207 S    
C20   H10   1.112914 S    
N2    O23   1.300377 A    
N6    O32   1.301475 A    
C15   C17   1.560915 S    
C4    C12   1.506994 S    
C3    C18   1.524804 S    
C36   H22   1.109738 S    
C30   N4    1.468482 S    
C2    C33   1.520331 S    
O16   V4    2.008094 S    
C32   C33   1.556945 S    
C16   F1    1.384726 S    
C23   C27   1.561859 S    
C7    C8    1.553083 S    
C9    F10   1.382467 S    
C13   H3    1.115592 S    
C9    C10   1.540259 S    
C26   C28   1.539507 S    
C8    C9    1.552370 S    
C27   H16   1.110903 S    
N5    O30   1.300566 A    
