data_mof_unit_25362.cif
_audit_creation_date              2012-10-26T20:01:49-0400
_audit_creation_method            fapswitch 2.2
_symmetry_space_group_name_H-M    P1
_symmetry_Int_Tables_number       1
_space_group_crystal_system       triclinic
_cell_length_a                    11.702131
_cell_length_b                    10.836251
_cell_length_c                    9.637804
_cell_angle_alpha                 89.396138
_cell_angle_beta                  89.365021
_cell_angle_gamma                 94.19276
_cell_volume                      1218.71864219

loop_
_atom_site_label
_atom_site_type_symbol
_atom_type_description
_atom_site_fract_x
_atom_site_fract_y
_atom_site_fract_z
_atom_type_partial_charge
C1    C     C_R   0.509613 0.263235 0.501123 0.568198
C2    C     C_R   0.483453 0.871380 0.500566 -0.063226
C3    C     C_R   0.635528 0.697345 0.130508 0.323961
C4    C     C_R   0.284184 0.499597 0.500589 0.531071
C5    C     C_R   0.671885 0.800218 0.045375 -0.112308
C6    C     C_R   0.677477 0.788128 0.904707 -0.200233
C7    C     C_R   0.635201 0.679999 0.845883 -0.091825
C8    C     C_R   0.565926 0.590634 0.921436 0.067299
C9    C     C_R   0.565491 0.594645 0.070860 0.136092
C10   C     C_R   0.438734 0.412358 0.076083 -0.011588
C11   C     C_R   0.435896 0.413697 0.927752 0.388624
C12   C     C_R   0.503788 0.049061 0.883602 -0.033305
C13   C     C_R   0.491040 0.736819 0.499884 0.534694
C14   C     C_R   0.715751 0.499563 0.499437 0.538809
C15   C     C_1   0.162430 0.500312 0.501377 -0.043852
C16   C     C_1   0.059938 0.500788 0.500504 -0.063910
C17   C     C_1   0.940092 0.500734 0.499013 -0.070141
C18   C     C_1   0.837542 0.500186 0.498400 -0.049703
C19   C     C_R   0.545723 0.109000 0.762446 0.274983
C20   C     C_3   0.679119 0.155713 0.250631 -0.011050
C21   C     C_3   0.708034 0.259337 0.145883 -0.355141
C22   C     C_3   0.257987 0.312015 0.891605 -0.027457
C23   C     C_R   0.436820 0.937505 0.878876 0.228473
C24   C     C_3   0.219726 0.180154 0.936376 -0.388866
C25   C     C_3   0.734213 0.171287 0.721980 0.003270
C26   C     C_3   0.831790 0.259214 0.774394 -0.253702
C27   C     C_3   0.945982 0.231627 0.708080 -0.485784
C28   C     C_3   0.310009 0.793077 0.996581 -0.019872
C29   C     C_3   0.264995 0.760608 0.141952 -0.368083
C30   C     C_3   0.757386 0.781517 0.313154 0.009433
C31   C     C_3   0.879502 0.773945 0.255657 -0.280188
C32   C     C_3   0.962052 0.870475 0.322821 -0.486038
C33   C     C_R   0.422285 0.879732 0.748692 -0.111079
C34   C     C_R   0.470937 0.935932 0.626456 -0.073370
C35   C     C_R   0.512201 0.060602 0.631135 -0.043818
C36   C     C_R   0.522173 0.129012 0.504512 -0.018595
C37   C     C_R   0.530121 0.065274 0.378292 0.225755
C38   C     C_R   0.510042 0.937617 0.377381 -0.134662
Cu1   Cu    Cu3+1 0.499990 0.499990 0.640660 0.991668
Cu2   Cu    Cu3+1 0.500010 0.500010 0.359340 0.968252
H1    H     H_    0.720593 0.860661 0.841162 0.101188
H2    H     H_    0.675296 0.232621 0.042456 0.177907
H3    H     H_    0.668924 0.344470 0.178259 0.205835
H4    H     H_    0.802367 0.279141 0.139145 0.077227
H5    H     H_    0.210657 0.334868 0.796759 0.158129
H6    H     H_    0.232529 0.377063 0.973533 0.085600
H7    H     H_    0.266863 0.154039 0.030373 0.169433
H8    H     H_    0.126420 0.172938 0.960337 0.094383
H9    H     H_    0.236977 0.114995 0.851727 0.161770
H10   H     H_    0.733782 0.177251 0.606843 0.117866
H11   H     H_    0.751608 0.075347 0.754497 0.104912
H12   H     H_    0.657966 0.672648 0.739771 0.189460
H13   H     H_    0.813904 0.356282 0.750382 0.196005
H14   H     H_    0.838553 0.249023 0.888538 0.146875
H15   H     H_    0.969103 0.137675 0.739065 0.138346
H16   H     H_    0.013757 0.300599 0.743470 0.142887
H17   H     H_    0.941354 0.237448 0.593151 0.152118
H18   H     H_    0.339520 0.707064 0.950603 0.133795
H19   H     H_    0.238682 0.827856 0.935121 0.119380
H20   H     H_    0.241589 0.845597 0.195356 0.153979
H21   H     H_    0.188303 0.694209 0.136477 0.092902
H22   H     H_    0.331951 0.717638 0.202643 0.190686
H23   H     H_    0.525701 0.088206 0.983280 0.181907
H24   H     H_    0.760742 0.767231 0.427311 0.141759
H25   H     H_    0.725375 0.874395 0.301685 0.093875
H26   H     H_    0.908448 0.680374 0.276912 0.178870
H27   H     H_    0.882572 0.789181 0.141702 0.149663
H28   H     H_    0.934987 0.965001 0.301976 0.136393
H29   H     H_    0.049382 0.864075 0.279093 0.146031
H30   H     H_    0.964742 0.854233 0.436705 0.145853
H31   H     H_    0.373138 0.792013 0.741731 0.134465
H32   H     H_    0.518806 0.890405 0.279840 0.183799
H33   H     H_    0.390618 0.339219 0.133476 0.145185
H34   H     H_    0.711410 0.885498 0.084500 0.098887
H35   H     H_    0.723116 0.073542 0.217614 0.107980
H36   H     H_    0.714402 0.187438 0.352289 0.105076
N1    N     N_R   0.501070 0.501210 0.147910 -0.284588
N2    N     N_R   0.501110 0.501290 0.852040 -0.227036
O1    O     O_R   0.499990 0.319640 0.618810 -0.401617
O2    O     O_3   0.376278 0.319211 0.857597 -0.516690
O3    O     O_3   0.628590 0.206149 0.776524 -0.545570
O4    O     O_3   0.402123 0.884028 0.006184 -0.562714
O5    O     O_3   0.680733 0.685732 0.261755 -0.517121
O6    O     O_R   0.500000 0.319660 0.381240 -0.475683
O7    O     O_R   0.337190 0.500000 0.618790 -0.492677
O8    O     O_R   0.337200 0.500030 0.381210 -0.513840
O9    O     O_R   0.500000 0.680340 0.618760 -0.537896
O10   O     O_R   0.500010 0.680360 0.381190 -0.465207
O11   O     O_R   0.662800 0.499970 0.618790 -0.524513
O12   O     O_R   0.662810 0.500000 0.381210 -0.442775
O13   O     O_3   0.559091 0.126725 0.254793 -0.545286

loop_
_geom_bond_atom_site_label_1
_geom_bond_atom_site_label_2
_ccdc_geom_bond_type
C31   H26   S    
C8    N2    A    
C23   O4    S    
C30   H24   S    
Cu2   O6    S    
C35   C36   A    
Cu1   O9    S    
C7    C8    A    
C1    O6    A    
C31   H27   S    
C12   C23   A    
C26   C27   S    
C36   C37   A    
C7    H12   S    
C5    C6    A    
C10   H33   S    
C27   H15   S    
C4    O8    A    
C15   C16   T    
C30   O5    S    
C20   H36   S    
C34   C35   A    
Cu2   O8    S    
C5    H34   S    
C2    C13   S    
C14   C18   S    
C25   H10   S    
C14   O12   A    
C21   H3    S    
C8    C9    A    
C23   C33   A    
C6    H1    S    
C32   H28   S    
C2    C34   A    
C25   O3    S    
C26   H14   S    
C10   N1    A    
C12   C19   A    
C17   C18   T    
C38   H32   S    
C20   O13   S    
C29   H21   S    
C37   O13   S    
C28   O4    S    
C24   H8    S    
Cu1   N2    S    
C27   H17   S    
Cu1   Cu2   S    
C12   H23   S    
C27   H16   S    
C16   C17   S    
C32   H30   S    
C4    O7    A    
C25   C26   S    
C20   H35   S    
Cu1   O1    S    
C25   H11   S    
C14   O11   A    
C37   C38   A    
C3    C9    A    
C11   N2    A    
C21   H4    S    
C2    C38   A    
C31   C32   S    
C29   H20   S    
C13   O9    A    
C33   C34   A    
C9    N1    A    
C6    C7    A    
C22   H6    S    
C10   C11   A    
C3    O5    S    
C1    O1    A    
C22   C24   S    
Cu1   O7    S    
C26   H13   S    
C28   H19   S    
C24   H9    S    
C29   H22   S    
C28   C29   S    
C24   H7    S    
C3    C5    A    
C32   H29   S    
C28   H18   S    
Cu2   O10   S    
C4    C15   S    
C22   O2    S    
C19   C35   A    
C30   C31   S    
C13   O10   A    
C30   H25   S    
C11   O2    S    
C33   H31   S    
C21   H2    S    
C22   H5    S    
C20   C21   S    
Cu2   N1    S    
Cu2   O12   S    
C19   O3    S    
Cu1   O11   S    
C1    C36   S    
