data_mof_unit_22919.cif
_audit_creation_date              2012-12-10T19:45:00-0500
_audit_creation_method            fapswitch 2.2
_symmetry_space_group_name_H-M    P1
_symmetry_Int_Tables_number       1
_space_group_crystal_system       triclinic
_cell_length_a                    15.082512
_cell_length_b                    10.972618
_cell_length_c                    13.700361
_cell_angle_alpha                 91.040423
_cell_angle_beta                  89.958425
_cell_angle_gamma                 89.611275
_cell_volume                      2266.90954919

loop_
_atom_site_label
_atom_site_type_symbol
_atom_type_description
_atom_site_fract_x
_atom_site_fract_y
_atom_site_fract_z
_atom_type_partial_charge
C1    C     C_R   0.505234 0.262201 0.499004 0.790675
C2    C     C_R   0.530945 0.881926 0.684945 0.151946
C3    C     C_R   0.563057 0.126535 0.244607 -0.213018
C4    C     C_R   0.453978 0.879821 0.742392 -0.126111
C5    C     C_R   0.545481 0.152081 0.146767 0.180660
C6    C     C_R   0.458891 0.851635 0.841398 0.185424
C7    C     C_R   0.457612 0.174068 0.116896 0.215418
C8    C     C_R   0.541770 0.824702 0.883295 0.220069
C9    C     C_R   0.518467 0.933505 0.409497 -0.067538
C10   C     C_R   0.536675 0.067334 0.584741 -0.058014
C11   C     C_R   0.517157 0.871768 0.499902 -0.152481
C12   C     C_R   0.505557 0.737900 0.500492 0.815350
C13   C     C_R   0.516710 0.128499 0.497054 -0.174344
C14   C     C_R   0.527706 0.939902 0.588060 -0.042409
C15   C     C_R   0.509371 0.060643 0.408444 -0.046727
C16   C     C_R   0.328474 0.499878 0.500035 0.821600
C17   C     C_R   0.671522 0.500128 0.499968 0.809746
C18   C     C_R   0.577283 0.479256 0.793437 0.037262
C19   C     C_R   0.422722 0.520695 0.206556 0.015614
C20   C     C_R   0.422775 0.521371 0.794190 0.033976
C21   C     C_R   0.577322 0.479276 0.205822 0.068049
C22   C     C_R   0.420774 0.520273 0.896981 0.009233
C23   C     C_R   0.045999 0.512348 0.677813 -0.197130
C24   C     C_R   0.579332 0.480395 0.103032 0.004145
C25   C     C_R   0.500062 0.500327 0.948277 0.112971
C26   C     C_R   0.499947 0.499474 0.051716 0.109785
C27   C     C_R   0.579371 0.480748 0.896254 0.012372
C28   C     C_R   0.420674 0.519464 0.103745 0.004002
C29   C     C_R   0.341488 0.538127 0.949461 -0.141013
C30   C     C_R   0.658754 0.463794 0.050580 -0.141500
C31   C     C_R   0.341502 0.538339 0.051977 -0.158963
C32   C     C_R   0.658699 0.463228 0.948039 -0.155177
C33   C     C_R   0.814832 0.494329 0.411232 -0.221236
C34   C     C_R   0.953961 0.487841 0.322209 -0.195243
C35   C     C_R   0.185137 0.505826 0.588786 -0.232165
C36   C     C_R   0.768360 0.500350 0.499960 -0.070163
C37   C     C_R   0.231615 0.499718 0.500056 -0.074388
C38   C     C_R   0.814627 0.506531 0.588712 -0.250316
C39   C     C_R   0.185334 0.493530 0.411310 -0.244883
C40   C     C_R   0.906986 0.506474 0.589357 0.109229
C41   C     C_R   0.092974 0.493652 0.410668 0.108562
C42   C     C_R   0.953510 0.500186 0.500002 0.062078
C43   C     C_R   0.046451 0.499971 0.500022 0.062727
C44   C     C_R   0.907191 0.494114 0.410627 0.103648
C45   C     C_R   0.389051 0.173500 0.185797 -0.212061
C46   C     C_R   0.092773 0.506059 0.589395 0.106457
C47   C     C_R   0.953557 0.512557 0.677794 -0.203846
C48   C     C_R   0.046401 0.487594 0.322230 -0.203909
C49   C     C_2   0.530548 0.868398 0.314018 0.448145
C50   C     C_2   0.574363 0.135611 0.670364 0.441483
C51   C     C_R   0.617576 0.818790 0.824279 -0.183960
C52   C     C_R   0.406560 0.144265 0.282727 -0.168417
C53   C     C_R   0.612406 0.847382 0.725476 -0.156621
C54   C     C_R   0.493468 0.118094 0.312250 0.093846
Cu1   Cu    Cu3+1 0.500010 0.499980 0.597420 0.959839
Cu2   Cu    Cu3+1 0.499990 0.500020 0.402580 0.977386
H1    H     H_    0.779324 0.489545 0.342532 0.150523
H2    H     H_    0.720641 0.448845 0.909307 0.134703
H3    H     H_    0.778949 0.511595 0.657399 0.144480
H4    H     H_    0.221006 0.488411 0.342622 0.144613
H5    H     H_    0.918491 0.517431 0.746845 0.143919
H6    H     H_    0.081464 0.482707 0.253177 0.144019
H7    H     H_    0.080906 0.517094 0.746880 0.147249
H8    H     H_    0.919053 0.483111 0.253142 0.147443
H9    H     H_    0.321361 0.190301 0.163286 0.166719
H10   H     H_    0.681394 0.797439 0.855989 0.164814
H11   H     H_    0.352085 0.136901 0.333787 0.143849
H12   H     H_    0.220647 0.510645 0.657485 0.148013
H13   H     H_    0.672377 0.849342 0.682025 0.135176
H14   H     H_    0.630146 0.104468 0.266607 0.171989
H15   H     H_    0.390979 0.906957 0.711393 0.150457
H16   H     H_    0.480965 0.876876 0.257122 0.091227
H17   H     H_    0.625977 0.202291 0.658633 0.052770
H18   H     H_    0.637925 0.461529 0.753693 0.120324
H19   H     H_    0.362077 0.538410 0.246292 0.125454
H20   H     H_    0.362188 0.539433 0.755068 0.128219
H21   H     H_    0.637995 0.461800 0.244944 0.124737
H22   H     H_    0.279590 0.552903 0.911252 0.142503
H23   H     H_    0.720752 0.449884 0.088806 0.140466
H24   H     H_    0.279640 0.553414 0.090711 0.134997
I1    I     I_    0.422635 0.197208 0.968760 -0.261637
I2    I     I_    0.558712 0.805852 0.035517 -0.310286
I3    I     I_    0.653195 0.143284 0.047301 -0.314396
I4    I     I_    0.339911 0.860341 0.923725 -0.356479
N1    N     N_R   0.499960 0.499900 0.743810 -0.184417
N2    N     N_R   0.500040 0.500100 0.256190 -0.180046
O1    O     O_R   0.500000 0.319630 0.582270 -0.573887
O2    O     O_2   0.546546 0.121819 0.753072 -0.491732
O3    O     O_R   0.500000 0.680370 0.417730 -0.551534
O4    O     O_R   0.499990 0.319660 0.417730 -0.566945
O5    O     O_R   0.500010 0.680340 0.582270 -0.584607
O6    O     O_R   0.370260 0.499960 0.582280 -0.594344
O7    O     O_R   0.629740 0.500040 0.417720 -0.587777
O8    O     O_R   0.370250 0.499990 0.417740 -0.603264
O9    O     O_R   0.629750 0.500010 0.582260 -0.612530
O10   O     O_2   0.598199 0.809793 0.297392 -0.504844

loop_
_geom_bond_atom_site_label_1
_geom_bond_atom_site_label_2
_ccdc_geom_bond_type
C1    O1    A    
C40   C47   A    
C30   C32   A    
Cu1   Cu2   S    
C1    O4    A    
C22   C29   A    
C12   O5    A    
C32   H2    S    
C19   N2    A    
C53   H13   S    
C31   H24   S    
C39   C41   A    
Cu2   O8    S    
C8    I2    S    
C7    C45   A    
C35   C37   A    
C24   C26   A    
C5    I3    S    
C3    C54   A    
C33   C36   A    
C20   H20   S    
Cu1   O5    S    
C48   H6    S    
C29   H22   S    
C49   H16   S    
C10   C13   A    
C17   O9    A    
C17   C36   S    
C50   O2    D    
C16   C37   S    
C23   H7    S    
C18   H18   S    
C23   C46   A    
C41   C43   A    
C42   C44   A    
C52   C54   A    
Cu2   O7    S    
C18   N1    A    
C6    I4    S    
C15   C54   S    
C12   O3    A    
C3    H14   S    
C9    C49   S    
Cu2   O4    S    
Cu1   O9    S    
C10   C14   A    
C50   H17   S    
C5    C7    A    
C6    C8    A    
C45   C52   A    
C25   C26   A    
C22   C25   A    
C51   C53   A    
C51   H10   S    
Cu1   N1    S    
C1    C13   S    
C2    C4    A    
Cu1   O6    S    
Cu2   N2    S    
C20   N1    A    
C34   H8    S    
C34   C44   A    
C19   C28   A    
C9    C11   A    
C8    C51   A    
C52   H11   S    
C30   H23   S    
C4    C6    A    
Cu2   O3    S    
C7    I1    S    
C20   C22   A    
C16   O6    A    
C13   C15   A    
C45   H9    S    
C17   O7    A    
C42   C43   A    
C10   C50   S    
C19   H19   S    
C21   N2    A    
C33   H1    S    
C27   C32   A    
C33   C44   A    
C16   O8    A    
C28   C31   A    
C18   C27   A    
C3    C5    A    
C2    C53   A    
C47   H5    S    
C11   C12   S    
C25   C27   A    
C26   C28   A    
C23   C47   A    
C36   C38   A    
C9    C15   A    
C37   C39   A    
C38   C40   A    
C35   H12   S    
C39   H4    S    
C40   C42   A    
C11   C14   A    
C41   C48   A    
C49   O10   D    
Cu1   O1    S    
C2    C14   S    
C43   C46   A    
C24   C30   A    
C38   H3    S    
C34   C48   A    
C29   C31   A    
C21   C24   A    
C21   H21   S    
C35   C46   A    
C4    H15   S    
