data_mof_unit_42686.cif
_audit_creation_date              2012-12-10T16:51:19-0500
_audit_creation_method            fapswitch 2.2
_symmetry_space_group_name_H-M    P1
_symmetry_Int_Tables_number       1
_space_group_crystal_system       triclinic
_cell_length_a                    27.847294
_cell_length_b                    8.754644
_cell_length_c                    7.398461
_cell_angle_alpha                 102.9337
_cell_angle_beta                  93.400903
_cell_angle_gamma                 91.606158
_cell_volume                      1753.25560755

loop_
_atom_site_label
_atom_site_type_symbol
_atom_type_description
_atom_site_fract_x
_atom_site_fract_y
_atom_site_fract_z
_atom_type_partial_charge
C1    C     C_R   0.501535 0.201142 0.455031 0.881476
C2    C     C_R   0.501036 0.799674 0.545270 0.828011
C3    C     C_R   0.102797 0.456174 0.544259 -0.074468
C4    C     C_R   0.899081 0.464604 0.532403 -0.071741
C5    C     C_R   0.125253 0.311191 0.497357 -0.003916
C6    C     C_R   0.876756 0.605963 0.603538 -0.004293
C7    C     C_R   0.097243 0.171499 0.447592 -0.184799
C8    C     C_R   0.904755 0.741090 0.685541 -0.180049
C9    C     C_R   0.131377 0.597996 0.590180 -0.049241
C10   C     C_R   0.870284 0.326818 0.455462 -0.066378
C11   C     C_R   0.354501 0.478330 0.514018 -0.162188
C12   C     C_R   0.646558 0.516335 0.491832 -0.138425
C13   C     C_R   0.972556 0.320181 0.467809 -0.000159
C14   C     C_R   0.029221 0.602120 0.601751 0.006815
C15   C     C_R   0.978343 0.602820 0.610343 0.064595
C16   C     C_R   0.023566 0.315928 0.483689 0.066689
C17   C     C_R   0.950135 0.462356 0.537021 0.071153
C18   C     C_R   0.051749 0.458230 0.543742 0.071645
C19   C     C_R   0.943312 0.188018 0.376470 -0.227264
C20   C     C_R   0.058208 0.741630 0.648868 -0.235707
C21   C     C_R   0.892992 0.190209 0.364470 0.158900
C22   C     C_R   0.108443 0.742713 0.648625 0.150300
C23   C     C_R   0.407407 0.495596 0.503717 0.795910
C24   C     C_R   0.592849 0.507343 0.496847 0.805319
C25   C     C_R   0.047457 0.173372 0.441860 -0.220385
C26   C     C_R   0.954494 0.739567 0.690649 -0.219603
C27   C     C_2   0.511670 0.039133 0.440420 -0.016477
C28   C     C_2   0.492943 0.962957 0.563874 -0.046677
C29   C     C_R   0.175543 0.308395 0.503333 0.552500
C30   C     C_R   0.826591 0.610114 0.589679 0.550096
C31   C     C_R   0.181614 0.587805 0.572017 0.608076
C32   C     C_R   0.819901 0.333537 0.471309 0.624181
C33   C     C_R   0.283345 0.524536 0.692728 0.287743
C34   C     C_R   0.721201 0.443304 0.336721 0.257569
C35   C     C_R   0.331519 0.564742 0.670025 0.052858
C36   C     C_R   0.670614 0.459498 0.324804 0.023400
C37   C     C_R   0.326138 0.367093 0.375589 0.099354
C38   C     C_R   0.675258 0.578996 0.660039 0.093386
C39   C     C_R   0.275897 0.366642 0.379436 -0.115762
C40   C     C_R   0.724203 0.550090 0.668726 -0.151910
C41   C     C_R   0.254329 0.442250 0.538790 0.230832
C42   C     C_R   0.747385 0.483138 0.510332 0.250770
Cu1   Cu    Cu3+1 0.505380 0.517380 0.684380 0.927093
Cu2   Cu    Cu3+1 0.494620 0.482620 0.315620 0.923857
H1    H     H_    0.460246 0.388704 0.950491 0.227106
H2    H     H_    0.538758 0.615159 0.050402 0.209845
H3    H     H_    0.253543 0.297896 0.263104 0.187291
H4    H     H_    0.745652 0.588653 0.799018 0.190139
H5    H     H_    0.113710 0.059103 0.410991 0.174884
H6    H     H_    0.888282 0.849684 0.746460 0.182464
H7    H     H_    0.958954 0.082868 0.302205 0.142040
H8    H     H_    0.042334 0.854094 0.684513 0.134091
H9    H     H_    0.028618 0.060261 0.408855 0.138716
H10   H     H_    0.973078 0.847626 0.762254 0.140399
N1    N     N_R   0.202640 0.445392 0.539646 -0.433301
N2    N     N_R   0.799078 0.475051 0.524096 -0.434288
N3    N     N_2   0.486510 0.456430 0.038510 -0.220337
N4    N     N_2   0.513490 0.543570 0.961490 -0.217570
O1    O     O_R   0.503500 0.286120 0.619780 -0.585318
O2    O     O_R   0.496500 0.713880 0.380220 -0.591633
O3    O     O_R   0.494410 0.256780 0.308360 -0.604692
O4    O     O_R   0.505590 0.743220 0.691640 -0.594029
O5    O     O_R   0.434810 0.514700 0.655690 -0.591749
O6    O     O_R   0.565190 0.485300 0.344310 -0.595874
O7    O     O_R   0.425720 0.485350 0.344280 -0.577100
O8    O     O_R   0.574280 0.514650 0.655720 -0.578308
O9    O     O_2   0.197248 0.169848 0.473022 -0.556985
O10   O     O_2   0.805385 0.748587 0.641004 -0.550588
O11   O     O_2   0.791825 0.201069 0.438967 -0.512457
O12   O     O_2   0.209586 0.717736 0.581658 -0.533856
C43   C     C_3   0.347055 0.239124 0.231167 -0.405731
C44   C     C_3   0.328168 0.076296 0.245953 -0.815920
H11   H     H_    0.324301 0.071708 0.393165 0.272440
H12   H     H_    0.292465 0.047138 0.168723 0.274178
H13   H     H_    0.353592 0.985758 0.187375 0.244675
H14   H     H_    0.337304 0.257038 0.089733 0.220007
H15   H     H_    0.386711 0.238282 0.247986 0.219446
C45   C     C_3   0.656905 0.690960 0.828156 -0.369773
C46   C     C_3   0.639185 0.840925 0.779691 -0.791387
H16   H     H_    0.668869 0.903142 0.727710 0.274920
H17   H     H_    0.608669 0.814403 0.672934 0.238265
H18   H     H_    0.626371 0.918765 0.905780 0.232344
H19   H     H_    0.628189 0.636255 0.891219 0.209206
H20   H     H_    0.685910 0.726354 0.941167 0.206206
C47   C     C_3   0.644953 0.432435 0.132047 -0.327253
C48   C     C_3   0.625530 0.264007 0.058341 -0.758545
H21   H     H_    0.615465 0.244440 0.907093 0.238196
H22   H     H_    0.653389 0.180339 0.079680 0.268719
H23   H     H_    0.592817 0.241133 0.127460 0.261801
H24   H     H_    0.616545 0.516845 0.126799 0.190595
H25   H     H_    0.669642 0.460024 0.031237 0.221720
C49   C     C_3   0.354775 0.709928 0.801934 -0.368097
C50   C     C_3   0.326910 0.855409 0.786908 -0.767475
H26   H     H_    0.321821 0.863999 0.639563 0.266066
H27   H     H_    0.291082 0.853264 0.843897 0.302704
H28   H     H_    0.347220 0.961617 0.867246 0.230214
H29   H     H_    0.356260 0.694647 0.947177 0.234223
H30   H     H_    0.391951 0.735356 0.770223 0.213405
Br1   Br    Br    0.756204 0.374597 0.115621 -0.563048
Br2   Br    Br    0.256894 0.577567 0.933409 -0.576160
C51   C     C_3   0.866283 0.051043 0.233846 -0.356689
C52   C     C_3   0.859486 0.914655 0.328079 -0.703776
H31   H     H_    0.895016 0.869635 0.361711 0.227671
H32   H     H_    0.840820 0.952753 0.457950 0.304834
H33   H     H_    0.837603 0.818097 0.233228 0.254709
H34   H     H_    0.831325 0.082825 0.176008 0.268106
H35   H     H_    0.887144 0.010509 0.109560 0.179343
C53   C     C_3   0.134968 0.901270 0.722946 -0.366298
C54   C     C_3   0.159559 0.912968 0.916080 -0.690789
H36   H     H_    0.132253 0.900498 0.015981 0.234059
H37   H     H_    0.186051 0.820944 0.914733 0.295725
H38   H     H_    0.178675 0.029334 0.964832 0.242943
H39   H     H_    0.160528 0.928508 0.624531 0.273273
H40   H     H_    0.109604 0.998402 0.737524 0.183821
C55   C     C_3   0.552459 0.979559 0.316555 -0.470223
C56   C     C_3   0.600716 0.057589 0.403682 -0.845223
H41   H     H_    0.608001 0.034717 0.543695 0.254103
H42   H     H_    0.630156 0.010525 0.315090 0.258856
H43   H     H_    0.600582 0.186141 0.418910 0.253478
H44   H     H_    0.557247 0.852217 0.290733 0.223452
H45   H     H_    0.545226 0.006045 0.177655 0.216183
C57   C     C_3   0.458357 0.032928 0.711231 -0.405093
C58   C     C_3   0.410847 0.077008 0.626181 -0.846683
H46   H     H_    0.415786 0.163192 0.539768 0.250296
H47   H     H_    0.392195 0.969921 0.538516 0.254567
H48   H     H_    0.387917 0.131740 0.738364 0.239353
H49   H     H_    0.448963 0.947690 0.795630 0.207378
H50   H     H_    0.475828 0.132952 0.814680 0.224709

loop_
_geom_bond_atom_site_label_1
_geom_bond_atom_site_label_2
_ccdc_geom_bond_type
C51   H35   S    
C50   H26   S    
C55   H45   S    
C8    C26   A    
C14   C18   A    
C34   C42   A    
C47   H25   S    
C49   H30   S    
C58   H46   S    
C39   C41   A    
C47   C48   S    
Cu2   O6    S    
H1    N3    S    
C51   C52   S    
C3    C18   A    
C39   H3    S    
C19   C21   A    
C25   H9    S    
C1    O1    A    
C43   H14   S    
C28   C57   S    
C9    C22   A    
C58   H47   S    
C55   C56   S    
C51   H34   S    
C53   C54   S    
C52   H33   S    
C40   H4    S    
C53   H40   S    
C57   H49   S    
C11   C37   A    
C41   N1    S    
Cu1   N4    S    
C42   N2    S    
C29   O9    S    
C45   H19   S    
C31   O12   S    
C12   C36   A    
C24   O8    A    
C21   C51   S    
C35   C49   S    
C23   O5    A    
C24   O6    A    
H2    N4    S    
C12   C38   A    
Cu2   O7    S    
C2    O2    A    
C44   H13   S    
C26   H10   S    
C49   H29   S    
C5    C29   A    
C10   C21   A    
C13   C19   A    
C48   H22   S    
Cu1   O5    S    
C14   C20   A    
C7    H5    S    
C44   H12   S    
C54   H38   S    
C46   H17   S    
C45   C46   S    
C15   C26   A    
C6    C8    A    
C29   N1    A    
C3    C5    A    
C30   N2    A    
C53   H39   S    
Cu1   Cu2   S    
C3    C9    A    
C10   C32   A    
Cu2   N3    S    
C34   Br1   S    
C16   C18   A    
C52   H32   S    
C4    C17   A    
C4    C6    A    
C6    C30   A    
C20   C22   A    
C50   H28   S    
C37   C43   S    
Cu2   O3    S    
C4    C10   A    
C8    H6    S    
C43   H15   S    
C5    C7    A    
C16   C25   A    
C15   C17   A    
C48   H21   S    
C11   C23   S    
C44   H11   S    
C58   H48   S    
C48   H23   S    
C1    O3    A    
C46   H18   S    
C47   H24   S    
C32   O11   S    
Cu1   O1    S    
C36   C47   S    
C38   C45   S    
C12   C24   S    
C7    C25   A    
C56   H43   S    
C13   C17   A    
C33   Br2   S    
C33   C41   A    
C23   O7    A    
C11   C35   A    
C43   C44   S    
C37   C39   A    
C54   H36   S    
C38   C40   A    
N3    N4    D    
C50   H27   S    
Cu2   O2    S    
Cu1   O8    S    
C22   C53   S    
C54   H37   S    
C40   C42   A    
C49   C50   S    
C33   C35   A    
C56   H42   S    
C56   H41   S    
C19   H7    S    
C34   C36   A    
C57   H50   S    
C52   H31   S    
C9    C31   A    
C46   H16   S    
C45   H20   S    
C20   H8    S    
C55   H44   S    
C13   C16   A    
C27   C28   D    
C1    C27   S    
C14   C15   A    
C2    C28   S    
C31   N1    A    
C57   C58   S    
C32   N2    A    
C30   O10   S    
C2    O4    A    
Cu1   O4    S    
C27   C55   S    
