data_mof_unit_26239.cif
_audit_creation_date              2012-12-11T15:21:37-0500
_audit_creation_method            fapswitch 2.2
_symmetry_space_group_name_H-M    P1
_symmetry_Int_Tables_number       1
_space_group_crystal_system       triclinic
_cell_length_a                    19.481889
_cell_length_b                    7.230951
_cell_length_c                    17.387498
_cell_angle_alpha                 89.928719
_cell_angle_beta                  108.414177
_cell_angle_gamma                 89.96756
_cell_volume                      2324.00321098

loop_
_atom_site_label
_atom_site_type_symbol
_atom_type_description
_atom_site_fract_x
_atom_site_fract_y
_atom_site_fract_z
_atom_type_partial_charge
O1    O     O_R   0.562310 0.505770 0.439670 -0.532197
O2    O     O_R   0.437690 0.005770 0.560330 -0.532555
O3    O     O_R   0.411650 0.169150 0.405330 -0.512664
O4    O     O_R   0.588350 0.669150 0.594670 -0.512116
C1    C     C_R   0.385996 0.347598 0.381544 0.613209
C2    C     C_R   0.613893 0.847280 0.618604 0.612864
O5    O     O_R   0.560140 0.175610 0.430010 -0.537792
O6    O     O_R   0.439860 0.675610 0.569990 -0.537520
O7    O     O_R   0.587240 0.012100 0.585200 -0.545441
O8    O     O_R   0.412760 0.512100 0.414800 -0.545129
C3    C     C_R   0.579894 0.344363 0.414207 0.672663
C4    C     C_R   0.419957 0.844446 0.585631 0.672156
O9    O     O_3   0.508720 0.341420 0.550890 -0.346645
O10   O     O_3   0.491280 0.841420 0.449110 -0.346957
V1    V     V_3+5 0.498380 0.063930 0.490560 1.507911
V2    V     V_3+5 0.501620 0.563930 0.509440 1.509515
C5    C     C_R   0.204096 0.957455 0.901301 -0.215977
C6    C     C_R   0.795543 0.459498 0.098463 -0.216396
C7    C     C_R   0.130637 0.916307 0.866267 -0.056600
C8    C     C_R   0.868942 0.416435 0.133332 -0.056624
C9    C     C_R   0.105441 0.860070 0.785023 -0.169666
C10   C     C_R   0.893825 0.356856 0.214096 -0.168998
C11   C     C_R   0.152358 0.849623 0.737682 0.057931
C12   C     C_R   0.846960 0.346523 0.261490 0.057848
C13   C     C_R   0.226055 0.890414 0.773109 0.050954
C14   C     C_R   0.773366 0.389698 0.226301 0.050865
C15   C     C_R   0.252168 0.942891 0.855717 0.113751
C16   C     C_R   0.747342 0.444397 0.143919 0.113667
C17   C     C_R   0.126371 0.802508 0.655220 -0.126305
C18   C     C_R   0.872905 0.297407 0.343807 -0.126029
C19   C     C_R   0.172067 0.797093 0.606427 -0.070815
C20   C     C_R   0.827272 0.292596 0.392678 -0.069967
C21   C     C_R   0.247289 0.829562 0.642827 0.023136
C22   C     C_R   0.752147 0.326932 0.356401 0.022512
C23   C     C_R   0.273720 0.878756 0.726098 0.055923
C24   C     C_R   0.725737 0.378040 0.273322 0.056026
C25   C     C_R   0.347962 0.918204 0.762687 0.112990
C26   C     C_R   0.651570 0.419529 0.236980 0.113125
C27   C     C_R   0.373346 0.968232 0.845002 -0.184750
C28   C     C_R   0.626206 0.471424 0.154833 -0.184668
C29   C     C_R   0.326039 0.980490 0.891005 -0.188625
C30   C     C_R   0.673506 0.483781 0.108797 -0.188808
C31   C     C_R   0.296845 0.814343 0.598795 -0.181707
C32   C     C_R   0.702660 0.311714 0.400459 -0.182361
C33   C     C_R   0.370426 0.853763 0.634834 -0.045342
C34   C     C_R   0.629209 0.353351 0.364751 -0.045443
C35   C     C_R   0.395576 0.908038 0.716407 -0.199922
C36   C     C_R   0.604053 0.409595 0.283393 -0.200258
H1    H     H_    0.048606 0.827354 0.758060 0.111268
H2    H     H_    0.950449 0.321550 0.240727 0.111032
H3    H     H_    0.430159 0.998884 0.873865 0.124942
H4    H     H_    0.569452 0.503542 0.126155 0.125015
H5    H     H_    0.347319 0.020146 0.954175 0.123829
H6    H     H_    0.652270 0.525063 0.045783 0.123670
C37   C     C_3   0.762123 0.768103 0.834097 -0.375775
C38   C     C_3   0.237923 0.269891 0.167025 -0.378202
H7    H     H_    0.791673 0.639882 0.859408 0.143656
H8    H     H_    0.209480 0.139870 0.141832 0.140736
C39   C     C_3   0.693563 0.730724 0.759339 -0.340897
C40   C     C_3   0.306326 0.231790 0.241369 -0.341998
H9    H     H_    0.644780 0.731613 0.779276 0.150462
H10   H     H_    0.355284 0.233088 0.221636 0.150868
C41   C     C_3   0.825826 0.872732 0.732679 -0.173873
C42   C     C_3   0.174039 0.367901 0.268440 -0.170059
C43   C     C_3   0.764422 0.099709 0.803338 -0.126155
C44   C     C_3   0.233540 0.600614 0.198418 -0.114364
C45   C     C_3   0.811370 0.920315 0.814670 0.008236
C46   C     C_3   0.187715 0.419315 0.186558 0.002224
C47   C     C_3   0.685650 0.876611 0.689981 -0.075453
C48   C     C_3   0.313887 0.377169 0.310638 -0.076402
C49   C     C_3   0.753037 0.848578 0.660026 -0.156375
C50   C     C_3   0.247025 0.347552 0.341153 -0.155141
C51   C     C_3   0.689879 0.071809 0.734580 -0.129729
C52   C     C_3   0.308453 0.573120 0.266066 -0.128231
O11   O     O_R   0.087220 0.271820 0.085230 -0.543366
O12   O     O_R   0.912780 0.771820 0.914770 -0.541853
O13   O     O_R   0.939860 0.595540 0.069990 -0.532949
O14   O     O_R   0.060140 0.095540 0.930010 -0.532734
C53   C     C_R   0.918981 0.426808 0.084640 0.679340
C54   C     C_R   0.080815 0.926722 0.915156 0.680603
O15   O     O_R   0.088340 0.601930 0.094680 -0.539116
O16   O     O_R   0.911660 0.101930 0.905320 -0.537481
O17   O     O_R   0.062310 0.765410 0.939660 -0.535444
O18   O     O_R   0.937690 0.265410 0.060340 -0.536220
C55   C     C_R   0.116383 0.432839 0.115773 0.626200
C56   C     C_R   0.882854 0.933505 0.885292 0.624801
O19   O     O_3   0.991270 0.429630 0.949130 -0.369368
O20   O     O_3   0.008730 0.929630 0.050870 -0.372203
V3    V     V_3+5 0.001620 0.707150 0.009440 1.436564
V4    V     V_3+5 0.998380 0.207150 0.990560 1.438110
H11   H     H_    0.223821 0.998758 0.964320 0.097173
H12   H     H_    0.775957 0.502674 0.035660 0.096937
H13   H     H_    0.743894 0.819007 0.884874 0.136948
H14   H     H_    0.255926 0.323340 0.116484 0.139721
H15   H     H_    0.697460 0.592402 0.736093 0.204023
H16   H     H_    0.302036 0.092409 0.263904 0.206346
H17   H     H_    0.851405 0.733249 0.742173 0.121784
H18   H     H_    0.150411 0.226655 0.258714 0.117830
H19   H     H_    0.751063 0.700954 0.640849 0.142332
H20   H     H_    0.250107 0.200407 0.361630 0.139313
C57   C     C_2   0.806608 0.272457 0.799981 0.217244
H21   H     H_    0.790853 0.412484 0.788559 0.218260
O21   O     O_2   0.809028 0.354695 0.739800 -0.580029
C58   C     C_2   0.190230 0.770582 0.203467 0.216367
H22   H     H_    0.200056 0.917310 0.212749 0.224111
O22   O     O_2   0.191607 0.852180 0.265291 -0.588674
H23   H     H_    0.751640 0.121242 0.860926 0.061353
H24   H     H_    0.245198 0.626069 0.140470 0.060021
H25   H     H_    0.648572 0.062869 0.766666 0.128093
H26   H     H_    0.348757 0.564780 0.232679 0.128748
C59   C     C_2   0.668136 0.241307 0.683337 0.403909
H27   H     H_    0.695081 0.283761 0.640387 0.087604
O23   O     O_2   0.618797 0.335971 0.690452 -0.539385
C60   C     C_2   0.330938 0.742120 0.316998 0.405759
H28   H     H_    0.304223 0.787042 0.359674 0.090722
O24   O     O_2   0.380503 0.834547 0.309270 -0.539727
C61   C     C_2   0.883926 0.995856 0.717636 0.561774
H29   H     H_    0.939485 0.962642 0.750787 -0.032988
O25   O     O_2   0.871359 0.127785 0.671314 -0.480411
C62   C     C_2   0.114061 0.483378 0.283610 0.552860
H30   H     H_    0.059083 0.447396 0.250597 -0.034267
O26   O     O_2   0.124952 0.616764 0.328758 -0.477957
C63   C     C_2   0.749303 0.953413 0.583551 0.446194
H31   H     H_    0.710623 0.063031 0.560421 0.012917
O27   O     O_2   0.788376 0.907765 0.544008 -0.516831
C64   C     C_2   0.250609 0.455531 0.416966 0.453753
H32   H     H_    0.288829 0.566204 0.439291 0.010049
O28   O     O_2   0.212259 0.409914 0.457315 -0.517294
H33   H     H_    0.069157 0.774777 0.628194 0.183197
H34   H     H_    0.930054 0.268130 0.370697 0.182530
C65   C     C_2   0.138933 0.763542 0.517747 0.537511
H35   H     H_    0.167293 0.797041 0.475371 0.084797
O29   O     O_2   0.078082 0.699638 0.490408 -0.489023
C66   C     C_2   0.860392 0.258112 0.481343 0.535515
H36   H     H_    0.832339 0.293095 0.523839 0.086369
O30   O     O_2   0.920878 0.191679 0.508485 -0.489938
H37   H     H_    0.279357 0.774924 0.535833 0.089112
H38   H     H_    0.720135 0.270517 0.463240 0.089673
H39   H     H_    0.452430 0.940563 0.743963 0.104125
H40   H     H_    0.547284 0.443777 0.256120 0.104609

loop_
_geom_bond_atom_site_label_1
_geom_bond_atom_site_label_2
_ccdc_geom_bond_type
C2    C47   S    
C27   H3    S    
C28   H4    S    
C64   H32   S    
C37   C39   S    
C44   C46   S    
C59   H27   S    
O1    C3    A    
C43   C57   S    
O12   C56   A    
C37   H13   S    
O2    C4    A    
C2    O7    A    
C58   O22   D    
C60   H28   S    
C63   H31   S    
C27   C29   A    
O14   V4    S    
C38   H14   S    
O13   V3    S    
C57   H21   S    
O18   V4    S    
C11   C17   A    
C49   C63   S    
C26   C28   A    
C12   C14   A    
C61   O25   D    
C53   O18   A    
C41   C61   S    
O14   C54   A    
C63   O27   D    
C44   C52   S    
C43   C51   S    
C6    C8    A    
C40   H10   S    
C16   C30   A    
C47   C49   S    
C19   C65   S    
O11   V4    S    
C5    C7    A    
O11   C55   A    
C17   H33   S    
C32   C34   A    
C43   C45   S    
C5    H11   S    
C48   C52   S    
C32   H38   S    
C19   C21   A    
C47   C51   S    
C25   C35   A    
C26   C36   A    
O12   V3    S    
C10   H2    S    
O15   V3    S    
C42   H18   S    
O6    V2    S    
C28   C30   A    
C46   C55   S    
C39   H15   S    
C54   O17   A    
C9    H1    S    
C58   H22   S    
C62   O26   D    
C51   C59   S    
C34   C36   A    
C33   C35   A    
O17   V3    S    
C41   C45   S    
C39   H9    S    
C48   C50   S    
C36   H40   S    
C5    C15   A    
C44   C58   S    
C6    C16   A    
O4    C2    A    
C66   O30   D    
C65   O29   D    
O16   C56   A    
C49   H19   S    
C38   C40   S    
C50   C64   S    
C18   H34   S    
C20   C22   A    
O4    V2    S    
O5    C3    A    
C1    C48   S    
C18   C20   A    
C15   C29   A    
C60   O24   D    
C40   C48   S    
O6    C4    A    
O13   C53   A    
C22   C32   A    
C59   O23   D    
O1    V2    S    
O2    V1    S    
C31   C33   A    
C29   H5    S    
C41   C49   S    
C13   C23   A    
C40   H16   S    
C14   C24   A    
C39   C47   S    
C37   H7    S    
C10   C12   A    
O19   V4    S    
C8    C10   A    
C65   H35   S    
C42   C46   S    
O3    V1    S    
C62   H30   S    
C50   H20   S    
C45   C56   S    
C64   O28   D    
C8    C53   S    
C23   C25   A    
C41   H17   S    
C44   H24   S    
C4    C33   S    
O3    C1    A    
C42   C62   S    
C52   H26   S    
C37   C45   S    
C51   H25   S    
C66   H36   S    
C13   C15   A    
C14   C16   A    
O16   V4    S    
C6    H12   S    
C9    C11   A    
O7    V1    S    
C1    O8    A    
C17   C19   A    
C38   C46   S    
C61   H29   S    
C30   H6    S    
C24   C26   A    
C20   C66   S    
O5    V1    S    
C21   C23   A    
C38   H8    S    
C31   H37   S    
C22   C24   A    
C42   C50   S    
C7    C54   S    
C12   C18   A    
C25   C27   A    
C11   C13   A    
O20   V3    S    
C57   O21   D    
O9    V2    S    
C35   H39   S    
O10   V1    S    
C3    C34   S    
O8    V2    S    
C21   C31   A    
C43   H23   S    
O15   C55   A    
C7    C9    A    
C52   C60   S    
