data_mof_unit_65659.cif
_audit_creation_date              2012-10-26T19:37:44-0400
_audit_creation_method            fapswitch 2.2
_symmetry_space_group_name_H-M    P1
_symmetry_Int_Tables_number       1
_space_group_crystal_system       triclinic
_cell_length_a                    11.717733
_cell_length_b                    15.799427
_cell_length_c                    17.123162
_cell_angle_alpha                 96.23063
_cell_angle_beta                  90.282312
_cell_angle_gamma                 92.276878
_cell_volume                      3148.72084623

loop_
_atom_site_label
_atom_site_type_symbol
_atom_type_description
_atom_site_fract_x
_atom_site_fract_y
_atom_site_fract_z
_atom_type_partial_charge
C1    C     C_R   0.499188 0.489686 0.348540 0.552155
C2    C     C_R   0.477185 0.108778 0.483443 0.210137
C3    C     C_R   0.590510 0.848658 0.566443 -0.135862
C4    C     C_R   0.409490 0.151342 0.433557 -0.135861
C5    C     C_R   0.584831 0.759209 0.562143 0.026263
C6    C     C_R   0.415169 0.240791 0.437857 0.026263
C7    C     C_R   0.283783 0.500257 0.499967 0.552606
C8    C     C_R   0.716217 0.499743 0.500033 0.552606
C9    C     C_1   0.162232 0.500629 0.499990 -0.020316
C10   C     C_1   0.837768 0.499370 0.500009 -0.020316
C11   C     C_1   0.059847 0.500318 0.499998 -0.038081
C12   C     C_R   0.500812 0.510314 0.651460 0.552156
C13   C     C_1   0.940153 0.499682 0.500002 -0.038081
C14   C     C_R   0.498599 0.484289 0.262528 0.007127
C15   C     C_R   0.501401 0.515711 0.737472 0.007128
C16   C     C_R   0.503273 0.559021 0.225113 -0.157926
C17   C     C_R   0.496727 0.440979 0.774887 -0.157926
C18   C     C_R   0.502938 0.554373 0.143606 -0.087539
C19   C     C_R   0.497062 0.445627 0.856394 -0.087539
C20   C     C_R   0.497867 0.474366 0.097934 0.227451
C21   C     C_R   0.502133 0.525634 0.902066 0.227451
C22   C     C_R   0.493025 0.400050 0.135424 -0.109510
C23   C     C_R   0.493369 0.404701 0.217107 -0.151757
C24   C     C_R   0.506975 0.599950 0.864576 -0.109510
C25   C     C_R   0.506631 0.595298 0.782893 -0.151758
C26   C     C_R   0.446733 0.751640 0.460253 0.020506
C27   C     C_R   0.553267 0.248360 0.539747 0.020506
C28   C     C_R   0.449794 0.841004 0.462590 -0.117404
C29   C     C_R   0.550206 0.158996 0.537410 -0.117404
C30   C     C_R   0.522815 0.891222 0.516556 0.210137
Cu1   Cu    Cu3+1 0.494550 0.415220 0.496180 0.945341
Cu2   Cu    Cu3+1 0.505450 0.584780 0.503820 0.945341
H1    H     H_    0.492766 0.378757 0.741262 0.130533
H2    H     H_    0.506671 0.613378 0.116775 0.136503
H3    H     H_    0.604507 0.129993 0.577427 0.122686
H4    H     H_    0.395492 0.870007 0.422573 0.122686
H5    H     H_    0.647679 0.884741 0.608695 0.105281
H6    H     H_    0.352321 0.115259 0.391305 0.105281
H7    H     H_    0.637551 0.727442 0.601035 0.125046
H8    H     H_    0.362449 0.272558 0.398965 0.125046
H9    H     H_    0.507234 0.621243 0.258738 0.130533
H10   H     H_    0.489036 0.338249 0.101055 0.117882
H11   H     H_    0.510964 0.661751 0.898945 0.117882
H12   H     H_    0.489585 0.346056 0.244565 0.131131
H13   H     H_    0.510415 0.653944 0.755435 0.131130
H14   H     H_    0.609592 0.286245 0.581229 0.125036
H15   H     H_    0.390408 0.713755 0.418771 0.125036
H16   H     H_    0.493329 0.386622 0.883225 0.136503
N1    N     N_2   0.497445 0.465561 0.014661 -0.251263
N2    N     N_2   0.502555 0.534439 0.985339 -0.251263
N3    N     N_R   0.513630 0.712130 0.509560 -0.221883
N4    N     N_R   0.486370 0.287870 0.490440 -0.221883
N5    N     N_2   0.531331 0.982901 0.523022 -0.240645
N6    N     N_2   0.468669 0.017099 0.476978 -0.240645
O1    O     O_R   0.494910 0.420530 0.382500 -0.506688
O2    O     O_R   0.505090 0.579470 0.617500 -0.506688
O3    O     O_R   0.504100 0.563720 0.388950 -0.507373
O4    O     O_R   0.495900 0.436280 0.611050 -0.507373
O5    O     O_R   0.332600 0.428410 0.496780 -0.494377
O6    O     O_R   0.667400 0.571590 0.503220 -0.494377
O7    O     O_R   0.341800 0.571600 0.503230 -0.495060
O8    O     O_R   0.658200 0.428400 0.496770 -0.495060

loop_
_geom_bond_atom_site_label_1
_geom_bond_atom_site_label_2
_ccdc_geom_bond_type
C14   C23   A    
C3    C30   A    
C2    C4    A    
Cu2   N3    S    
C15   C17   A    
C20   N1    S    
C14   C16   A    
C1    O3    A    
C27   C29   A    
C11   C13   S    
C29   H3    S    
C26   C28   A    
Cu1   Cu2   S    
C12   C15   S    
Cu1   N4    S    
C3    C5    A    
C12   O4    A    
C28   C30   A    
C1    O1    A    
C6    N4    A    
C12   O2    A    
N5    N6    D    
C8    O6    A    
C9    C11   T    
Cu1   O8    S    
C28   H4    S    
C22   H10   S    
C17   H1    S    
Cu2   O3    S    
C2    C29   A    
C26   H15   S    
Cu1   O4    S    
C7    O5    A    
C21   N2    S    
C17   C19   A    
C20   C22   A    
Cu2   O7    S    
C18   C20   A    
C18   H2    S    
C27   N4    A    
C24   H11   S    
C30   N5    S    
C6    H8    S    
C15   C25   A    
C4    C6    A    
Cu2   O6    S    
C25   H13   S    
C27   H14   S    
C24   C25   A    
C3    H5    S    
C16   C18   A    
N1    N2    D    
C2    N6    S    
C21   C24   A    
Cu1   O5    S    
C7    C9    S    
C5    H7    S    
C22   C23   A    
C7    O7    A    
C4    H6    S    
C1    C14   S    
C19   H16   S    
Cu1   O1    S    
C26   N3    A    
C16   H9    S    
Cu2   O2    S    
C8    C10   S    
C5    N3    A    
C23   H12   S    
C8    O8    A    
C19   C21   A    
C10   C13   T    
