data_mof_unit_19411.cif
_audit_creation_date              2012-12-10T18:00:44-0500
_audit_creation_method            fapswitch 2.2
_symmetry_space_group_name_H-M    P1
_symmetry_Int_Tables_number       1
_space_group_crystal_system       triclinic
_cell_length_a                    25.932912
_cell_length_b                    25.932749
_cell_length_c                    25.932839
_cell_angle_alpha                 89.993666
_cell_angle_beta                  89.99376
_cell_angle_gamma                 90.006452
_cell_volume                      17440.1372624

loop_
_atom_site_label
_atom_site_type_symbol
_atom_type_description
_atom_site_fract_x
_atom_site_fract_y
_atom_site_fract_z
_atom_type_partial_charge
C1    C     C_R   0.390139 0.249969 0.250020 0.565179
C2    C     C_R   0.609983 0.250040 0.249953 0.545929
C3    C     C_R   0.973271 0.703260 0.243113 0.201147
C4    C     C_R   0.027179 0.754900 0.703252 0.205785
C5    C     C_R   0.972835 0.203116 0.255048 0.208227
C6    C     C_R   0.027164 0.702980 0.246363 0.208637
C7    C     C_R   0.972803 0.258202 0.796296 0.206385
C8    C     C_R   0.796625 0.742761 0.026654 0.206426
C9    C     C_R   0.239153 0.296007 0.973329 0.200567
C10   C     C_R   0.742197 0.203365 0.026737 0.199350
C11   C     C_R   0.296400 0.758490 0.973242 0.201888
C12   C     C_R   0.242258 0.296567 0.027162 0.208772
C13   C     C_R   0.250040 0.750047 0.390017 0.545921
C14   C     C_R   0.796879 0.746264 0.972793 0.206498
C15   C     C_R   0.296786 0.755119 0.027100 0.204799
C16   C     C_R   0.745528 0.203026 0.972856 0.204176
C17   C     C_R   0.203436 0.741876 0.973289 0.201724
C18   C     C_R   0.758432 0.296397 0.026662 0.203261
C19   C     C_R   0.261818 0.204327 0.973429 0.206088
C20   C     C_R   0.703261 0.756896 0.026728 0.201140
C21   C     C_R   0.754907 0.296748 0.972821 0.205795
C22   C     C_R   0.203113 0.744966 0.027165 0.208227
C23   C     C_R   0.702981 0.753647 0.972835 0.208634
C24   C     C_R   0.749995 0.249960 0.609992 0.549519
C25   C     C_R   0.258176 0.203702 0.027197 0.206381
C26   C     C_R   0.741739 0.473250 0.703555 0.200897
C27   C     C_R   0.296483 0.526652 0.258092 0.203559
C28   C     C_R   0.703367 0.473286 0.257515 0.203770
C29   C     C_R   0.260983 0.526611 0.704054 0.202799
C30   C     C_R   0.296805 0.472810 0.254515 0.203558
C31   C     C_R   0.745013 0.527115 0.703172 0.205112
C32   C     C_R   0.257508 0.472806 0.703500 0.209441
C33   C     C_R   0.703084 0.527170 0.254405 0.211484
C34   C     C_R   0.473250 0.296448 0.258242 0.200904
C35   C     C_R   0.609988 0.749942 0.249964 0.545838
C36   C     C_R   0.526651 0.741853 0.703528 0.203544
C37   C     C_R   0.473287 0.742472 0.296630 0.203764
C38   C     C_R   0.526611 0.295920 0.738903 0.202782
C39   C     C_R   0.472811 0.745439 0.703200 0.203566
C40   C     C_R   0.527115 0.296830 0.254968 0.205116
C41   C     C_R   0.472808 0.296482 0.742373 0.209434
C42   C     C_R   0.527170 0.745582 0.296915 0.211484
C43   C     C_R   0.296447 0.741756 0.526750 0.200920
C44   C     C_R   0.741895 0.296482 0.473349 0.203550
C45   C     C_R   0.742461 0.703371 0.526713 0.203760
C46   C     C_R   0.390000 0.249956 0.749938 0.540188
C47   C     C_R   0.295919 0.261100 0.473389 0.202794
C48   C     C_R   0.745474 0.296805 0.527190 0.203555
C49   C     C_R   0.296829 0.745027 0.472885 0.205120
C50   C     C_R   0.296482 0.257628 0.527192 0.209451
C51   C     C_R   0.745573 0.703086 0.472830 0.211483
C52   C     C_R   0.249984 0.553611 0.250020 -0.036820
C53   C     C_R   0.750016 0.446371 0.750041 -0.035155
C54   C     C_R   0.250008 0.553578 0.749987 -0.039874
C55   C     C_R   0.749975 0.446388 0.249990 -0.031775
C56   C     C_R   0.750056 0.553952 0.749989 -0.037962
C57   C     C_R   0.750019 0.749982 0.609854 0.574323
C58   C     C_R   0.249939 0.446023 0.249889 -0.038363
C59   C     C_R   0.750009 0.553969 0.250115 -0.035572
C60   C     C_R   0.250111 0.445992 0.750027 -0.040744
C61   C     C_R   0.553611 0.749975 0.750018 -0.036865
C62   C     C_R   0.446372 0.249959 0.249982 -0.035140
C63   C     C_R   0.553579 0.250014 0.749993 -0.039968
C64   C     C_R   0.446388 0.750009 0.250024 -0.031790
C65   C     C_R   0.553952 0.250011 0.249944 -0.037948
C66   C     C_R   0.446023 0.750110 0.750062 -0.038385
C67   C     C_R   0.553969 0.749886 0.249990 -0.035571
C68   C     C_R   0.250013 0.249988 0.390161 0.559018
C69   C     C_R   0.445993 0.249973 0.749888 -0.040812
C70   C     C_R   0.749979 0.249984 0.446389 -0.036828
C71   C     C_R   0.249960 0.750020 0.553628 -0.035132
C72   C     C_R   0.250014 0.250007 0.446421 -0.039967
C73   C     C_R   0.750009 0.749975 0.553612 -0.031800
C74   C     C_R   0.250011 0.750057 0.446048 -0.037948
C75   C     C_R   0.750112 0.249940 0.553977 -0.038378
C76   C     C_R   0.749885 0.750010 0.446031 -0.035580
C77   C     C_R   0.249973 0.250113 0.554007 -0.040799
C78   C     C_R   0.749989 0.053989 0.250067 -0.035864
C79   C     C_R   0.250061 0.389999 0.750044 0.540307
C80   C     C_R   0.250099 0.945999 0.749935 -0.039907
C81   C     C_R   0.249904 0.053975 0.249901 -0.038724
C82   C     C_R   0.750037 0.946049 0.750025 -0.037581
C83   C     C_R   0.250111 0.053579 0.749677 -0.038102
C84   C     C_R   0.749881 0.946400 0.250036 -0.033764
C85   C     C_R   0.750157 0.053628 0.750082 -0.034758
C86   C     C_R   0.249917 0.946388 0.249808 -0.037218
C87   C     C_R   0.053988 0.749933 0.250011 -0.035859
C88   C     C_R   0.946000 0.250064 0.749901 -0.039908
C89   C     C_R   0.053975 0.750099 0.750096 -0.038721
C90   C     C_R   0.750036 0.609988 0.250057 0.545837
C91   C     C_R   0.946049 0.249975 0.249963 -0.037574
C92   C     C_R   0.053580 0.250320 0.749890 -0.038102
C93   C     C_R   0.946400 0.749964 0.250119 -0.033757
C94   C     C_R   0.053628 0.249918 0.249843 -0.034751
C95   C     C_R   0.946389 0.750191 0.750082 -0.037214
C96   C     C_R   0.749933 0.749989 0.946012 -0.035869
C97   C     C_R   0.250066 0.250101 0.054000 -0.039885
C98   C     C_R   0.750099 0.249905 0.946025 -0.038734
C99   C     C_R   0.249973 0.750040 0.053951 -0.037570
C100  C     C_R   0.250325 0.250113 0.946420 -0.038088
C101  C     C_R   0.249998 0.609854 0.250011 0.561443
C102  C     C_R   0.749964 0.749881 0.053600 -0.033761
C103  C     C_R   0.249916 0.750163 0.946372 -0.034730
C104  C     C_R   0.750191 0.249917 0.053611 -0.037219
C105  C     C_3   0.136264 0.442516 0.292640 -0.087734
C106  C     C_3   0.708895 0.558941 0.863809 -0.099158
C107  C     C_3   0.287454 0.442011 0.865061 -0.085074
C108  C     C_3   0.862506 0.557875 0.294851 -0.090384
C109  C     C_3   0.815777 0.448807 0.858267 -0.062191
C110  C     C_3   0.140928 0.550917 0.185223 -0.059126
C111  C     C_3   0.859818 0.449482 0.186618 -0.069853
C112  C     C_R   0.609854 0.749988 0.750003 0.561364
C113  C     C_R   0.749980 0.390139 0.750031 0.565150
C114  C     C_3   0.177946 0.550129 0.854117 -0.072686
C115  C     C_3   0.442527 0.707434 0.863766 -0.087724
C116  C     C_3   0.558937 0.136203 0.291144 -0.099175
C117  C     C_3   0.442060 0.134832 0.712820 -0.085038
C118  C     C_3   0.557858 0.705186 0.137468 -0.090381
C119  C     C_3   0.448807 0.141712 0.184259 -0.062211
C120  C     C_3   0.550916 0.814859 0.859027 -0.059095
C121  C     C_3   0.449474 0.813415 0.140205 -0.069850
C122  C     C_3   0.550141 0.146092 0.822333 -0.072651
C123  C     C_3   0.707375 0.136260 0.557484 -0.087738
C124  C     C_R   0.750047 0.609983 0.749959 0.545897
C125  C     C_3   0.136195 0.708879 0.441062 -0.099156
C126  C     C_3   0.134837 0.287182 0.557943 -0.085033
C127  C     C_3   0.705200 0.862535 0.442142 -0.090381
C128  C     C_3   0.141730 0.815765 0.551195 -0.062190
C129  C     C_3   0.814784 0.140927 0.449084 -0.059127
C130  C     C_3   0.813441 0.859779 0.550523 -0.069843
C131  C     C_3   0.146097 0.177659 0.449863 -0.072649
C132  C     C_3   0.686682 0.949661 0.140252 -0.070960
C133  C     C_3   0.354011 0.050956 0.822057 -0.065485
C134  C     C_3   0.140630 0.949171 0.314283 -0.061486
C135  C     C_R   0.249959 0.390008 0.250005 0.549534
C136  C     C_3   0.815642 0.050836 0.641463 -0.062665
C137  C     C_3   0.366193 0.941190 0.715434 -0.098266
C138  C     C_3   0.795519 0.058661 0.138155 -0.086668
C139  C     C_3   0.707754 0.942859 0.636229 -0.086182
C140  C     C_3   0.136956 0.058056 0.206387 -0.088655
C141  C     C_3   0.684467 0.051109 0.858308 -0.065499
C142  C     C_3   0.357948 0.949704 0.183758 -0.071626
C143  C     C_3   0.148074 0.050251 0.675282 -0.072381
C144  C     C_3   0.812279 0.949300 0.360455 -0.066009
C145  C     C_3   0.363325 0.057865 0.292625 -0.086228
C146  C     C_R   0.749982 0.390145 0.249981 0.574374
C147  C     C_3   0.791153 0.940998 0.863918 -0.099070
C148  C     C_3   0.704634 0.058202 0.362362 -0.091657
C149  C     C_3   0.134146 0.940995 0.784149 -0.094001
C150  C     C_3   0.949661 0.859762 0.313294 -0.070967
C151  C     C_3   0.050956 0.177942 0.645990 -0.065484
C152  C     C_3   0.949173 0.685725 0.859377 -0.061499
C153  C     C_3   0.050833 0.358552 0.184377 -0.062678
C154  C     C_3   0.941193 0.284568 0.633807 -0.098269
C155  C     C_3   0.058662 0.861839 0.204462 -0.086669
C156  C     C_3   0.942862 0.363761 0.292269 -0.086198
C157  C     C_R   0.249989 0.609839 0.749988 0.559203
C158  C     C_3   0.058054 0.793624 0.863040 -0.088679
C159  C     C_3   0.051110 0.141684 0.315519 -0.065498
C160  C     C_3   0.949707 0.816242 0.642051 -0.071629
C161  C     C_3   0.050257 0.324701 0.851939 -0.072385
C162  C     C_3   0.949296 0.639527 0.187751 -0.066002
C163  C     C_3   0.057863 0.707371 0.636674 -0.086204
C164  C     C_3   0.940993 0.136089 0.208832 -0.099077
C165  C     C_3   0.058211 0.637652 0.295391 -0.091647
C166  C     C_3   0.940991 0.215842 0.865852 -0.094002
C167  C     C_3   0.859757 0.686695 0.050340 -0.070966
C168  C     C_R   0.890149 0.749989 0.250027 0.571354
C169  C     C_3   0.178037 0.354082 0.949037 -0.065393
C170  C     C_3   0.685716 0.140626 0.050826 -0.061496
C171  C     C_3   0.358544 0.815630 0.949168 -0.062707
C172  C     C_3   0.284649 0.366167 0.058821 -0.098277
C173  C     C_3   0.861843 0.795526 0.941341 -0.086674
C174  C     C_3   0.363760 0.707733 0.057140 -0.086186
C175  C     C_3   0.793608 0.136956 0.941942 -0.088652
C176  C     C_3   0.141653 0.684524 0.948895 -0.065506
C177  C     C_3   0.816253 0.357939 0.050302 -0.071615
C178  C     C_3   0.324653 0.148026 0.949754 -0.072391
C179  C     C_R   0.109841 0.250082 0.749959 0.563017
C180  C     C_3   0.639543 0.812274 0.050705 -0.066003
C181  C     C_3   0.707392 0.363333 0.942131 -0.086210
C182  C     C_3   0.136099 0.791197 0.059010 -0.099101
C183  C     C_3   0.637637 0.704641 0.941788 -0.091622
C184  C     C_3   0.215773 0.134169 0.059002 -0.094028
C185  C     C_3   0.684473 0.449275 0.641531 -0.066629
C186  C     C_3   0.358334 0.550162 0.315625 -0.072294
C187  C     C_3   0.640641 0.448953 0.313860 -0.065086
C188  C     C_3   0.322589 0.550554 0.646439 -0.068492
C189  C     C_3   0.362715 0.441613 0.206392 -0.087256
C190  C     C_R   0.250032 0.749971 0.109981 0.546072
C191  C     C_3   0.792256 0.557259 0.636135 -0.087602
C192  C     C_3   0.214281 0.440865 0.634565 -0.095686
C193  C     C_3   0.636827 0.558905 0.207026 -0.098856
C194  C     C_3   0.449279 0.358503 0.315478 -0.066646
C195  C     C_3   0.550156 0.684217 0.641774 -0.072255
C196  C     C_3   0.448950 0.686103 0.359333 -0.065090
C197  C     C_3   0.550571 0.353343 0.677127 -0.068455
C198  C     C_3   0.441648 0.793499 0.637229 -0.087275
C199  C     C_3   0.557263 0.363843 0.207692 -0.087638
C200  C     C_3   0.440894 0.365553 0.785403 -0.095594
C201  C     C_R   0.750040 0.249954 0.890010 0.549484
C202  C     C_3   0.558905 0.792940 0.363187 -0.098841
C203  C     C_3   0.358500 0.684515 0.550715 -0.066679
C204  C     C_3   0.684334 0.358304 0.449835 -0.072271
C205  C     C_3   0.686074 0.640685 0.551049 -0.065090
C206  C     C_3   0.353345 0.322875 0.449430 -0.068439
C207  C     C_3   0.793575 0.362734 0.558382 -0.087240
C208  C     C_3   0.363856 0.792286 0.442740 -0.087649
C209  C     C_3   0.365549 0.214597 0.559112 -0.095584
C210  C     C_3   0.792919 0.636803 0.441099 -0.098832
C211  C     C_R   0.109990 0.750040 0.750047 0.549511
C212  C     C_R   0.249956 0.250062 0.610000 0.540201
C213  C     C_R   0.890019 0.250032 0.250030 0.546064
C214  C     C_R   0.749962 0.749976 0.890003 0.551063
C215  C     C_R   0.250023 0.250038 0.109999 0.537756
C216  C     C_R   0.890001 0.250023 0.749962 0.537719
C217  C     C_R   0.109997 0.749961 0.250024 0.551081
C218  C     C_R   0.250084 0.250042 0.890159 0.563071
C219  C     C_R   0.749989 0.749973 0.109851 0.571343
C220  C     C_R   0.109860 0.249958 0.249952 0.565583
C221  C     C_R   0.890147 0.750055 0.750032 0.561119
C222  C     C_R   0.750055 0.249968 0.109853 0.561114
C223  C     C_R   0.749942 0.750036 0.390012 0.545826
C224  C     C_R   0.249957 0.750049 0.890140 0.565613
C225  C     C_R   0.749970 0.890019 0.749968 0.546051
C226  C     C_R   0.249953 0.109990 0.249960 0.549499
C227  C     C_R   0.749976 0.109997 0.250038 0.551070
C228  C     C_R   0.250038 0.890001 0.749977 0.537717
C229  C     C_R   0.250041 0.109841 0.749917 0.563012
C230  C     C_R   0.749973 0.890149 0.250011 0.571337
C231  C     C_R   0.249968 0.890147 0.249945 0.561114
C232  C     C_R   0.750048 0.109860 0.750042 0.565569
C233  C     C_R   0.203079 0.472861 0.245184 0.207008
C234  C     C_R   0.609839 0.250013 0.750012 0.559017
C235  C     C_R   0.755230 0.527151 0.796834 0.207464
C236  C     C_R   0.242867 0.472821 0.796548 0.203640
C237  C     C_R   0.796917 0.527151 0.245998 0.206280
C238  C     C_R   0.758427 0.473282 0.796501 0.202283
C239  C     C_R   0.203444 0.526745 0.241906 0.199263
C240  C     C_R   0.796608 0.473282 0.242640 0.204019
C241  C     C_R   0.239200 0.526617 0.795959 0.202754
C242  C     C_R   0.472861 0.754851 0.796918 0.207006
C243  C     C_R   0.527151 0.203164 0.244787 0.207461
C244  C     C_R   0.472824 0.203470 0.757245 0.203652
C245  C     C_R   0.390146 0.750019 0.250018 0.574352
C246  C     C_R   0.527151 0.754016 0.203083 0.206282
C247  C     C_R   0.473282 0.203496 0.241589 0.202285
C248  C     C_R   0.526745 0.758131 0.796551 0.199253
C249  C     C_R   0.473282 0.757372 0.203394 0.204000
C250  C     C_R   0.526617 0.204070 0.760915 0.202737
C251  C     C_R   0.754825 0.203080 0.527139 0.207009
C252  C     C_R   0.203165 0.755222 0.472849 0.207459
C253  C     C_R   0.203471 0.242754 0.527176 0.203657
C254  C     C_R   0.754022 0.796916 0.472849 0.206284
C255  C     C_R   0.203498 0.758420 0.526717 0.202282
C256  C     C_R   0.749989 0.249998 0.390146 0.561429
C257  C     C_R   0.758101 0.203445 0.473255 0.199265
C258  C     C_R   0.757381 0.796605 0.526717 0.203997
C259  C     C_R   0.204071 0.239083 0.473383 0.202746
C260  C     C_R   0.742758 0.973346 0.203375 0.206428
C261  C     C_R   0.295996 0.026669 0.760883 0.200580
C262  C     C_R   0.203364 0.973263 0.257799 0.199345
C263  C     C_R   0.758495 0.026759 0.703599 0.201870
C264  C     C_R   0.296558 0.972838 0.757775 0.208780
C265  C     C_R   0.746262 0.027207 0.203121 0.206495
C266  C     C_R   0.755126 0.972900 0.703212 0.204798
C267  C     C_R   0.249970 0.749981 0.609861 0.565187
C268  C     C_R   0.203026 0.027144 0.254468 0.204176
C269  C     C_R   0.741853 0.026711 0.796559 0.201706
C270  C     C_R   0.296397 0.973338 0.241571 0.203261
C271  C     C_R   0.204333 0.026570 0.738153 0.206091
C272  C     C_R   0.756898 0.973271 0.296738 0.201143
C273  C     C_R   0.296748 0.027179 0.245097 0.205797
C274  C     C_R   0.744945 0.972835 0.796883 0.208224
C275  C     C_R   0.753647 0.027165 0.297019 0.208639
C276  C     C_R   0.203705 0.972803 0.741794 0.206381
C277  C     C_R   0.973346 0.796626 0.257232 0.206425
C278  C     C_R   0.390009 0.749995 0.750040 0.549511
C279  C     C_R   0.026669 0.239115 0.704005 0.200573
C280  C     C_R   0.973263 0.742202 0.796636 0.199351
C281  C     C_R   0.026759 0.296402 0.241512 0.201877
C282  C     C_R   0.972838 0.242224 0.703442 0.208780
C283  C     C_R   0.027207 0.796880 0.253729 0.206495
C284  C     C_R   0.972900 0.296788 0.244882 0.204799
C285  C     C_R   0.027144 0.745535 0.796974 0.204185
C286  C     C_R   0.026710 0.203440 0.258141 0.201709
C287  C     C_R   0.973338 0.758427 0.703602 0.203257
C288  C     C_R   0.026571 0.261840 0.795670 0.206095
H1    H     H_    0.128394 0.481209 0.309471 0.125008
H2    H     H_    0.869813 0.519303 0.312218 0.127415
H3    H     H_    0.369308 0.989573 0.172916 0.149760
H4    H     H_    0.327397 0.935334 0.157211 0.115974
H5    H     H_    0.392296 0.924832 0.178469 0.113508
H6    H     H_    0.138354 0.010320 0.663155 0.149410
H7    H     H_    0.180668 0.065292 0.651690 0.112269
H8    H     H_    0.113979 0.074656 0.667083 0.111174
H9    H     H_    0.821708 0.988544 0.374794 0.146471
H10   H     H_    0.840287 0.937547 0.330103 0.111669
H11   H     H_    0.816832 0.922212 0.393247 0.159619
H12   H     H_    0.370913 0.019282 0.309842 0.130729
H13   H     H_    0.835952 0.580631 0.319752 0.088804
H14   H     H_    0.337307 0.080660 0.318042 0.092900
H15   H     H_    0.400697 0.078529 0.290537 0.174951
H16   H     H_    0.808539 0.979218 0.872828 0.133024
H17   H     H_    0.816798 0.918716 0.837667 0.087949
H18   H     H_    0.788288 0.919208 0.900623 0.129034
H19   H     H_    0.687136 0.019723 0.369850 0.123980
H20   H     H_    0.679899 0.080861 0.335569 0.085513
H21   H     H_    0.705893 0.079178 0.399599 0.171442
H22   H     H_    0.124479 0.979185 0.801183 0.140326
H23   H     H_    0.158856 0.918490 0.811095 0.089068
H24   H     H_    0.899879 0.578597 0.293522 0.172143
H25   H     H_    0.097562 0.919375 0.779206 0.126015
H26   H     H_    0.989520 0.871450 0.323803 0.149561
H27   H     H_    0.935305 0.829966 0.340702 0.114643
H28   H     H_    0.924769 0.894235 0.317593 0.116476
H29   H     H_    0.011969 0.166994 0.632049 0.148969
H30   H     H_    0.062237 0.153127 0.679190 0.116686
H31   H     H_    0.078617 0.170268 0.614267 0.151969
H32   H     H_    0.988662 0.675522 0.872475 0.140159
H33   H     H_    0.936185 0.658388 0.828893 0.112922
H34   H     H_    0.922946 0.680975 0.892840 0.164946
H35   H     H_    0.826554 0.488211 0.871152 0.146177
H36   H     H_    0.011333 0.371497 0.174023 0.139544
H37   H     H_    0.063866 0.327793 0.157371 0.114628
H38   H     H_    0.077024 0.391992 0.179284 0.165203
H39   H     H_    0.979438 0.301360 0.623912 0.129740
H40   H     H_    0.918952 0.311701 0.658552 0.087442
H41   H     H_    0.919388 0.279654 0.597334 0.128224
H42   H     H_    0.020324 0.868949 0.186513 0.135892
H43   H     H_    0.081716 0.834972 0.180180 0.085648
H44   H     H_    0.079421 0.899205 0.205613 0.171352
H45   H     H_    0.981638 0.371442 0.308999 0.127896
H46   H     H_    0.842466 0.435592 0.827306 0.113016
H47   H     H_    0.920313 0.337958 0.318132 0.098071
H48   H     H_    0.922250 0.401149 0.290153 0.175562
H49   H     H_    0.019544 0.811000 0.870635 0.124797
H50   H     H_    0.080799 0.818751 0.836676 0.085417
H51   H     H_    0.078881 0.791855 0.900334 0.173441
H52   H     H_    0.012011 0.127506 0.325757 0.149694
H53   H     H_    0.062900 0.173085 0.342343 0.113714
H54   H     H_    0.078413 0.109219 0.321033 0.157101
H55   H     H_    0.989576 0.827083 0.630695 0.149767
H56   H     H_    0.935334 0.842789 0.672601 0.115975
H57   H     H_    0.820895 0.422548 0.891648 0.164635
H58   H     H_    0.924838 0.821530 0.607701 0.113501
H59   H     H_    0.010329 0.336826 0.861672 0.149419
H60   H     H_    0.065289 0.348299 0.819346 0.112233
H61   H     H_    0.074671 0.332894 0.886029 0.111196
H62   H     H_    0.988540 0.625187 0.178323 0.146464
H63   H     H_    0.937539 0.669870 0.159736 0.111668
H64   H     H_    0.922209 0.606733 0.183210 0.159632
H65   H     H_    0.019279 0.690157 0.629081 0.130736
H66   H     H_    0.080653 0.681951 0.662694 0.092926
H67   H     H_    0.078531 0.709458 0.599305 0.174946
H68   H     H_    0.127808 0.511458 0.174931 0.144400
H69   H     H_    0.979211 0.127182 0.191441 0.133019
H70   H     H_    0.918708 0.162343 0.183194 0.087951
H71   H     H_    0.919205 0.099383 0.211693 0.129032
H72   H     H_    0.019736 0.630169 0.312898 0.123982
H73   H     H_    0.080875 0.664453 0.320113 0.085508
H74   H     H_    0.079187 0.600414 0.294140 0.171434
H75   H     H_    0.979179 0.198804 0.875517 0.140324
H76   H     H_    0.918483 0.188902 0.841139 0.089066
H77   H     H_    0.919372 0.220784 0.902436 0.126017
H78   H     H_    0.871449 0.676187 0.010482 0.149559
H79   H     H_    0.171541 0.563890 0.158012 0.116540
H80   H     H_    0.829958 0.659288 0.064692 0.114632
H81   H     H_    0.894227 0.682393 0.075237 0.116481
H82   H     H_    0.167103 0.368041 0.988021 0.148965
H83   H     H_    0.153189 0.320905 0.937761 0.116605
H84   H     H_    0.170396 0.385808 0.921370 0.151996
H85   H     H_    0.675516 0.127522 0.011339 0.140178
H86   H     H_    0.658380 0.171114 0.063807 0.112896
H87   H     H_    0.680962 0.107167 0.077058 0.164947
H88   H     H_    0.371489 0.825985 0.988667 0.139555
H89   H     H_    0.327783 0.842633 0.936136 0.114642
H90   H     H_    0.107525 0.577194 0.180375 0.163909
H91   H     H_    0.391983 0.820727 0.922975 0.165223
H92   H     H_    0.301460 0.376047 0.020580 0.129783
H93   H     H_    0.311757 0.341401 0.081070 0.087448
H94   H     H_    0.279759 0.402645 0.080623 0.128207
H95   H     H_    0.868953 0.813473 0.979679 0.135893
H96   H     H_    0.834979 0.819811 0.918286 0.085651
H97   H     H_    0.899209 0.794373 0.920584 0.171362
H98   H     H_    0.371445 0.691004 0.018363 0.127898
H99   H     H_    0.337956 0.681869 0.079686 0.098070
H100  H     H_    0.401146 0.709850 0.077756 0.175546
H101  H     H_    0.874125 0.488741 0.177181 0.141995
H102  H     H_    0.810986 0.129357 0.980451 0.124786
H103  H     H_    0.818737 0.163317 0.919196 0.085407
H104  H     H_    0.791833 0.099662 0.921114 0.173431
H105  H     H_    0.127442 0.674308 0.987988 0.149728
H106  H     H_    0.173049 0.657680 0.937138 0.113536
H107  H     H_    0.109207 0.679015 0.921570 0.157161
H108  H     H_    0.827096 0.369306 0.010436 0.149762
H109  H     H_    0.842795 0.327380 0.064665 0.115963
H110  H     H_    0.821547 0.392281 0.075182 0.113532
H111  H     H_    0.336770 0.138303 0.989687 0.149425
H112  H     H_    0.162255 0.420066 0.318393 0.093739
H113  H     H_    0.829185 0.437858 0.158865 0.109892
H114  H     H_    0.348268 0.180600 0.934709 0.112286
H115  H     H_    0.332829 0.113920 0.925356 0.111165
H116  H     H_    0.625207 0.821708 0.011462 0.146488
H117  H     H_    0.669895 0.840280 0.062463 0.111683
H118  H     H_    0.606751 0.816822 0.077792 0.159622
H119  H     H_    0.690172 0.370925 0.980712 0.130724
H120  H     H_    0.681973 0.337317 0.919335 0.092894
H121  H     H_    0.709487 0.400703 0.921465 0.174954
H122  H     H_    0.127195 0.808591 0.020793 0.133028
H123  H     H_    0.162359 0.816828 0.081295 0.087965
H124  H     H_    0.892523 0.422365 0.181668 0.160076
H125  H     H_    0.099392 0.788344 0.080799 0.129019
H126  H     H_    0.630142 0.687139 0.980263 0.123979
H127  H     H_    0.664432 0.679906 0.919130 0.085479
H128  H     H_    0.600403 0.705903 0.920806 0.171424
H129  H     H_    0.198736 0.124514 0.020810 0.140343
H130  H     H_    0.188842 0.158896 0.081505 0.089073
H131  H     H_    0.220692 0.097582 0.080621 0.126001
H132  H     H_    0.674683 0.488456 0.627255 0.142669
H133  H     H_    0.657374 0.437749 0.672802 0.113074
H134  H     H_    0.678889 0.421994 0.609061 0.157643
H135  H     H_    0.166501 0.510235 0.864784 0.145380
H136  H     H_    0.369557 0.510236 0.326387 0.146327
H137  H     H_    0.327994 0.564662 0.342342 0.114373
H138  H     H_    0.392838 0.574856 0.320736 0.116328
H139  H     H_    0.626305 0.488071 0.323776 0.155575
H140  H     H_    0.671562 0.437201 0.341236 0.111997
H141  H     H_    0.608074 0.421672 0.318871 0.158937
H142  H     H_    0.334434 0.510773 0.635820 0.157725
H143  H     H_    0.346926 0.565049 0.678726 0.115299
H144  H     H_    0.330037 0.575533 0.612562 0.112046
H145  H     H_    0.370101 0.480029 0.188710 0.130671
H146  H     H_    0.153206 0.564515 0.822089 0.112568
H147  H     H_    0.336349 0.418598 0.181528 0.084729
H148  H     H_    0.400091 0.420932 0.208174 0.172650
H149  H     H_    0.790056 0.577889 0.598758 0.176435
H150  H     H_    0.809035 0.518512 0.628415 0.124742
H151  H     H_    0.818118 0.579835 0.661905 0.095922
H152  H     H_    0.197063 0.479016 0.625065 0.135541
H153  H     H_    0.187702 0.418359 0.659678 0.084499
H154  H     H_    0.218767 0.419198 0.597954 0.128851
H155  H     H_    0.628189 0.520650 0.189587 0.134771
H156  H     H_    0.663505 0.581128 0.181764 0.088106
H157  H     H_    0.170643 0.574979 0.888114 0.113667
H158  H     H_    0.600088 0.580704 0.209235 0.128421
H159  H     H_    0.488460 0.372781 0.325259 0.142661
H160  H     H_    0.437752 0.327246 0.342594 0.113067
H161  H     H_    0.422000 0.390977 0.321047 0.157674
H162  H     H_    0.510231 0.673441 0.630562 0.146284
H163  H     H_    0.564646 0.657550 0.672165 0.114354
H164  H     H_    0.574859 0.679042 0.607286 0.116306
H165  H     H_    0.488071 0.676170 0.373648 0.155558
H166  H     H_    0.437179 0.658745 0.328403 0.112012
H167  H     H_    0.421681 0.681084 0.391908 0.158898
H168  H     H_    0.481224 0.690617 0.871647 0.124999
H169  H     H_    0.510797 0.363931 0.665235 0.157670
H170  H     H_    0.565066 0.320974 0.652900 0.115252
H171  H     H_    0.575563 0.387189 0.669579 0.112049
H172  H     H_    0.480074 0.811145 0.629815 0.130689
H173  H     H_    0.418654 0.818412 0.663568 0.084714
H174  H     H_    0.420961 0.791685 0.599858 0.172730
H175  H     H_    0.577905 0.401214 0.209872 0.176427
H176  H     H_    0.518517 0.371566 0.190914 0.124768
H177  H     H_    0.579828 0.338054 0.181840 0.095913
H178  H     H_    0.479052 0.375120 0.802566 0.135571
H179  H     H_    0.420083 0.681659 0.837792 0.093779
H180  H     H_    0.418414 0.340515 0.812075 0.084442
H181  H     H_    0.419211 0.402143 0.780817 0.128889
H182  H     H_    0.520649 0.810373 0.371835 0.134762
H183  H     H_    0.581123 0.818212 0.336516 0.088092
H184  H     H_    0.580708 0.790719 0.399924 0.128429
H185  H     H_    0.372811 0.674751 0.511542 0.142714
H186  H     H_    0.327233 0.657395 0.562203 0.112911
H187  H     H_    0.390950 0.678933 0.578020 0.157731
H188  H     H_    0.673566 0.369528 0.489760 0.146321
H189  H     H_    0.657631 0.327947 0.435341 0.114358
H190  H     H_    0.421670 0.709544 0.901028 0.175081
H191  H     H_    0.679205 0.392801 0.425134 0.116350
H192  H     H_    0.676135 0.626377 0.511926 0.155555
H193  H     H_    0.658725 0.671621 0.562825 0.112088
H194  H     H_    0.681045 0.608107 0.578313 0.158876
H195  H     H_    0.363940 0.334763 0.489204 0.157681
H196  H     H_    0.320975 0.347105 0.434941 0.115253
H197  H     H_    0.387187 0.330423 0.424433 0.112061
H198  H     H_    0.811248 0.370131 0.519965 0.130671
H199  H     H_    0.818453 0.336374 0.581389 0.084706
H200  H     H_    0.791782 0.400106 0.579068 0.172659
H201  H     H_    0.520705 0.127345 0.308535 0.134858
H202  H     H_    0.401228 0.790096 0.422101 0.176424
H203  H     H_    0.371581 0.809061 0.481488 0.124753
H204  H     H_    0.338076 0.818147 0.420174 0.095922
H205  H     H_    0.375107 0.197424 0.520956 0.135537
H206  H     H_    0.340512 0.187933 0.581603 0.084448
H207  H     H_    0.402143 0.219185 0.580787 0.128922
H208  H     H_    0.810348 0.628151 0.479355 0.134762
H209  H     H_    0.818198 0.663470 0.418882 0.088084
H210  H     H_    0.790693 0.600067 0.419295 0.128428
H211  H     H_    0.581228 0.162488 0.316744 0.089757
H212  H     H_    0.099000 0.421658 0.290550 0.175022
H213  H     H_    0.580702 0.099483 0.288362 0.124767
H214  H     H_    0.480575 0.126806 0.695641 0.128572
H215  H     H_    0.418879 0.159569 0.686482 0.085228
H216  H     H_    0.421719 0.097426 0.716649 0.174370
H217  H     H_    0.519280 0.687841 0.130141 0.127456
H218  H     H_    0.580595 0.680260 0.164015 0.088792
H219  H     H_    0.578591 0.706527 0.100101 0.172158
H220  H     H_    0.488211 0.128824 0.173486 0.146179
H221  H     H_    0.435591 0.172663 0.157559 0.113021
H222  H     H_    0.422549 0.108328 0.179152 0.164652
H223  H     H_    0.691503 0.520710 0.872671 0.134842
H224  H     H_    0.511456 0.825160 0.872139 0.144396
H225  H     H_    0.563889 0.842048 0.828396 0.116515
H226  H     H_    0.577192 0.819730 0.892428 0.163863
H227  H     H_    0.488736 0.822870 0.125918 0.141976
H228  H     H_    0.437829 0.841152 0.170845 0.109929
H229  H     H_    0.422369 0.818370 0.107491 0.160049
H230  H     H_    0.510250 0.135459 0.833821 0.145311
H231  H     H_    0.564531 0.178197 0.846971 0.112553
H232  H     H_    0.574996 0.112120 0.829733 0.113651
H233  H     H_    0.690547 0.128386 0.518791 0.125001
H234  H     H_    0.683290 0.581235 0.837532 0.089743
H235  H     H_    0.681619 0.162251 0.579931 0.093729
H236  H     H_    0.709468 0.098999 0.578345 0.175024
H237  H     H_    0.127336 0.691487 0.479293 0.134867
H238  H     H_    0.162473 0.683276 0.418767 0.089758
H239  H     H_    0.099474 0.711670 0.419299 0.124769
H240  H     H_    0.126809 0.304362 0.519429 0.128572
H241  H     H_    0.159576 0.313518 0.581123 0.085254
H242  H     H_    0.097432 0.283354 0.578287 0.174364
H243  H     H_    0.687856 0.869866 0.480720 0.127434
H244  H     H_    0.680270 0.835989 0.419407 0.088781
H245  H     H_    0.711691 0.580705 0.900529 0.124777
H246  H     H_    0.706543 0.899901 0.421407 0.172169
H247  H     H_    0.128848 0.826545 0.511792 0.146164
H248  H     H_    0.172688 0.842454 0.564415 0.113020
H249  H     H_    0.108346 0.820879 0.577453 0.164639
H250  H     H_    0.825071 0.127798 0.488542 0.144420
H251  H     H_    0.841998 0.171540 0.436121 0.116529
H252  H     H_    0.819632 0.107528 0.422801 0.163919
H253  H     H_    0.822897 0.874066 0.511261 0.141973
H254  H     H_    0.841170 0.829129 0.562163 0.109926
H255  H     H_    0.818407 0.892489 0.577631 0.160028
H256  H     H_    0.304672 0.480513 0.873067 0.128587
H257  H     H_    0.135459 0.166176 0.489754 0.145312
H258  H     H_    0.178205 0.153021 0.435480 0.112532
H259  H     H_    0.112128 0.170255 0.425003 0.113661
H260  H     H_    0.676171 0.989520 0.128565 0.149557
H261  H     H_    0.659280 0.935307 0.170054 0.114635
H262  H     H_    0.682374 0.924767 0.105781 0.116471
H263  H     H_    0.367960 0.011971 0.833001 0.148974
H264  H     H_    0.320808 0.062227 0.846872 0.116645
H265  H     H_    0.385727 0.078624 0.829732 0.151977
H266  H     H_    0.127529 0.988659 0.324486 0.140164
H267  H     H_    0.313718 0.418833 0.840242 0.085172
H268  H     H_    0.171118 0.936187 0.341616 0.112902
H269  H     H_    0.107170 0.922941 0.319037 0.164942
H270  H     H_    0.826004 0.011335 0.628525 0.139551
H271  H     H_    0.842640 0.063875 0.672226 0.114641
H272  H     H_    0.820741 0.077023 0.608020 0.165195
H273  H     H_    0.376089 0.979435 0.698641 0.129734
H274  H     H_    0.341448 0.918948 0.688301 0.087452
H275  H     H_    0.402666 0.919384 0.720349 0.128231
H276  H     H_    0.813469 0.020324 0.131046 0.135881
H277  H     H_    0.819803 0.081719 0.165016 0.085650
H278  H     H_    0.283711 0.421645 0.902463 0.174221
H279  H     H_    0.794363 0.079416 0.100787 0.171366
H280  H     H_    0.691025 0.981636 0.628543 0.127884
H281  H     H_    0.681886 0.920310 0.662027 0.098040
H282  H     H_    0.709880 0.922246 0.598842 0.175553
H283  H     H_    0.129359 0.019547 0.189010 0.124791
H284  H     H_    0.163317 0.080804 0.181258 0.085419
H285  H     H_    0.099662 0.078883 0.208161 0.173434
H286  H     H_    0.674226 0.012009 0.872480 0.149689
H287  H     H_    0.657647 0.062903 0.826905 0.113713
H288  H     H_    0.678950 0.078410 0.890774 0.157087
O1    O     O_3   0.250000 0.250000 0.250000 -0.476346
O2    O     O_R   0.634200 0.719710 0.719710 -0.529145
O3    O     O_R   0.219710 0.365800 0.219710 -0.500750
O4    O     O_R   0.219710 0.634200 0.219710 -0.518528
O5    O     O_R   0.780290 0.365800 0.780290 -0.521393
O6    O     O_R   0.219710 0.365800 0.780290 -0.517368
O7    O     O_R   0.780290 0.634200 0.219710 -0.519831
O8    O     O_3   0.156803 0.446431 0.242447 -0.536504
O9    O     O_3   0.758858 0.553602 0.843038 -0.535152
O10   O     O_3   0.238074 0.446530 0.842742 -0.534550
O11   O     O_3   0.843240 0.553572 0.244183 -0.540299
O12   O     O_3   0.763736 0.446647 0.842479 -0.545921
O13   O     O_R   0.280290 0.280290 0.634200 -0.500669
O14   O     O_3   0.157456 0.553451 0.237014 -0.547927
O15   O     O_3   0.842629 0.446579 0.238174 -0.546098
O16   O     O_3   0.230843 0.553081 0.841582 -0.535805
O17   O     O_3   0.446433 0.757615 0.843194 -0.536511
O18   O     O_3   0.553602 0.156959 0.241175 -0.535164
O19   O     O_3   0.446538 0.157283 0.762144 -0.534519
O20   O     O_3   0.553572 0.755846 0.156761 -0.540288
O21   O     O_3   0.446646 0.157517 0.236294 -0.545934
O22   O     O_3   0.553450 0.763057 0.842536 -0.547884
O23   O     O_3   0.446580 0.761852 0.157373 -0.546090
O24   O     O_R   0.719710 0.719710 0.365800 -0.501897
O25   O     O_3   0.553075 0.158466 0.769397 -0.535753
O26   O     O_3   0.757567 0.156804 0.553569 -0.536497
O27   O     O_3   0.156961 0.758844 0.446398 -0.535156
O28   O     O_3   0.157284 0.237857 0.553462 -0.534521
O29   O     O_3   0.755857 0.843239 0.446428 -0.540275
O30   O     O_3   0.157520 0.763724 0.553353 -0.545902
O31   O     O_3   0.762995 0.157457 0.446549 -0.547944
O32   O     O_3   0.761873 0.842624 0.553419 -0.546083
O33   O     O_3   0.158468 0.230596 0.446925 -0.535739
O34   O     O_3   0.738299 0.946758 0.157282 -0.534710
O35   O     O_R   0.634200 0.280290 0.719710 -0.524878
O36   O     O_3   0.341562 0.053254 0.769129 -0.546445
O37   O     O_3   0.157356 0.946562 0.262558 -0.545929
O38   O     O_3   0.763740 0.053443 0.657635 -0.545730
O39   O     O_3   0.342535 0.946496 0.764101 -0.531977
O40   O     O_3   0.744683 0.053653 0.156799 -0.536745
O41   O     O_3   0.757906 0.946515 0.656919 -0.541555
O42   O     O_3   0.156727 0.053556 0.256841 -0.538004
O43   O     O_3   0.736503 0.053362 0.842518 -0.547213
O44   O     O_3   0.342374 0.946789 0.235840 -0.539549
O45   O     O_3   0.158888 0.052916 0.728579 -0.532721
O46   O     O_R   0.365800 0.719710 0.280290 -0.512532
O47   O     O_3   0.760881 0.946530 0.342791 -0.549287
O48   O     O_3   0.343032 0.053601 0.242367 -0.536739
O49   O     O_3   0.741230 0.946362 0.843072 -0.534165
O50   O     O_3   0.755363 0.053613 0.343327 -0.535318
O51   O     O_3   0.157705 0.946488 0.735454 -0.533179
O52   O     O_3   0.946758 0.842720 0.261680 -0.534720
O53   O     O_3   0.053253 0.230869 0.658438 -0.546447
O54   O     O_3   0.946562 0.737448 0.842644 -0.545945
O55   O     O_3   0.053444 0.342367 0.236276 -0.545731
O56   O     O_3   0.946497 0.235900 0.657465 -0.531975
O57   O     O_R   0.719710 0.280290 0.365800 -0.529192
O58   O     O_3   0.053654 0.843202 0.255301 -0.536746
O59   O     O_3   0.946515 0.343082 0.242113 -0.541600
O60   O     O_3   0.053556 0.743167 0.843274 -0.538031
O61   O     O_3   0.053362 0.157480 0.263485 -0.547221
O62   O     O_3   0.946790 0.764159 0.657625 -0.539549
O63   O     O_3   0.052917 0.271406 0.841115 -0.532717
O64   O     O_3   0.946529 0.657206 0.239144 -0.549272
O65   O     O_3   0.053601 0.757629 0.656968 -0.536729
O66   O     O_3   0.946362 0.156926 0.258758 -0.534168
O67   O     O_3   0.053612 0.656672 0.244657 -0.535318
O68   O     O_R   0.280290 0.719710 0.634200 -0.510713
O69   O     O_3   0.946489 0.264540 0.842297 -0.533181
O70   O     O_3   0.842718 0.738310 0.053243 -0.534718
O71   O     O_3   0.230952 0.341582 0.946743 -0.546341
O72   O     O_3   0.737439 0.157356 0.053438 -0.545944
O73   O     O_3   0.342365 0.763729 0.946557 -0.545773
O74   O     O_3   0.235964 0.342547 0.053505 -0.532002
O75   O     O_3   0.843201 0.744688 0.946347 -0.536753
O76   O     O_3   0.343080 0.757888 0.053485 -0.541577
O77   O     O_3   0.743154 0.156727 0.946444 -0.537998
O78   O     O_3   0.157475 0.736550 0.946635 -0.547253
O79   O     O_R   0.365800 0.719710 0.719710 -0.517146
O80   O     O_3   0.764168 0.342373 0.053211 -0.539543
O81   O     O_3   0.271363 0.158877 0.947083 -0.532736
O82   O     O_3   0.657209 0.760875 0.053469 -0.549285
O83   O     O_3   0.757646 0.343032 0.946399 -0.536718
O84   O     O_3   0.156923 0.741266 0.053639 -0.534195
O85   O     O_3   0.656674 0.755368 0.946387 -0.535266
O86   O     O_3   0.264484 0.157698 0.053513 -0.533196
O87   O     O_3   0.736389 0.446552 0.657618 -0.546778
O88   O     O_3   0.342488 0.553197 0.263636 -0.537724
O89   O     O_3   0.657347 0.446599 0.262116 -0.548612
O90   O     O_R   0.634200 0.280290 0.280290 -0.515071
O91   O     O_3   0.269545 0.553056 0.658453 -0.538464
O92   O     O_3   0.343106 0.446395 0.256886 -0.537777
O93   O     O_3   0.742135 0.553516 0.656891 -0.540438
O94   O     O_3   0.263279 0.446465 0.657449 -0.526260
O95   O     O_3   0.656846 0.553648 0.257298 -0.529937
O96   O     O_3   0.446551 0.342388 0.263571 -0.546795
O97   O     O_3   0.553193 0.736234 0.657531 -0.537684
O98   O     O_3   0.446601 0.737855 0.342650 -0.548595
O99   O     O_3   0.553049 0.341500 0.730211 -0.538413
O100  O     O_3   0.446398 0.743026 0.656900 -0.537769
O101  O     O_R   0.280290 0.719710 0.365800 -0.515055
O102  O     O_3   0.553517 0.343111 0.257824 -0.540481
O103  O     O_3   0.446470 0.342519 0.736474 -0.526158
O104  O     O_3   0.553648 0.742674 0.343152 -0.529916
O105  O     O_3   0.342385 0.736422 0.553450 -0.546876
O106  O     O_3   0.736331 0.342484 0.446804 -0.537712
O107  O     O_3   0.737830 0.657352 0.553398 -0.548589
O108  O     O_3   0.341499 0.269791 0.446950 -0.538409
O109  O     O_3   0.743088 0.343106 0.553605 -0.537742
O110  O     O_3   0.343110 0.742160 0.446481 -0.540475
O111  O     O_3   0.342519 0.263528 0.553530 -0.526148
O112  O     O_3   0.750000 0.750000 0.750000 -0.476087
O113  O     O_R   0.719710 0.280290 0.634200 -0.517182
O114  O     O_3   0.742657 0.656849 0.446352 -0.529905
O115  O     O_R   0.634200 0.719710 0.280290 -0.501894
O116  O     O_R   0.365800 0.280290 0.719710 -0.500723
O117  O     O_R   0.719710 0.719710 0.634200 -0.512517
O118  O     O_R   0.280290 0.280290 0.365800 -0.524872
O119  O     O_R   0.280290 0.365800 0.719710 -0.500769
O120  O     O_R   0.719710 0.634200 0.280290 -0.501908
O121  O     O_R   0.280290 0.634200 0.280290 -0.529203
O122  O     O_R   0.719710 0.365800 0.719710 -0.510712
O123  O     O_R   0.719710 0.634200 0.719710 -0.515052
O124  O     O_3   0.250000 0.250000 0.750000 -0.478982
O125  O     O_R   0.280290 0.365800 0.280290 -0.517195
O126  O     O_R   0.719710 0.365800 0.280290 -0.512534
O127  O     O_R   0.280290 0.634200 0.719710 -0.524946
O128  O     O_R   0.865800 0.780290 0.280290 -0.530146
O129  O     O_R   0.134200 0.219710 0.719710 -0.506595
O130  O     O_R   0.280290 0.780290 0.134200 -0.515513
O131  O     O_R   0.719710 0.219710 0.865800 -0.517446
O132  O     O_R   0.134200 0.780290 0.719710 -0.500975
O133  O     O_R   0.865800 0.219710 0.280290 -0.515764
O134  O     O_R   0.719710 0.780290 0.865800 -0.503630
O135  O     O_3   0.750000 0.750000 0.250000 -0.477838
O136  O     O_R   0.280290 0.219710 0.134200 -0.516592
O137  O     O_R   0.865800 0.219710 0.719710 -0.515337
O138  O     O_R   0.134200 0.780290 0.280290 -0.504387
O139  O     O_R   0.280290 0.219710 0.865800 -0.526199
O140  O     O_R   0.719710 0.780290 0.134200 -0.509743
O141  O     O_R   0.134200 0.219710 0.280290 -0.511566
O142  O     O_R   0.865800 0.780290 0.719710 -0.528805
O143  O     O_R   0.719710 0.219710 0.134200 -0.519175
O144  O     O_R   0.280290 0.780290 0.865800 -0.520183
O145  O     O_R   0.780290 0.719710 0.134200 -0.530142
O146  O     O_3   0.750000 0.250000 0.750000 -0.476348
O147  O     O_R   0.219710 0.280290 0.865800 -0.506629
O148  O     O_R   0.780290 0.865800 0.719710 -0.515504
O149  O     O_R   0.219710 0.134200 0.280290 -0.517452
O150  O     O_R   0.780290 0.280290 0.865800 -0.500969
O151  O     O_R   0.219710 0.719710 0.134200 -0.515772
O152  O     O_R   0.780290 0.134200 0.280290 -0.503642
O153  O     O_R   0.219710 0.865800 0.719710 -0.516582
O154  O     O_R   0.219710 0.280290 0.134200 -0.515361
O155  O     O_R   0.780290 0.719710 0.865800 -0.504384
O156  O     O_R   0.219710 0.134200 0.719710 -0.526185
O157  O     O_3   0.250000 0.750000 0.250000 -0.476078
O158  O     O_R   0.780290 0.865800 0.280290 -0.509738
O159  O     O_R   0.219710 0.719710 0.865800 -0.511578
O160  O     O_R   0.780290 0.280290 0.134200 -0.528807
O161  O     O_R   0.219710 0.865800 0.280290 -0.519179
O162  O     O_R   0.780290 0.134200 0.719710 -0.520183
O163  O     O_R   0.719710 0.865800 0.219710 -0.530140
O164  O     O_R   0.280290 0.134200 0.780290 -0.506600
O165  O     O_R   0.865800 0.280290 0.219710 -0.515519
O166  O     O_R   0.134200 0.719710 0.780290 -0.517449
O167  O     O_R   0.280290 0.134200 0.219710 -0.500966
O168  O     O_3   0.750000 0.250000 0.250000 -0.476080
O169  O     O_R   0.719710 0.865800 0.780290 -0.515764
O170  O     O_R   0.134200 0.719710 0.219710 -0.503650
O171  O     O_R   0.865800 0.280290 0.780290 -0.516579
O172  O     O_R   0.280290 0.865800 0.780290 -0.515335
O173  O     O_R   0.719710 0.134200 0.219710 -0.504380
O174  O     O_R   0.134200 0.280290 0.780290 -0.526207
O175  O     O_R   0.865800 0.719710 0.219710 -0.509751
O176  O     O_R   0.719710 0.134200 0.780290 -0.511562
O177  O     O_R   0.280290 0.865800 0.219710 -0.528807
O178  O     O_R   0.865800 0.719710 0.780290 -0.519177
O179  O     O_3   0.250000 0.750000 0.750000 -0.476345
O180  O     O_R   0.134200 0.280290 0.219710 -0.520189
O181  O     O_R   0.365800 0.780290 0.780290 -0.500740
O182  O     O_R   0.634200 0.219710 0.219710 -0.516742
O183  O     O_R   0.780290 0.780290 0.634200 -0.512040
O184  O     O_R   0.219710 0.219710 0.365800 -0.524698
O185  O     O_R   0.634200 0.780290 0.219710 -0.519818
O186  O     O_R   0.365800 0.219710 0.780290 -0.517271
O187  O     O_R   0.219710 0.780290 0.365800 -0.516741
O188  O     O_R   0.780290 0.219710 0.634200 -0.500750
O189  O     O_R   0.365800 0.219710 0.219710 -0.521409
O190  O     O_R   0.365800 0.280290 0.280290 -0.510723
O191  O     O_R   0.634200 0.780290 0.780290 -0.518504
O192  O     O_R   0.780290 0.219710 0.365800 -0.518516
O193  O     O_R   0.219710 0.780290 0.634200 -0.521406
O194  O     O_R   0.634200 0.219710 0.780290 -0.524705
O195  O     O_R   0.365800 0.780290 0.219710 -0.512048
O196  O     O_R   0.219710 0.219710 0.634200 -0.517285
O197  O     O_R   0.780290 0.780290 0.365800 -0.519809
O198  O     O_R   0.780290 0.365800 0.219710 -0.512049
O199  O     O_R   0.219710 0.634200 0.780290 -0.524789
O200  O     O_R   0.780290 0.634200 0.780290 -0.516732
Zn1   Zn    Zn3+2 0.206600 0.293400 0.206600 0.962409
Zn2   Zn    Zn3+2 0.706600 0.206600 0.206600 0.962037
Zn3   Zn    Zn3+2 0.293400 0.206600 0.793400 0.954694
Zn4   Zn    Zn3+2 0.706600 0.793400 0.206600 0.957144
Zn5   Zn    Zn3+2 0.293400 0.206600 0.206600 0.960571
Zn6   Zn    Zn3+2 0.706600 0.793400 0.793400 0.963658
Zn7   Zn    Zn3+2 0.293400 0.793400 0.206600 0.955571
Zn8   Zn    Zn3+2 0.706600 0.206600 0.793400 0.954590
Zn9   Zn    Zn3+2 0.793400 0.206600 0.706600 0.962402
Zn10  Zn    Zn3+2 0.206600 0.793400 0.293400 0.962034
Zn11  Zn    Zn3+2 0.206600 0.206600 0.706600 0.954691
Zn12  Zn    Zn3+2 0.793400 0.706600 0.793400 0.962028
Zn13  Zn    Zn3+2 0.793400 0.793400 0.293400 0.957147
Zn14  Zn    Zn3+2 0.206600 0.793400 0.706600 0.960579
Zn15  Zn    Zn3+2 0.793400 0.206600 0.293400 0.963669
Zn16  Zn    Zn3+2 0.793400 0.793400 0.706600 0.955564
Zn17  Zn    Zn3+2 0.206600 0.206600 0.293400 0.954599
Zn18  Zn    Zn3+2 0.706600 0.293400 0.706600 0.954829
Zn19  Zn    Zn3+2 0.293400 0.706600 0.293400 0.955530
Zn20  Zn    Zn3+2 0.706600 0.293400 0.293400 0.955528
Zn21  Zn    Zn3+2 0.293400 0.706600 0.706600 0.954870
Zn22  Zn    Zn3+2 0.293400 0.293400 0.293400 0.954835
Zn23  Zn    Zn3+2 0.206600 0.293400 0.793400 0.954665
Zn24  Zn    Zn3+2 0.706600 0.706600 0.706600 0.955530
Zn25  Zn    Zn3+2 0.293400 0.293400 0.706600 0.977124
Zn26  Zn    Zn3+2 0.706600 0.706600 0.293400 0.981460
Zn27  Zn    Zn3+2 0.793400 0.706600 0.206600 0.957138
Zn28  Zn    Zn3+2 0.793400 0.293400 0.793400 0.960564
Zn29  Zn    Zn3+2 0.206600 0.706600 0.206600 0.963666
Zn30  Zn    Zn3+2 0.793400 0.293400 0.206600 0.955568
Zn31  Zn    Zn3+2 0.206600 0.706600 0.793400 0.954611
Zn32  Zn    Zn3+2 0.293400 0.793400 0.793400 0.962425

loop_
_geom_bond_atom_site_label_1
_geom_bond_atom_site_label_2
_ccdc_geom_bond_type
C165  H72   S    
C60   C79   S    
C89   C285  A    
C27   O88   S    
C211  O166  A    
C196  O98   S    
C231  O161  A    
C139  H282  S    
C175  O77   S    
O192  Zn15  S    
C2    C65   S    
C207  H199  S    
C178  H114  S    
O124  Zn25  S    
C188  O91   S    
C191  H150  S    
O149  Zn17  S    
C68   O184  A    
C281  C284  A    
C232  O162  A    
C208  H203  S    
C19   O81   S    
O24   Zn26  S    
C86   C231  S    
C41   C69   A    
C82   C274  A    
C10   O72   S    
O186  Zn3   S    
C171  O73   S    
C179  O174  A    
C214  O155  A    
C164  H71   S    
C204  H191  S    
O3    Zn1   S    
C67   C246  A    
C109  H57   S    
O181  Zn32  S    
C226  O167  A    
C18   C21   A    
C273  O48   S    
O112  Zn12  S    
C35   O185  A    
O146  Zn9   S    
C137  H273  S    
O115  Zn26  S    
C5    C286  A    
C169  O71   S    
C174  H99   S    
C123  H233  S    
C280  C285  A    
C135  O125  A    
C7    C288  A    
C52   C239  A    
C11   C15   A    
O138  Zn10  S    
C80   C276  A    
C170  H86   S    
C13   O187  A    
C1    O189  A    
C118  H217  S    
O159  Zn31  S    
C276  O51   S    
C199  H176  S    
O198  Zn30  S    
C56   C235  A    
C44   C70   A    
C225  O148  A    
C148  H19   S    
C84   C230  S    
C190  O151  A    
C207  O109  S    
C205  H192  S    
C93   C277  A    
O157  Zn7   S    
C115  H179  S    
C194  O96   S    
C107  H256  S    
C187  O89   S    
O157  Zn29  S    
C33   C59   A    
C110  H90   S    
C268  O42   S    
C271  C276  A    
O146  Zn28  S    
C85   C263  A    
C150  O52   S    
C82   C225  S    
C162  H64   S    
C47   O108  S    
C221  O178  A    
C150  H28   S    
C218  O147  A    
C52   C101  S    
O124  Zn3   S    
C187  H140  S    
C177  O80   S    
C55   C146  S    
C227  O152  A    
C215  O154  A    
C70   C256  S    
C166  H75   S    
C133  H265  S    
C234  O35   A    
C266  O41   S    
C116  O18   S    
C121  H228  S    
C175  H103  S    
C160  H58   S    
C50   O111  S    
C203  O105  S    
C65   C243  A    
C152  O54   S    
C7    C88   A    
C171  H88   S    
C130  H254  S    
C267  O68   A    
C105  H112  S    
C132  H260  S    
C284  O59   S    
O147  Zn23  S    
C57   O183  A    
C18   C104  A    
C178  H111  S    
C222  O160  A    
C154  H39   S    
O112  Zn24  S    
C86   C270  A    
C12   C97   A    
C200  H180  S    
O179  Zn21  S    
O148  Zn16  S    
C288  O63   S    
C28   C33   A    
O79   Zn21  S    
C40   C65   A    
C111  H113  S    
C210  H208  S    
C12   O74   S    
C122  H231  S    
C107  H278  S    
C135  O3    A    
C140  H284  S    
C50   C77   A    
C21   O83   S    
C206  H195  S    
C189  H148  S    
C162  O64   S    
C4    C89   A    
C161  H60   S    
C129  H251  S    
C188  H143  S    
C143  O45   S    
C43   C71   A    
C243  O18   S    
C59   C237  A    
C136  O38   S    
C233  O8    S    
C164  H69   S    
C263  O38   S    
C88   C282  A    
C245  O46   A    
C124  O123  A    
C69   C244  A    
C197  H169  S    
C220  O141  A    
C202  H183  S    
C111  H124  S    
C195  O97   S    
C256  O57   A    
C137  H275  S    
C16   O77   S    
C233  C239  A    
C156  O59   S    
O178  Zn12  S    
C91   C213  S    
C114  H157  S    
C10   C16   A    
C198  H172  S    
C156  H45   S    
C16   C98   A    
O135  Zn13  S    
C152  H33   S    
C277  O52   S    
C113  O122  A    
C121  O23   S    
C178  O81   S    
O2    Zn24  S    
C186  H138  S    
C283  O58   S    
O126  Zn20  S    
C117  H215  S    
C126  H242  S    
C105  H1    S    
C106  H234  S    
C153  H37   S    
C147  O49   S    
C184  O86   S    
C63   C250  A    
C209  H206  S    
O146  Zn8   S    
C232  O176  A    
C127  O29   S    
C146  O126  A    
C172  O74   S    
C187  H141  S    
C86   C262  A    
C141  H286  S    
C162  H62   S    
O137  Zn9   S    
C267  O193  A    
C198  O100  S    
C150  H26   S    
C120  H224  S    
C170  H85   S    
O135  Zn26  S    
C148  H20   S    
O101  Zn19  S    
C261  O36   S    
C117  O19   S    
C58   C233  A    
C143  H7    S    
C1    C62   S    
C142  O44   S    
C200  H181  S    
C43   O105  S    
C193  H156  S    
C96   C214  S    
C106  H245  S    
C134  H268  S    
C229  O156  A    
O200  Zn12  S    
C166  H77   S    
C269  C274  A    
C195  H163  S    
C230  O163  A    
C256  O192  A    
C155  O58   S    
C272  C275  A    
O13   Zn25  S    
C204  H189  S    
O163  Zn4   S    
O150  Zn28  S    
C124  O200  A    
C248  O22   S    
C119  H221  S    
C37   C42   A    
O154  Zn1   S    
O180  Zn1   S    
C57   C73   S    
C167  H80   S    
O122  Zn18  S    
C203  H186  S    
C108  H2    S    
C184  H129  S    
C70   C257  A    
C210  H209  S    
C159  H53   S    
O162  Zn9   S    
C31   C56   A    
C51   O114  S    
C76   C254  A    
O188  Zn9   S    
C255  O30   S    
C133  O36   S    
O128  Zn13  S    
C29   O91   S    
C202  O104  S    
C100  C218  S    
C110  O14   S    
C119  H220  S    
C112  O2    A    
O7    Zn27  S    
C229  O164  A    
C120  H226  S    
O131  Zn8   S    
C45   O107  S    
O179  Zn14  S    
C104  C222  S    
C183  H128  S    
C197  H171  S    
C47   C50   A    
C44   O106  S    
C133  H263  S    
C142  H4    S    
C149  H22   S    
C4    C287  A    
C228  O172  A    
C81   C226  S    
C173  H96   S    
C120  O22   S    
C160  H56   S    
C253  O28   S    
C46   O116  A    
C173  O75   S    
C194  H161  S    
C77   C253  A    
C51   C76   A    
C38   C41   A    
O189  Zn5   S    
C158  H51   S    
C156  H47   S    
C131  H257  S    
C190  O130  A    
O193  Zn14  S    
C128  H248  S    
C109  O12   S    
C242  C248  A    
C17   O78   S    
C167  H81   S    
C236  C241  A    
C182  H122  S    
C157  O127  A    
O166  Zn31  S    
C250  O25   S    
C260  O34   S    
C198  H174  S    
C163  H66   S    
O123  Zn24  S    
O68   Zn21  S    
C20   C23   A    
C35   C67   S    
C269  O43   S    
C41   O103  S    
C136  H271  S    
C3    C93   A    
C5    C91   A    
C14   O75   S    
C148  O50   S    
C163  O65   S    
C71   C255  A    
C31   O93   S    
C141  H288  S    
C169  H83   S    
C252  C255  A    
C221  O142  A    
C25   C97   A    
C157  O199  A    
C22   O84   S    
C9    C100  A    
C42   C67   A    
O152  Zn15  S    
O160  Zn30  S    
C83   C261  A    
O127  Zn21  S    
O120  Zn26  S    
O195  Zn7   S    
C193  H158  S    
C238  O12   S    
C134  H266  S    
C262  O37   S    
C78   C227  S    
C234  O194  A    
C109  H35   S    
C113  O5    A    
C110  H79   S    
C106  O9    S    
C95   C280  A    
C139  H281  S    
C280  O54   S    
C123  H236  S    
C172  H92   S    
C36   C39   A    
C111  H101  S    
C159  H52   S    
C282  O56   S    
C178  H115  S    
C99   C190  S    
C189  H145  S    
C191  H149  S    
C131  H259  S    
C58   C135  S    
O129  Zn11  S    
C188  H142  S    
C208  H204  S    
C105  H212  S    
C91   C284  A    
C129  O31   S    
C205  O107  S    
C201  O131  A    
O176  Zn8   S    
C18   O80   S    
C11   O73   S    
C286  O61   S    
C108  H13   S    
C63   C234  S    
C184  H131  S    
C151  H30   S    
C176  H105  S    
C214  O134  A    
C95   C287  A    
O167  Zn5   S    
C92   C279  A    
C213  O133  A    
C235  C238  A    
C154  O56   S    
C20   O82   S    
C174  H100  S    
C245  O195  A    
C9    C12   A    
C201  O150  A    
O134  Zn6   S    
C191  O93   S    
C155  H44   S    
C171  H91   S    
C161  O63   S    
O197  Zn13  S    
C230  O158  A    
C72   C259  A    
C182  O84   S    
C218  O139  A    
C118  H218  S    
C237  C240  A    
C125  H237  S    
C216  O171  A    
O199  Zn31  S    
C180  O82   S    
O142  Zn16  S    
C165  H74   S    
O182  Zn2   S    
C61   C112  S    
C183  H126  S    
C222  O143  A    
C145  H15   S    
C177  H109  S    
C180  H117  S    
C199  H177  S    
C246  C249  A    
C34   O96   S    
C181  H120  S    
C285  O60   S    
C81   C268  A    
C134  O37   S    
C183  O85   S    
C263  C266  A    
C98   C201  S    
O90   Zn20  S    
C192  H153  S    
C80   C264  A    
O187  Zn10  S    
C257  O31   S    
C122  H232  S    
C158  H49   S    
C57   O117  A    
C205  H194  S    
C89   C211  S    
C1    O190  A    
C61   C248  A    
C220  O180  A    
C147  H18   S    
C95   C221  S    
O135  Zn27  S    
C187  H139  S    
C56   C124  S    
O185  Zn4   S    
C126  O28   S    
C144  H9    S    
C29   C32   A    
O112  Zn16  S    
C166  H76   S    
C109  H46   S    
C101  O121  A    
C29   C54   A    
C108  H24   S    
C227  O173  A    
C34   C62   A    
C181  H119  S    
C146  O198  A    
C85   C269  A    
O183  Zn16  S    
C235  O9    S    
C53   C113  S    
C77   C212  S    
O196  Zn11  S    
C106  H223  S    
C93   C168  S    
C127  H243  S    
C130  H255  S    
C167  O70   S    
C279  O53   S    
C278  O181  A    
C90   O7    A    
O57   Zn20  S    
C55   C240  A    
C154  H40   S    
C115  H168  S    
C125  H239  S    
C203  H187  S    
C193  O95   S    
O141  Zn17  S    
C194  H159  S    
C3    C6    A    
C161  H59   S    
C252  O27   S    
C127  H246  S    
C107  H267  S    
C138  H279  S    
C270  C273  A    
C172  H94   S    
O136  Zn5   S    
C75   C251  A    
C209  O111  S    
C14   C96   A    
O184  Zn17  S    
C189  H147  S    
C108  O11   S    
C32   O94   S    
C181  H121  S    
O190  Zn22  S    
C76   C223  S    
C35   O115  A    
C129  H250  S    
C170  H87   S    
C224  O144  A    
C159  O61   S    
C208  O110  S    
O170  Zn29  S    
C169  H82   S    
O157  Zn19  S    
C154  H41   S    
C196  H166  S    
C116  H213  S    
C164  H70   S    
C211  O132  A    
C3    O64   S    
C195  H162  S    
C83   C229  S    
C176  H107  S    
C202  H184  S    
C8    O70   S    
C137  H274  S    
O177  Zn7   S    
C25   O86   S    
C199  O102  S    
C217  O170  A    
C54   C241  A    
C78   C265  A    
C92   C179  S    
C103  C224  S    
C261  C264  A    
C155  H42   S    
C253  C259  A    
C219  O140  A    
O124  Zn23  S    
C181  O83   S    
C94   C220  S    
O157  Zn10  S    
C82   C266  A    
C117  H214  S    
C80   C228  S    
C182  H125  S    
C83   C271  A    
O121  Zn19  S    
C239  O14   S    
O135  Zn4   S    
C185  H132  S    
C215  O136  A    
C94   C281  A    
C163  H67   S    
C249  O23   S    
C170  O72   S    
O153  Zn14  S    
O124  Zn11  S    
C251  O26   S    
C186  O88   S    
C243  C247  A    
C28   O89   S    
C39   C66   A    
C136  H270  S    
C32   C60   A    
C36   C61   A    
C153  O55   S    
C37   C64   A    
C162  H63   S    
C107  O10   S    
C246  O20   S    
C48   O109  S    
C177  H108  S    
O194  Zn8   S    
C150  H27   S    
C147  H16   S    
C26   O87   S    
C71   C267  S    
C22   C99   A    
C173  H95   S    
C231  O177  A    
C73   C258  A    
C212  O13   A    
C94   C286  A    
C116  H201  S    
C74   C252  A    
C19   C100  A    
C193  H155  S    
C24   C75   S    
C149  H25   S    
C134  H269  S    
C175  H104  S    
C17   C22   A    
C287  O62   S    
O5    Zn28  S    
C141  O43   S    
O116  Zn25  S    
C149  O51   S    
C138  H276  S    
C270  O44   S    
O172  Zn32  S    
O139  Zn3   S    
C132  H261  S    
C251  C257  A    
C206  H197  S    
C204  O106  S    
C21   C98   A    
C144  H11   S    
C210  O114  S    
O151  Zn29  S    
C128  H249  S    
O173  Zn2   S    
C130  H253  S    
C281  O55   S    
C10   C104  A    
O155  Zn12  S    
C123  O26   S    
C79   O119  A    
C81   C273  A    
C2    O182  A    
C87   C283  A    
C47   C72   A    
C116  H211  S    
O132  Zn14  S    
C203  H185  S    
O168  Zn30  S    
C64   C249  A    
O35   Zn18  S    
C184  H130  S    
C237  O11   S    
O143  Zn2   S    
C191  H151  S    
C13   C74   S    
C210  H210  S    
C118  O20   S    
O6    Zn23  S    
C97   C215  S    
C138  H277  S    
C254  C258  A    
C49   C74   A    
C122  H230  S    
O1    Zn17  S    
C275  O50   S    
C260  C265  A    
C140  H283  S    
O179  Zn31  S    
O144  Zn32  S    
C105  O8    S    
O174  Zn23  S    
C197  O99   S    
C188  H144  S    
C54   C157  S    
C161  H61   S    
C139  O41   S    
C129  H252  S    
C44   C48   A    
C40   O102  S    
C199  H175  S    
C174  H98   S    
C208  H202  S    
C186  H136  S    
O161  Zn10  S    
C259  O33   S    
C194  H160  S    
C60   C236  A    
C101  O4    A    
C92   C288  A    
C183  H127  S    
C145  H12   S    
O112  Zn6   S    
C197  H170  S    
C180  H116  S    
C79   O6    A    
C110  H68   S    
C202  H182  S    
C142  H5    S    
C151  O53   S    
C158  O60   S    
C68   O118  A    
C204  H188  S    
C244  C250  A    
C121  H227  S    
C34   C40   A    
C185  O87   S    
O168  Zn15  S    
O164  Zn3   S    
C126  H241  S    
C7    O69   S    
C244  O19   S    
C262  C268  A    
C156  H48   S    
C143  H8    S    
C117  H216  S    
C20   C102  A    
C45   C51   A    
C119  H222  S    
C151  H29   S    
C186  H137  S    
C23   C96   A    
C45   C73   A    
C279  C282  A    
C192  O94   S    
C182  H123  S    
C271  O45   S    
C46   O186  A    
O117  Zn24  S    
C236  O10   S    
C164  O66   S    
C38   C63   A    
C165  H73   S    
C64   C245  S    
C209  H207  S    
C240  O15   S    
C196  H165  S    
C46   C69   S    
C136  H272  S    
C66   C278  S    
C153  H38   S    
C152  H34   S    
O1    Zn5   S    
C127  H244  S    
C131  H258  S    
C68   C72   S    
C125  H238  S    
C137  O39   S    
C177  H110  S    
C258  O32   S    
C23   O85   S    
C174  O76   S    
C163  H65   S    
O125  Zn22  S    
C27   C30   A    
C223  O24   A    
O145  Zn27  S    
C48   C75   A    
O165  Zn30  S    
C85   C232  S    
C78   C275  A    
C125  O27   S    
C138  O40   S    
C49   O110  S    
C28   C55   A    
C42   O104  S    
C168  O175  A    
C175  H102  S    
C264  O39   S    
C84   C272  A    
C195  H164  S    
O146  Zn18  S    
C123  H235  S    
C24   O188  A    
O171  Zn28  S    
O119  Zn25  S    
C152  H32   S    
C145  O48   S    
C166  O69   S    
O169  Zn6   S    
C43   C49   A    
C112  O191  A    
O46   Zn19  S    
C66   C242  A    
O179  Zn32  S    
C212  O196  A    
C167  H78   S    
C6    C87   A    
C272  O47   S    
C59   C90   S    
C140  O42   S    
C189  O92   S    
C111  O15   S    
C216  O137  A    
O118  Zn22  S    
C115  H190  S    
C13   O101  A    
C185  H133  S    
C176  H106  S    
C172  H93   S    
O4    Zn29  S    
C132  H262  S    
C130  O32   S    
C217  O138  A    
C254  O29   S    
O175  Zn27  S    
C114  H135  S    
C159  H54   S    
O168  Zn20  S    
O158  Zn13  S    
C140  H285  S    
C153  H36   S    
C265  O40   S    
C102  C219  S    
C155  H43   S    
C242  O17   S    
C126  H240  S    
C5    O66   S    
C207  H198  S    
C90   O120  A    
C247  O21   S    
C118  H219  S    
C206  H196  S    
C36   O97   S    
C207  H200  S    
C185  H134  S    
C120  H225  S    
C26   C53   A    
C9    O71   S    
C223  O197  A    
C213  O165  A    
C27   C52   A    
C180  H118  S    
C15   O76   S    
C179  O129  A    
C133  H264  S    
C128  O30   S    
C142  H3    S    
C149  H23   S    
C131  O33   S    
C38   O99   S    
C8    C14   A    
C88   C216  S    
C121  H229  S    
C160  H55   S    
C84   C260  A    
C192  H154  S    
C139  H280  S    
C165  O67   S    
C144  O47   S    
C15   C99   A    
C6    O67   S    
C114  H146  S    
C141  H287  S    
C53   C238  A    
C158  H50   S    
C171  H89   S    
C143  H6    S    
C173  H97   S    
C4    O65   S    
C122  O25   S    
C147  H17   S    
C128  H247  S    
C168  O128  A    
C219  O145  A    
C224  O159  A    
C225  O169  A    
O1    Zn22  S    
C206  O108  S    
C17   C103  A    
C198  H173  S    
C132  O34   S    
C209  H205  S    
C62   C247  A    
C196  H167  S    
C30   C58   A    
C274  O49   S    
C30   O92   S    
C226  O149  A    
O168  Zn2   S    
C228  O153  A    
C119  O21   S    
C87   C217  S    
C277  C283  A    
C145  H14   S    
C19   C25   A    
C200  O103  S    
C114  O16   S    
O1    Zn1   S    
C169  H84   S    
C205  H193  S    
O133  Zn15  S    
C241  O16   S    
C144  H10   S    
O113  Zn18  S    
C26   C31   A    
C2    O90   A    
C278  O79   A    
C160  O62   S    
C24   O113  A    
C115  O17   S    
C148  H21   S    
C11   C103  A    
O130  Zn7   S    
C176  O78   S    
C39   O100  S    
O140  Zn4   S    
C8    C102  A    
O191  Zn6   S    
C200  H178  S    
C33   O95   S    
C151  H31   S    
C37   O98   S    
O156  Zn11  S    
C192  H152  S    
