data_mof_unit_14990.cif
_audit_creation_date              2013-03-05T16:07:27-0500
_audit_creation_method            fapswitch 2.2
_symmetry_space_group_name_H-M    P1
_symmetry_Int_Tables_number       1
_space_group_crystal_system       triclinic
_cell_length_a                    19.237114
_cell_length_b                    7.075981
_cell_length_c                    17.887123
_cell_angle_alpha                 90.044743
_cell_angle_beta                  108.588359
_cell_angle_gamma                 89.874814
_cell_volume                      2307.7988155

loop_
_atom_site_label
_atom_site_type_symbol
_atom_site_description
_atom_site_fract_x
_atom_site_fract_y
_atom_site_fract_z
_atom_type_partial_charge
O1    O     O_R   0.413720 0.494330 0.415730 -0.572380
O2    O     O_R   0.586280 0.994330 0.584270 -0.572812
O3    O     O_R   0.560210 0.819300 0.430070 -0.592922
O4    O     O_R   0.439790 0.319300 0.569930 -0.594135
C1    C     C_R   0.580385 0.654706 0.413319 1.021713
C2    C     C_R   0.419877 0.155117 0.587017 1.024349
O5    O     O_R   0.412670 0.823730 0.406310 -0.585741
O6    O     O_R   0.587330 0.323730 0.593690 -0.583195
O7    O     O_R   0.437690 0.998790 0.560340 -0.559250
O8    O     O_R   0.562310 0.498790 0.439660 -0.559998
C3    C     C_R   0.386832 0.654617 0.381934 1.017335
C4    C     C_R   0.613301 0.154501 0.617844 1.020961
O9    O     O_3   0.508380 0.662350 0.550560 -0.244763
O10   O     O_3   0.491620 0.162350 0.449440 -0.245024
V1    V     V_3+5 0.498450 0.935370 0.490620 1.344740
V2    V     V_3+5 0.501550 0.435370 0.509380 1.345195
C5    C     C_R   0.731421 0.003429 0.697211 -0.172986
C6    C     C_R   0.267729 0.506954 0.304093 -0.175211
C7    C     C_R   0.678406 0.142866 0.689576 -0.292904
C8    C     C_R   0.321594 0.642863 0.310221 -0.300118
C9    C     C_R   0.691248 0.270316 0.754753 0.427388
C10   C     C_R   0.309175 0.765884 0.243590 0.439935
C11   C     C_R   0.758514 0.261932 0.819263 0.349664
C12   C     C_R   0.241952 0.756241 0.179334 0.351343
C13   C     C_R   0.812697 0.121140 0.821460 -0.372490
C14   C     C_R   0.186748 0.621347 0.178955 -0.374668
C15   C     C_R   0.794421 0.991925 0.759788 -0.044408
C16   C     C_R   0.204281 0.496090 0.241986 -0.041472
C17   C     C_3   0.825798 0.833787 0.725114 0.725419
C18   C     C_3   0.172518 0.341592 0.277863 0.723133
C19   C     C_3   0.753986 0.844584 0.653953 0.616319
C20   C     C_3   0.244890 0.351018 0.348314 0.616835
C21   C     C_R   0.320279 0.289316 0.631567 -0.004953
C22   C     C_R   0.679899 0.788845 0.369158 0.000239
C23   C     C_R   0.372653 0.147522 0.638730 -0.368292
C24   C     C_R   0.628412 0.645639 0.362599 -0.367863
C25   C     C_R   0.378794 0.000303 0.693609 0.425639
C26   C     C_R   0.624259 0.494864 0.309686 0.424909
C27   C     C_R   0.330067 0.992675 0.739516 -0.114436
C28   C     C_R   0.673551 0.486281 0.264558 -0.113522
C29   C     C_R   0.275379 0.135681 0.728992 -0.040422
C30   C     C_R   0.725291 0.634928 0.272087 -0.043705
C31   C     C_R   0.270951 0.284976 0.674981 0.001500
C32   C     C_R   0.728830 0.785559 0.325331 -0.007060
C33   C     C_R   0.334058 0.845278 0.794698 0.476196
C34   C     C_R   0.672996 0.332696 0.213026 0.499818
C35   C     C_R   0.281298 0.834025 0.834283 0.337886
C36   C     C_R   0.721801 0.330760 0.168451 0.298511
C37   C     C_R   0.228197 0.978536 0.824998 0.019888
C38   C     C_R   0.773420 0.477843 0.176811 0.014340
C39   C     C_R   0.225222 0.130185 0.772526 0.008252
C40   C     C_R   0.774367 0.631891 0.227406 0.008567
C41   C     C_R   0.171704 0.275562 0.763299 -0.147361
C42   C     C_R   0.825326 0.781433 0.234074 -0.136481
C43   C     C_R   0.164499 0.415130 0.704259 0.170407
C44   C     C_R   0.832769 0.921045 0.293132 0.189244
C45   C     C_R   0.214878 0.422362 0.662056 0.221454
C46   C     C_R   0.783999 0.924684 0.337374 0.215692
C47   C     C_R   0.179218 0.975935 0.868985 -0.157792
C48   C     C_R   0.825782 0.470043 0.137189 -0.155943
C49   C     C_R   0.128955 0.122144 0.863865 -0.254128
C50   C     C_R   0.871263 0.623671 0.136734 -0.257030
C51   C     C_R   0.126548 0.275491 0.813095 0.517367
C52   C     C_R   0.868412 0.784442 0.182205 0.550887
H1    H     H_    0.317017 0.400891 0.589416 0.213897
H2    H     H_    0.682399 0.901555 0.410670 0.215004
H3    H     H_    0.181769 0.864219 0.910962 0.184845
H4    H     H_    0.830348 0.345401 0.104307 0.195317
O11   O     O_R   0.937800 0.775460 0.060470 -0.550349
O12   O     O_R   0.062200 0.275460 0.939530 -0.558056
O13   O     O_R   0.087350 0.441340 0.093710 -0.568549
O14   O     O_R   0.912650 0.941340 0.906290 -0.580044
C53   C     C_R   0.115818 0.610126 0.114608 0.982367
C54   C     C_R   0.884167 0.110249 0.885311 1.029621
O15   O     O_R   0.939820 0.446010 0.069950 -0.600823
O16   O     O_R   0.060180 0.946010 0.930050 -0.619856
O17   O     O_R   0.913690 0.271230 0.915700 -0.567115
O18   O     O_R   0.086310 0.771230 0.084300 -0.568303
C55   C     C_R   0.919503 0.615015 0.086006 1.030639
C56   C     C_R   0.080740 0.114555 0.914393 1.032163
O19   O     O_3   0.991670 0.603050 0.949510 -0.264571
O20   O     O_3   0.008330 0.103050 0.050490 -0.244183
V3    V     V_3+5 0.001550 0.329940 0.009370 1.315321
V4    V     V_3+5 0.998450 0.829940 0.990630 1.302271
O21   O     O_3   0.638424 0.397246 0.760261 -0.671304
H5    H     H_    0.589409 0.349206 0.729326 0.330541
O22   O     O_3   0.361359 0.893004 0.237148 -0.670319
H6    H     H_    0.410376 0.849889 0.270515 0.331119
O23   O     O_3   0.284112 0.681434 0.883202 -0.721054
H7    H     H_    0.233676 0.632395 0.871716 0.305663
O24   O     O_3   0.717035 0.183668 0.116280 -0.764878
H8    H     H_    0.719326 0.237741 0.066086 0.368683
O25   O     O_3   0.080314 0.423672 0.814223 -0.695417
H9    H     H_    0.109533 0.541106 0.820448 0.311000
O26   O     O_3   0.907133 0.942430 0.174027 -0.696623
H10   H     H_    0.875369 0.053601 0.172576 0.331586
N1    N     N_R   0.103385 0.543485 0.682467 0.269351
O27   O     O_R   0.114289 0.725171 0.685240 -0.349162
O28   O     O_R   0.037018 0.478547 0.652709 -0.221723
N2    N     N_R   0.893676 0.049751 0.313955 0.267650
O29   O     O_R   0.882740 0.230803 0.316711 -0.336888
O30   O     O_R   0.960483 0.984685 0.336587 -0.241639
N3    N     N_R   0.205809 0.564838 0.602530 0.273419
O31   O     O_R   0.144685 0.576313 0.544255 -0.192789
O32   O     O_R   0.254477 0.697597 0.611949 -0.356631
N4    N     N_R   0.794961 0.062029 0.399187 0.274423
O33   O     O_R   0.856650 0.066419 0.456865 -0.194149
O34   O     O_R   0.747227 0.196150 0.393144 -0.350316
N5    N     N_R   0.768114 0.386892 0.885050 0.263874
O35   O     O_R   0.786174 0.318269 0.956049 -0.453066
O36   O     O_R   0.750028 0.564416 0.873834 -0.301575
N6    N     N_R   0.233921 0.871919 0.111461 0.246803
O37   O     O_R   0.271010 0.830796 0.064212 -0.346203
O38   O     O_R   0.201199 0.034895 0.105032 -0.338621
O39   O     O_3   0.834634 0.666667 0.769372 -0.723346
H11   H     H_    0.847037 0.566812 0.736738 0.352322
O40   O     O_3   0.162296 0.172920 0.234513 -0.711072
H12   H     H_    0.149718 0.075582 0.267956 0.356495
O41   O     O_3   0.889213 0.886686 0.707488 -0.678186
H13   H     H_    0.929488 0.892232 0.758532 0.334887
O42   O     O_3   0.109809 0.399484 0.295979 -0.676420
H14   H     H_    0.069383 0.406832 0.245083 0.333954
O43   O     O_3   0.708684 0.684028 0.643229 -0.730696
H15   H     H_    0.694593 0.666015 0.691503 0.362958
O44   O     O_3   0.289385 0.188347 0.359038 -0.731049
H16   H     H_    0.301995 0.166156 0.310071 0.355400
N7    N     N_R   0.765846 0.901887 0.580459 0.257470
O45   O     O_R   0.795188 0.782874 0.543761 -0.290552
O46   O     O_R   0.747475 0.069896 0.551163 -0.355963
N8    N     N_R   0.234066 0.411243 0.421981 0.257670
O47   O     O_R   0.204114 0.295248 0.459059 -0.294487
O48   O     O_R   0.253884 0.578711 0.451018 -0.356364
N9    N     N_R   0.435391 0.861604 0.702809 0.269063
O49   O     O_R   0.419499 0.697893 0.668503 -0.319712
O50   O     O_R   0.503773 0.908987 0.734927 -0.381619
N10   N     N_R   0.567882 0.356061 0.300124 0.267443
O51   O     O_R   0.582771 0.197517 0.338793 -0.320578
O52   O     O_R   0.499931 0.400186 0.262995 -0.374794
O53   O     O_3   0.389177 0.711051 0.808037 -0.675597
H17   H     H_    0.386861 0.619717 0.848986 0.378238
O54   O     O_3   0.623525 0.186690 0.206016 -0.678264
H18   H     H_    0.634370 0.080252 0.175564 0.369791

loop_
_geom_bond_atom_site_label_1
_geom_bond_atom_site_label_2
_geom_bond_distance
_ccdc_geom_bond_type
C18   C20   1.553236 S    
O22   H6    0.989263 S    
O25   H9    0.990371 S    
C15   C17   1.495246 S    
C35   O23   1.380376 S    
O26   H10   0.990286 S    
O1    C3    1.310923 A    
C19   N7    1.461877 S    
O2    C4    1.310674 A    
C22   H2    1.079900 S    
C2    O7    1.292475 A    
C20   N8    1.461149 S    
N1    O27   1.301417 A    
C21   H1    1.079929 S    
O43   H15   0.992401 S    
C27   C29   1.426734 A    
O21   H5    0.989587 S    
C28   C34   1.422332 A    
C17   O41   1.405382 S    
C42   C52   1.427794 A    
C23   C25   1.410619 A    
C12   C14   1.427834 A    
N5    O36   1.301234 A    
N4    O33   1.301251 A    
O17   V3    2.008257 S    
C49   C56   1.488194 S    
O39   H11   0.992132 S    
C1    C24   1.488231 S    
C33   O53   1.384910 S    
C14   C53   1.480539 S    
C2    C23   1.489903 S    
C48   C50   1.398565 A    
C13   C54   1.482984 S    
C33   C35   1.412967 A    
C49   C51   1.406683 A    
C50   C52   1.409048 A    
C47   H3    1.080908 S    
O54   H18   0.989236 S    
C32   C46   1.414339 A    
C37   C39   1.415173 A    
C54   O17   1.311716 A    
C12   N6    1.431505 S    
C38   C40   1.412653 A    
C53   O18   1.310572 A    
C26   N10   1.433956 S    
C22   C24   1.397032 A    
C27   C33   1.421576 A    
C36   C38   1.414637 A    
C17   O39   1.403141 S    
O6    V2    2.007725 S    
C29   C31   1.416106 A    
O16   V4    2.021122 S    
C30   C32   1.416029 A    
C11   N5    1.435700 S    
N6    O38   1.300100 A    
N6    O37   1.300440 A    
O19   V3    2.188400 S    
C40   C42   1.422915 A    
O5    C3    1.316330 A    
C34   O54   1.384495 S    
O13   V3    2.009451 S    
C41   C43   1.420389 A    
C45   N3    1.436306 S    
O53   H17   0.988855 S    
C42   C44   1.419481 A    
C3    C8    1.483679 S    
C47   C49   1.397487 A    
O12   C56   1.313533 A    
C5    C15   1.364983 A    
C50   C55   1.491574 S    
C6    C16   1.365884 A    
C35   C37   1.415707 A    
N1    O28   1.301305 A    
O24   H8    0.990082 S    
O13   C53   1.318223 A    
C5    C7    1.392572 A    
C36   O24   1.380915 S    
C9    O21   1.381570 S    
C46   N4    1.435964 S    
C21   C31   1.405141 A    
C20   O44   1.409168 S    
O4    V2    2.021173 S    
N8    O48   1.301579 A    
N7    O46   1.301486 A    
O12   V3    1.999240 S    
C28   C30   1.426199 A    
C18   O42   1.405317 S    
O6    C4    1.315589 A    
C43   N1    1.436216 S    
N2    O30   1.301362 A    
C22   C32   1.404091 A    
N3    O32   1.300159 A    
O1    V2    2.007100 S    
C10   O22   1.381298 S    
O2    V1    2.008091 S    
O42   H14   0.992386 S    
O14   V4    2.007547 S    
O14   C54   1.317686 A    
C8    C10   1.433359 A    
O20   V4    2.187657 S    
C9    C11   1.434318 A    
O44   H16   0.992842 S    
C5    C19   1.503694 S    
C10   C12   1.432019 A    
O11   C55   1.313961 A    
O4    C2    1.291115 A    
C6    C20   1.503738 S    
C44   N2    1.437667 S    
N7    O45   1.300757 A    
O19   V4    1.753123 S    
O3    V1    2.018373 S    
N10   O52   1.300911 A    
C7    C9    1.431502 A    
O16   C56   1.315456 A    
C52   O26   1.378172 S    
N10   O51   1.300972 A    
O3    C1    1.291689 A    
O41   H13   0.992230 S    
C18   O40   1.402419 S    
C13   C15   1.388913 A    
C51   O25   1.377747 S    
C14   C16   1.388618 A    
C37   C47   1.407071 A    
C38   C48   1.405268 A    
C43   C45   1.406564 A    
N8    O47   1.300789 A    
O7    V1    2.012203 S    
C19   O43   1.408681 S    
C16   C18   1.494760 S    
C17   C19   1.553418 S    
O11   V4    2.000600 S    
O8    V2    2.013776 S    
O40   H12   0.992197 S    
C24   C26   1.411016 A    
C26   C28   1.429028 A    
C41   C51   1.428713 A    
O15   V3    2.018324 S    
N9    O49   1.301075 A    
N4    O34   1.299469 A    
C4    C7    1.482186 S    
O5    V1    2.009634 S    
N2    O29   1.301267 A    
C21   C23   1.397022 A    
C44   C46   1.407241 A    
C6    C8    1.393682 A    
C11   C13   1.431740 A    
C25   N9    1.434244 S    
C31   C45   1.413799 A    
C34   C36   1.412267 A    
O18   V4    2.007271 S    
C1    O8    1.291131 A    
C48   H4    1.078563 S    
C25   C27   1.430685 A    
O20   V3    1.753653 S    
O9    V2    1.754076 S    
N3    O31   1.301575 A    
N9    O50   1.301055 A    
O10   V1    1.754603 S    
C39   C41   1.425724 A    
O23   H7    0.989066 S    
N5    O35   1.299315 A    
O15   C55   1.316945 A    
C29   C39   1.420598 A    
C30   C40   1.418240 A    
