data_mof_unit_54354.cif
_audit_creation_date              2013-03-05T15:47:19-0500
_audit_creation_method            fapswitch 2.2
_symmetry_space_group_name_H-M    P1
_symmetry_Int_Tables_number       1
_space_group_crystal_system       triclinic
_cell_length_a                    19.343186
_cell_length_b                    11.463019
_cell_length_c                    18.684778
_cell_angle_alpha                 89.995514
_cell_angle_beta                  89.336422
_cell_angle_gamma                 90.21764
_cell_volume                      4142.69250385

loop_
_atom_site_label
_atom_site_type_symbol
_atom_site_description
_atom_site_fract_x
_atom_site_fract_y
_atom_site_fract_z
_atom_type_partial_charge
O1    O     O_R   0.214130 0.708570 0.829890 -0.513223
O2    O     O_R   0.785870 0.708570 0.170110 -0.503986
O3    O     O_R   0.714130 0.208570 0.829890 -0.513219
O4    O     O_R   0.285870 0.208570 0.170110 -0.504005
O5    O     O_R   0.236050 0.959150 0.825270 -0.509244
O6    O     O_R   0.763950 0.959150 0.174730 -0.533861
O7    O     O_R   0.736050 0.459150 0.825270 -0.509238
O8    O     O_R   0.263950 0.459150 0.174730 -0.533861
C1    C     C_R   0.272191 0.045168 0.853673 0.532685
C2    C     C_R   0.727867 0.043420 0.146105 0.555603
C3    C     C_R   0.772189 0.545169 0.853672 0.532686
C4    C     C_R   0.227867 0.543418 0.146104 0.555592
O9    O     O_R   0.332100 0.076650 0.832310 -0.451206
O10   O     O_R   0.667900 0.076650 0.167690 -0.436141
O11   O     O_R   0.832100 0.576650 0.832310 -0.451204
O12   O     O_R   0.167900 0.576650 0.167690 -0.436140
O13   O     O_R   0.446500 0.918620 0.826240 -0.481283
O14   O     O_R   0.553500 0.918620 0.173760 -0.497404
O15   O     O_R   0.946500 0.418620 0.826240 -0.481280
O16   O     O_R   0.053500 0.418620 0.173760 -0.497414
C5    C     C_R   0.439868 0.817381 0.861674 0.522438
C6    C     C_R   0.539620 0.819890 0.140945 0.522277
C7    C     C_R   0.939868 0.317382 0.861674 0.522446
C8    C     C_R   0.039610 0.319891 0.140949 0.522308
O17   O     O_R   0.457310 0.715830 0.831280 -0.496516
O18   O     O_R   0.542690 0.715830 0.168720 -0.481628
O19   O     O_R   0.957310 0.215830 0.831280 -0.496527
O20   O     O_R   0.042690 0.215830 0.168720 -0.481521
O21   O     O_R   0.321000 0.623520 0.824130 -0.443308
O22   O     O_R   0.679000 0.623520 0.175870 -0.410535
O23   O     O_R   0.821000 0.123520 0.824130 -0.443310
O24   O     O_R   0.179000 0.123520 0.175870 -0.410549
C9    C     C_R   0.260561 0.636190 0.852957 0.584931
C10   C     C_R   0.727857 0.677528 0.139341 0.530830
C11   C     C_R   0.760561 0.136190 0.852957 0.584935
C12   C     C_R   0.227859 0.177531 0.139342 0.530838
O25   O     O_R   0.213990 0.710040 0.667000 -0.487487
O26   O     O_R   0.786010 0.710040 0.333000 -0.483325
O27   O     O_R   0.713990 0.210040 0.667000 -0.487486
O28   O     O_R   0.286010 0.210040 0.333000 -0.483327
O29   O     O_R   0.235920 0.960520 0.674260 -0.528935
O30   O     O_R   0.764080 0.960520 0.325740 -0.529304
O31   O     O_R   0.735920 0.460520 0.674260 -0.528935
O32   O     O_R   0.264080 0.460520 0.325740 -0.529305
C13   C     C_R   0.275817 0.038148 0.643702 0.556444
C14   C     C_R   0.724178 0.038092 0.356257 0.558658
C15   C     C_R   0.775817 0.538148 0.643702 0.556442
C16   C     C_R   0.224178 0.538092 0.356257 0.558656
O33   O     O_R   0.331960 0.078120 0.669410 -0.500302
O34   O     O_R   0.668040 0.078120 0.330590 -0.496180
O35   O     O_R   0.831960 0.578120 0.669410 -0.500304
O36   O     O_R   0.168040 0.578120 0.330590 -0.496184
O37   O     O_R   0.446360 0.919990 0.675230 -0.507857
O38   O     O_R   0.553640 0.919990 0.324770 -0.509037
O39   O     O_R   0.946360 0.419990 0.675230 -0.507858
O40   O     O_R   0.053640 0.419990 0.324770 -0.509040
C17   C     C_R   0.471269 0.822599 0.646922 0.542478
C18   C     C_R   0.528687 0.822407 0.353034 0.537893
C19   C     C_R   0.971269 0.322599 0.646922 0.542478
C20   C     C_R   0.028687 0.322407 0.353034 0.537884
O41   O     O_R   0.457170 0.717300 0.668380 -0.534331
O42   O     O_R   0.542830 0.717300 0.331620 -0.536995
O43   O     O_R   0.957170 0.217300 0.668380 -0.534332
O44   O     O_R   0.042830 0.217300 0.331620 -0.537000
O45   O     O_R   0.320870 0.624890 0.673130 -0.454473
O46   O     O_R   0.679130 0.624890 0.326870 -0.452086
O47   O     O_R   0.820870 0.124890 0.673130 -0.454473
O48   O     O_R   0.179130 0.124890 0.326870 -0.452092
C21   C     C_R   0.271958 0.678535 0.636574 0.569417
C22   C     C_R   0.728053 0.678620 0.363517 0.571066
C23   C     C_R   0.771957 0.178535 0.636574 0.569417
C24   C     C_R   0.228053 0.178620 0.363517 0.571065
Cr1   Cr    Cr6+3 0.229620 0.836040 0.749110 1.042419
Cr2   Cr    Cr6+3 0.770380 0.836040 0.250890 1.034043
Cr3   Cr    Cr6+3 0.729620 0.336040 0.749110 1.042434
Cr4   Cr    Cr6+3 0.270380 0.336040 0.250890 1.034032
Cr5   Cr    Cr6+3 0.387630 0.990680 0.750730 1.087520
Cr6   Cr    Cr6+3 0.612370 0.990680 0.249270 1.081760
Cr7   Cr    Cr6+3 0.887630 0.490680 0.750730 1.087517
Cr8   Cr    Cr6+3 0.112370 0.490680 0.249270 1.081764
Cr9   Cr    Cr6+3 0.386020 0.676590 0.749210 1.103843
Cr10  Cr    Cr6+3 0.613980 0.676590 0.250790 1.116704
Cr11  Cr    Cr6+3 0.886020 0.176590 0.749210 1.103832
Cr12  Cr    Cr6+3 0.113980 0.176590 0.250790 1.116727
O49   O     O_3   0.334430 0.834430 0.749680 -0.350562
O50   O     O_3   0.665570 0.834430 0.250320 -0.352687
O51   O     O_3   0.834430 0.334430 0.749680 -0.350561
O52   O     O_3   0.165570 0.334430 0.250320 -0.352685
C25   C     C_3   0.457894 0.911758 0.042069 -0.065395
C26   C     C_3   0.498940 0.928467 0.970732 -0.048609
C27   C     C_3   0.957889 0.411759 0.042069 -0.065396
C28   C     C_3   0.998937 0.428470 0.970734 -0.048602
C29   C     C_3   0.418039 0.809237 0.008395 -0.186533
C30   C     C_3   0.553713 0.843393 0.997000 -0.183285
C31   C     C_3   0.918035 0.309240 0.008392 -0.186558
C32   C     C_3   0.053710 0.343395 0.997004 -0.183257
H1    H     H_    0.363521 0.797296 0.020097 0.076341
H2    H     H_    0.606523 0.850735 0.976939 0.088882
H3    H     H_    0.863518 0.297298 0.020091 0.076341
H4    H     H_    0.106518 0.350739 0.976940 0.088868
H5    H     H_    0.437743 0.978781 0.079285 0.176860
H6    H     H_    0.511122 0.012515 0.943853 0.201323
H7    H     H_    0.937734 0.478775 0.079289 0.176874
H8    H     H_    0.011120 0.512520 0.943857 0.201324
C33   C     C_3   0.459913 0.825194 0.938106 0.031232
C34   C     C_3   0.512299 0.826229 0.067403 0.032609
C35   C     C_3   0.959912 0.325197 0.938106 0.031233
C36   C     C_3   0.012292 0.326229 0.067405 0.032635
C37   C     C_3   0.514162 0.740098 0.964981 -0.083906
C38   C     C_3   0.473024 0.723725 0.035017 -0.089200
C39   C     C_3   0.014160 0.240101 0.964983 -0.083896
C40   C     C_3   0.973019 0.223728 0.035016 -0.089174
H9    H     H_    0.537387 0.667347 0.934044 0.179325
H10   H     H_    0.464511 0.637845 0.060942 0.188410
H11   H     H_    0.037389 0.167354 0.934045 0.179260
H12   H     H_    0.964497 0.137850 0.060941 0.188455
C41   C     C_3   0.314435 0.538407 0.045288 -0.244644
C42   C     C_3   0.681758 0.626320 0.939556 -0.260526
C43   C     C_3   0.814432 0.038401 0.045286 -0.244633
C44   C     C_3   0.181762 0.126283 0.939563 -0.260536
H13   H     H_    0.351919 0.591404 0.075927 0.097499
H14   H     H_    0.674354 0.715046 0.917127 0.068088
H15   H     H_    0.851919 0.091387 0.075927 0.097505
H16   H     H_    0.174337 0.214990 0.917113 0.068102
C45   C     C_3   0.324871 0.560392 0.963993 0.074358
C46   C     C_3   0.665737 0.627524 0.022128 0.063414
C47   C     C_3   0.824870 0.060390 0.963992 0.074360
C48   C     C_3   0.165754 0.127530 0.022133 0.063443
H17   H     H_    0.361260 0.633256 0.957126 0.122597
H18   H     H_    0.636896 0.704514 0.037361 0.088885
H19   H     H_    0.861261 0.133252 0.957127 0.122594
H20   H     H_    0.136917 0.204534 0.037349 0.088889
H21   H     H_    0.714987 0.922676 0.924138 0.140997
H22   H     H_    0.247958 0.955794 0.091490 0.198976
H23   H     H_    0.214989 0.422671 0.924134 0.140996
H24   H     H_    0.747935 0.455788 0.091490 0.198995
C49   C     C_3   0.185147 0.502850 0.026887 -0.231117
C50   C     C_3   0.774060 0.486841 0.979057 -0.250418
C51   C     C_3   0.685142 0.002867 0.026888 -0.231126
C52   C     C_3   0.274093 0.986854 0.979060 -0.250412
C53   C     C_3   0.230147 0.702429 0.052575 0.052710
C54   C     C_3   0.804255 0.693239 0.949508 0.115882
C55   C     C_3   0.730152 0.202437 0.052574 0.052678
C56   C     C_3   0.304255 0.193252 0.949503 0.115879
C57   C     C_3   0.240130 0.571900 0.069867 0.004964
C58   C     C_3   0.757851 0.587448 0.927970 -0.015058
C59   C     C_3   0.740129 0.071906 0.069867 0.004970
C60   C     C_3   0.257859 0.087445 0.927972 -0.015052
C61   C     C_3   0.254481 0.600421 0.930206 0.006200
C62   C     C_3   0.736374 0.638839 0.063616 -0.008182
C63   C     C_3   0.754481 0.100424 0.930206 0.006209
C64   C     C_3   0.236387 0.138848 0.063618 -0.008200
C65   C     C_3   0.198572 0.508645 0.945096 -0.257999
C66   C     C_3   0.773890 0.522713 0.058169 -0.212039
C67   C     C_3   0.698570 0.008652 0.945097 -0.258000
C68   C     C_3   0.273910 0.022727 0.058173 -0.212019
C69   C     C_3   0.233799 0.713966 0.970169 -0.234697
C70   C     C_3   0.783717 0.730792 0.025270 -0.233379
C71   C     C_3   0.733802 0.213972 0.970167 -0.234729
C72   C     C_3   0.283728 0.230800 0.025269 -0.233387
H25   H     H_    0.275682 0.773340 0.954978 0.038046
H26   H     H_    0.756304 0.811306 0.019548 0.056098
H27   H     H_    0.775679 0.273352 0.954973 0.038070
H28   H     H_    0.256323 0.311320 0.019555 0.056126
H29   H     H_    0.632792 0.037556 0.037287 0.205547
H30   H     H_    0.324141 0.948233 0.963565 0.134508
H31   H     H_    0.132795 0.537518 0.037288 0.205545
H32   H     H_    0.824102 0.448200 0.963562 0.134482
H33   H     H_    0.150002 0.532600 0.917412 0.148740
H34   H     H_    0.827158 0.531056 0.078407 0.166284
H35   H     H_    0.650001 0.032606 0.917410 0.148745
H36   H     H_    0.327176 0.031079 0.078417 0.166274
C73   C     C_3   0.498838 0.698602 0.459839 -0.233269
C74   C     C_3   0.500662 0.698658 0.540134 -0.233000
C75   C     C_3   0.998838 0.198602 0.459839 -0.233268
C76   C     C_3   0.000662 0.198658 0.540134 -0.233000
H37   H     H_    0.535470 0.631861 0.440284 0.142581
H38   H     H_    0.463900 0.631678 0.559764 0.142649
H39   H     H_    0.035470 0.131860 0.440284 0.142581
H40   H     H_    0.963900 0.131678 0.559764 0.142649
H41   H     H_    0.603053 0.840286 0.574219 0.170473
H42   H     H_    0.396960 0.840488 0.425781 0.169880
H43   H     H_    0.103053 0.340286 0.574219 0.170473
H44   H     H_    0.896960 0.340488 0.425781 0.169879
C77   C     C_3   0.565589 0.893729 0.468864 -0.232630
C78   C     C_3   0.434758 0.894276 0.531026 -0.232955
C79   C     C_3   0.065590 0.393729 0.468864 -0.232630
C80   C     C_3   0.934758 0.394276 0.531026 -0.232955
C81   C     C_3   0.441045 0.888766 0.448233 -0.246736
C82   C     C_3   0.559226 0.888635 0.551678 -0.246973
C83   C     C_3   0.941045 0.388766 0.448233 -0.246736
C84   C     C_3   0.059226 0.388635 0.551678 -0.246974
C85   C     C_3   0.507964 0.825696 0.430085 0.054980
C86   C     C_3   0.491978 0.825873 0.569848 0.054022
C87   C     C_3   0.007964 0.325696 0.430085 0.054982
C88   C     C_3   0.991978 0.325873 0.569848 0.054022
H45   H     H_    0.441884 0.978120 0.425161 0.151008
H46   H     H_    0.558775 0.978033 0.574626 0.150595
H47   H     H_    0.941884 0.478120 0.425161 0.151008
H48   H     H_    0.058775 0.478033 0.574626 0.150594
H49   H     H_    0.437598 0.987266 0.546891 0.128211
H50   H     H_    0.563402 0.986595 0.452825 0.128723
H51   H     H_    0.937598 0.487266 0.546891 0.128210
H52   H     H_    0.063402 0.486595 0.452825 0.128723
C89   C     C_3   0.182324 0.664302 0.456850 -0.251019
C90   C     C_3   0.817846 0.664685 0.543175 -0.251061
C91   C     C_3   0.682324 0.164302 0.456850 -0.251018
C92   C     C_3   0.317846 0.164685 0.543175 -0.251061
H53   H     H_    0.128920 0.638671 0.443098 0.132199
H54   H     H_    0.871186 0.638838 0.556717 0.132047
H55   H     H_    0.628920 0.138672 0.443098 0.132199
H56   H     H_    0.371186 0.138838 0.556717 0.132047
H57   H     H_    0.190829 0.751433 0.433526 0.194446
H58   H     H_    0.809733 0.751655 0.566697 0.194896
H59   H     H_    0.690828 0.251433 0.433526 0.194446
H60   H     H_    0.309733 0.251655 0.566697 0.194896
C93   C     C_3   0.185912 0.673065 0.537073 -0.244552
C94   C     C_3   0.814110 0.673853 0.462972 -0.244389
C95   C     C_3   0.685912 0.173065 0.537073 -0.244552
C96   C     C_3   0.314110 0.173853 0.462972 -0.244389
H61   H     H_    0.168111 0.760192 0.553809 0.120903
H62   H     H_    0.831871 0.761297 0.446354 0.120208
H63   H     H_    0.668111 0.260192 0.553809 0.120903
H64   H     H_    0.331871 0.261297 0.446354 0.120208
H65   H     H_    0.146098 0.614816 0.560660 0.180556
H66   H     H_    0.853922 0.616197 0.439226 0.181151
H67   H     H_    0.646098 0.114816 0.560660 0.180557
H68   H     H_    0.353922 0.116197 0.439226 0.181151
H69   H     H_    0.686722 0.952560 0.494773 0.127008
H70   H     H_    0.313285 0.953154 0.505270 0.126967
H71   H     H_    0.186722 0.452560 0.494773 0.127008
H72   H     H_    0.813285 0.453154 0.505270 0.126967
C97   C     C_3   0.239877 0.472104 0.482724 -0.268563
C98   C     C_3   0.760075 0.472183 0.517252 -0.267908
C99   C     C_3   0.739877 0.972104 0.482724 -0.268564
C100  C     C_3   0.260075 0.972183 0.517252 -0.267908
C101  C     C_3   0.309255 0.635395 0.434076 -0.253681
C102  C     C_3   0.690774 0.634823 0.565983 -0.253316
C103  C     C_3   0.809255 0.135395 0.434076 -0.253681
C104  C     C_3   0.190774 0.134823 0.565983 -0.253316
C105  C     C_3   0.238983 0.576964 0.429946 0.035747
C106  C     C_3   0.761016 0.576987 0.570056 0.036510
C107  C     C_3   0.738983 0.076964 0.429946 0.035747
C108  C     C_3   0.261016 0.076987 0.570056 0.036510
H73   H     H_    0.314722 0.704273 0.392435 0.179823
H74   H     H_    0.685441 0.703736 0.607572 0.179808
H75   H     H_    0.814721 0.204274 0.392435 0.179823
H76   H     H_    0.185441 0.203736 0.607572 0.179808
C109  C     C_3   0.260529 0.636686 0.562752 0.062030
C110  C     C_3   0.739445 0.636691 0.437306 0.061010
C111  C     C_3   0.760529 0.136686 0.562752 0.062030
C112  C     C_3   0.239445 0.136691 0.437306 0.061011
C113  C     C_3   0.269827 0.503824 0.556247 0.103875
C114  C     C_3   0.730123 0.503700 0.443745 0.102661
C115  C     C_3   0.769827 0.003824 0.556247 0.103875
C116  C     C_3   0.230123 0.003700 0.443745 0.102662
C117  C     C_3   0.314853 0.687026 0.509725 -0.325403
C118  C     C_3   0.685112 0.686308 0.490344 -0.325321
C119  C     C_3   0.814853 0.187026 0.509725 -0.325403
C120  C     C_3   0.185112 0.186308 0.490344 -0.325321
H77   H     H_    0.305029 0.776937 0.502582 0.125614
H78   H     H_    0.694877 0.776360 0.497468 0.125666
H79   H     H_    0.805029 0.276937 0.502582 0.125614
H80   H     H_    0.194877 0.276360 0.497468 0.125666
H81   H     H_    0.268087 0.400309 0.458282 0.096125
H82   H     H_    0.731780 0.400090 0.541659 0.096163
H83   H     H_    0.768087 0.900309 0.458282 0.096125
H84   H     H_    0.231780 0.900090 0.541659 0.096163
H85   H     H_    0.326058 0.482022 0.554622 0.117185
H86   H     H_    0.673888 0.481216 0.445349 0.116540
H87   H     H_    0.826058 0.982022 0.554622 0.117185
H88   H     H_    0.173888 0.981216 0.445349 0.116540
N1    N     N_R   0.165751 0.752978 0.082131 0.107854
O53   O     O_R   0.105788 0.731838 0.053854 -0.259036
O54   O     O_R   0.167768 0.812553 0.141382 -0.261615
N2    N     N_R   0.879830 0.673735 0.944116 0.120164
O55   O     O_R   0.914398 0.640007 0.999444 -0.377748
O56   O     O_R   0.914856 0.717787 0.890610 -0.208734
N3    N     N_R   0.665759 0.252996 0.082128 0.107736
O57   O     O_R   0.605802 0.231934 0.053818 -0.259036
O58   O     O_R   0.667772 0.312504 0.141404 -0.261577
N4    N     N_R   0.379831 0.173765 0.944100 0.120197
O59   O     O_R   0.414406 0.140006 0.999416 -0.377764
O60   O     O_R   0.414849 0.217824 0.890591 -0.208697
H89   H     H_    0.273284 0.750822 0.077399 0.092482
H90   H     H_    0.790338 0.762894 0.911967 0.171348
H91   H     H_    0.773290 0.250825 0.077397 0.092491
H92   H     H_    0.290325 0.262902 0.911963 0.171317
H93   H     H_    0.183976 0.748352 0.950027 0.224499
H94   H     H_    0.830215 0.752526 0.056757 0.218062
H95   H     H_    0.683979 0.248355 0.950025 0.224475
H96   H     H_    0.330231 0.252518 0.056754 0.218059
H97   H     H_    0.449077 0.663202 0.441369 0.116143
H98   H     H_    0.550381 0.663390 0.558556 0.116470
H99   H     H_    0.949077 0.163202 0.441369 0.116143
H100  H     H_    0.050381 0.163390 0.558556 0.116469
H101  H     H_    0.613655 0.859125 0.447084 0.095911
H102  H     H_    0.386399 0.860496 0.552942 0.095703
H103  H     H_    0.113655 0.359125 0.447084 0.095912
H104  H     H_    0.886399 0.360496 0.552942 0.095704
N5    N     N_R   0.738770 0.939241 0.617110 0.052049
O61   O     O_R   0.677241 0.964291 0.640872 -0.371944
O62   O     O_R   0.779125 0.881478 0.659503 -0.323448
N6    N     N_R   0.261170 0.939584 0.382870 0.053111
O63   O     O_R   0.322926 0.964738 0.359479 -0.369855
O64   O     O_R   0.220808 0.881695 0.340289 -0.315296
N7    N     N_R   0.238770 0.439241 0.617110 0.052049
O65   O     O_R   0.177241 0.464291 0.640872 -0.371944
O66   O     O_R   0.279125 0.381478 0.659503 -0.323447
N8    N     N_R   0.761170 0.439584 0.382870 0.053111
O67   O     O_R   0.822926 0.464738 0.359479 -0.369854
O68   O     O_R   0.720808 0.381695 0.340289 -0.315284
H105  H     H_    0.350289 0.569316 0.424533 0.122625
H106  H     H_    0.649557 0.568539 0.575600 0.122828
H107  H     H_    0.850289 0.069316 0.424533 0.122626
H108  H     H_    0.149557 0.068539 0.575600 0.122827
H109  H     H_    0.366153 0.673856 0.530584 0.114793
H110  H     H_    0.633753 0.672328 0.469545 0.113952
H111  H     H_    0.866153 0.173856 0.530584 0.114793
H112  H     H_    0.133753 0.172328 0.469545 0.113952
H113  H     H_    0.326425 0.447431 0.059061 0.175433
H114  H     H_    0.646038 0.570753 0.908396 0.192410
H115  H     H_    0.826414 0.947420 0.059056 0.175430
H116  H     H_    0.146039 0.070666 0.908437 0.192421
N9    N     N_R   0.360069 0.461243 0.930118 0.064414
O69   O     O_R   0.419941 0.431143 0.955141 -0.254073
O70   O     O_R   0.343171 0.424071 0.866914 -0.297852
N10   N     N_R   0.622826 0.524921 0.042769 0.095008
O71   O     O_R   0.604848 0.447537 0.995415 -0.293863
O72   O     O_R   0.588667 0.524390 0.102980 -0.239793
N11   N     N_R   0.860066 0.961239 0.930116 0.064408
O73   O     O_R   0.919936 0.931131 0.955141 -0.254126
O74   O     O_R   0.843168 0.924068 0.866911 -0.297866
N12   N     N_R   0.122849 0.024945 0.042802 0.095187
O75   O     O_R   0.105029 0.947391 0.995529 -0.293929
O76   O     O_R   0.088511 0.024632 0.102901 -0.240052
H117  H     H_    0.679405 0.914599 0.048945 0.071938
H118  H     H_    0.230206 0.927901 0.972803 0.181736
H119  H     H_    0.179413 0.414582 0.048942 0.071920
H120  H     H_    0.730153 0.427910 0.972803 0.181727

loop_
_geom_bond_atom_site_label_1
_geom_bond_atom_site_label_2
_geom_bond_distance
_ccdc_geom_bond_type
O4    C12   1.314611 A    
C18   O42   1.298702 A    
O25   C21   1.303542 A    
C54   C58   1.561551 S    
C120  H80   1.057401 S    
Cr7   O51   2.062485 S    
C77   C82   1.551886 S    
N5    O61   1.298636 A    
C109  C113  1.538915 S    
N4    O59   1.297373 A    
C80   C83   1.551645 S    
C117  H77   1.057457 S    
C103  C119  1.537252 S    
C78   H102  1.086726 S    
O39   C19   1.325336 A    
C31   H3    1.082659 S    
C56   H92   1.099069 S    
O21   C9    1.290221 A    
C104  C108  1.516786 S    
C66   H34   1.105497 S    
C1    O9    1.272222 A    
O44   Cr12  2.085596 S    
C3    O11   1.272242 A    
C64   C68   1.521398 S    
C25   C34   1.520546 S    
H70   C100  1.073972 S    
C63   C67   1.529075 S    
C56   C72   1.528209 S    
C74   H98   1.103370 S    
C21   C109  1.479179 S    
C29   C38   1.536095 S    
O2    C10   1.314664 A    
C32   C36   1.544427 S    
C54   N2    1.481971 S    
O17   Cr9   2.121269 S    
C94   C110  1.583900 S    
C89   H53   1.106025 S    
C14   C107  1.478034 S    
C54   C70   1.528197 S    
C23   C111  1.479179 S    
O31   Cr3   2.000330 S    
N8    O68   1.301332 A    
O16   Cr8   1.999972 S    
C79   H52   1.106978 S    
O13   C5    1.341021 A    
O28   Cr4   2.131909 S    
O12   Cr8   2.098143 S    
C77   H50   1.106978 S    
O22   Cr10  1.968922 S    
O15   C7    1.341014 A    
O46   Cr10  2.001788 S    
H41   C82   1.102297 S    
C75   C76   1.501121 S    
C92   H56   1.106656 S    
C7    C35   1.486766 S    
H72   C98   1.073972 S    
H44   C83   1.101891 S    
C101  H73   1.112337 S    
C99   C107  1.554987 S    
C45   C61   1.577205 S    
C52   C68   1.534327 S    
C53   C69   1.546167 S    
C102  C106  1.516787 S    
C74   C86   1.569335 S    
C43   H15   1.108522 S    
C96   C112  1.583900 S    
C114  N8    1.477248 S    
C70   H94   1.108042 S    
C72   H28   1.072078 S    
C38   H10   1.108044 S    
C112  C120  1.546169 S    
C81   H45   1.111247 S    
C18   C85   1.490490 S    
C25   H5    1.105370 S    
Cr12  O52   2.062919 S    
C26   C33   1.531962 S    
C27   H7    1.105371 S    
C117  H109  1.081406 S    
C75   H39   1.104126 S    
C17   O41   1.298839 A    
C119  H111  1.081406 S    
C30   C37   1.532667 S    
C19   O43   1.298839 A    
C20   O44   1.298702 A    
Cr8   O52   2.069261 S    
C9    C61   1.503634 S    
C44   H116  1.108236 S    
C49   H119  1.097239 S    
C84   H48   1.110915 S    
C47   H19   1.096800 S    
C116  N6    1.477248 S    
C28   H8    1.109704 S    
C45   H17   1.096799 S    
C16   O36   1.278868 A    
C119  H79   1.057457 S    
C46   H18   1.082227 S    
C103  C107  1.515839 S    
O31   C15   1.303045 A    
C94   H66   1.105750 S    
O32   C16   1.306385 A    
O47   Cr11  1.999017 S    
C39   C40   1.534788 S    
C53   N1    1.477136 S    
O46   C22   1.324537 A    
C89   C93   1.504697 S    
C48   N12   1.485209 S    
O24   C12   1.312590 A    
C41   C57   1.553419 S    
C42   H114  1.108213 S    
C76   C88   1.569335 S    
C28   C32   1.527841 S    
C50   H32   1.101716 S    
C42   H14   1.110401 S    
N9    O70   1.300393 A    
C26   H6    1.109702 S    
C61   C65   1.529074 S    
C47   C63   1.577197 S    
C48   C64   1.583508 S    
O11   Cr7   2.102088 S    
C113  N7    1.477452 S    
O27   Cr3   2.130515 S    
O3    Cr3   2.118693 S    
C98   C114  1.540301 S    
C103  H107  1.112141 S    
N6    O64   1.301331 A    
Cr5   O49   2.062485 S    
C91   H55   1.106026 S    
C118  H78   1.057400 S    
C93   C109  1.583638 S    
C89   C105  1.565830 S    
C72   H96   1.108047 S    
C53   H89   1.106612 S    
C99   H83   1.086894 S    
C32   C39   1.532666 S    
O22   C10   1.312556 A    
C4    O12   1.282897 A    
C2    O10   1.282893 A    
C27   C28   1.554996 S    
N12   O75   1.301610 A    
C12   C64   1.490295 S    
C101  H105  1.112141 S    
C73   H97   1.102257 S    
C68   H36   1.105499 S    
C24   C112  1.479256 S    
C63   C71   1.552055 S    
C4    C57   1.477669 S    
C115  N5    1.477452 S    
O5    C1    1.321383 A    
C79   H103  1.086935 S    
C90   H54   1.106656 S    
O3    C11   1.302062 A    
O8    C4    1.311490 A    
C45   N9    1.466937 S    
Cr1   O49   2.027667 S    
C79   C84   1.551886 S    
C98   C106  1.554835 S    
Cr3   O51   2.027667 S    
C43   H115  1.100344 S    
C46   N10   1.485296 S    
C29   H1    1.082682 S    
C40   H12   1.108034 S    
C100  H84   1.086829 S    
O26   Cr2   2.131909 S    
C74   H38   1.104285 S    
N6    O63   1.298602 A    
O27   C23   1.303542 A    
O28   C24   1.301435 A    
O14   C6    1.315482 A    
C35   C39   1.524701 S    
C78   C86   1.546345 S    
C8    O20   1.302636 A    
N10   O71   1.302129 A    
C15   C106  1.477737 S    
C3    C58   1.493717 S    
C53   C57   1.544026 S    
C51   C67   1.548567 S    
C1    C60   1.493712 S    
N4    O60   1.301978 A    
O40   Cr8   1.973059 S    
C101  C105  1.515841 S    
C17   C86   1.490735 S    
C99   C115  1.540117 S    
O41   Cr9   2.083200 S    
C46   C62   1.583620 S    
C90   H58   1.100614 S    
C50   C58   1.532643 S    
C32   H4    1.086988 S    
N1    O54   1.301720 A    
O33   Cr5   2.125749 S    
O5    Cr1   2.008753 S    
O35   Cr7   2.125749 S    
C77   H101  1.086935 S    
O29   Cr1   2.000330 S    
C80   H104  1.086726 S    
C81   C85   1.519930 S    
C76   H40   1.104285 S    
N2    O55   1.297376 A    
C50   C66   1.534319 S    
C41   C45   1.550486 S    
Cr9   O49   2.069559 S    
C118  H110  1.082313 S    
C20   C87   1.490490 S    
C93   H65   1.105154 S    
C43   C47   1.550482 S    
C110  C114  1.538961 S    
Cr11  O51   2.069559 S    
O26   C22   1.301435 A    
C55   H91   1.106600 S    
O20   Cr12  2.123437 S    
H43   C84   1.102297 S    
C10   C62   1.490305 S    
C84   C88   1.519053 S    
C49   C57   1.554353 S    
C31   C40   1.536088 S    
C34   C38   1.525745 S    
C30   H2    1.086984 S    
C43   C59   1.553415 S    
C96   H68   1.105749 S    
C103  H75   1.112338 S    
O30   C14   1.306385 A    
C75   C87   1.567920 S    
C5    O17   1.337938 A    
C111  C119  1.545982 S    
H22   C68   1.103613 S    
C113  H85   1.117017 S    
N3    O57   1.302013 A    
C26   C30   1.527833 S    
C8    C36   1.479826 S    
C22   C110  1.479256 S    
O42   Cr10  2.085596 S    
C89   H57   1.100721 S    
O18   Cr10  2.123437 S    
C95   C111  1.583638 S    
C51   H117  1.097250 S    
C93   H61   1.101816 S    
C11   C63   1.503620 S    
O34   Cr6   2.122000 S    
O6    Cr2   2.009260 S    
N5    O62   1.301296 A    
C52   H30   1.101710 S    
O24   Cr12  1.968922 S    
O30   Cr2   2.001145 S    
N7    O65   1.298637 A    
O48   Cr12  2.001788 S    
O37   C17   1.325336 A    
C15   O35   1.276073 A    
Cr10  O50   2.062919 S    
C36   C40   1.525741 S    
C78   H49   1.107751 S    
O43   Cr11  2.083200 S    
O48   C24   1.324537 A    
H69   C99   1.072809 S    
O37   Cr5   1.976689 S    
N11   O73   1.301709 A    
O21   Cr9   1.965903 S    
H24   C66   1.103613 S    
C111  C115  1.538915 S    
C13   O33   1.276073 A    
C102  H74   1.112386 S    
C91   H59   1.100721 S    
O23   Cr11  1.965903 S    
H71   C97   1.072809 S    
C100  C116  1.540300 S    
O15   Cr7   2.003451 S    
C13   C108  1.477738 S    
C31   C35   1.545473 S    
C101  C117  1.537252 S    
O23   C11   1.290218 A    
C69   H25   1.091136 S    
C55   C59   1.544040 S    
C49   H31   1.104394 S    
C82   H46   1.110915 S    
C120  H112  1.082313 S    
N8    O67   1.298601 A    
C102  H106  1.112338 S    
C62   C70   1.562177 S    
C27   C36   1.520544 S    
C92   C108  1.565264 S    
C109  C117  1.545982 S    
O6    C2    1.311503 A    
C44   C48   1.570126 S    
C55   C71   1.546171 S    
C19   C88   1.490735 S    
O1    Cr1   2.118693 S    
C78   C81   1.551645 S    
O19   Cr11  2.121269 S    
C52   H118  1.090395 S    
O29   C13   1.303045 A    
C37   C38   1.534785 S    
N3    O58   1.301705 A    
C33   C37   1.524706 S    
O45   C21   1.326327 A    
O47   C23   1.326327 A    
N9    O69   1.301710 A    
C71   H95   1.112223 S    
C95   H63   1.101816 S    
O40   C20   1.324015 A    
C6    O18   1.302642 A    
C65   H33   1.113030 S    
C104  H76   1.112387 S    
C95   H67   1.105154 S    
C25   C26   1.554994 S    
O36   Cr8   2.122000 S    
C61   C69   1.552054 S    
C5    C33   1.486768 S    
O38   Cr6   1.973059 S    
C92   C96   1.504834 S    
C64   C72   1.562162 S    
C75   H99   1.102257 S    
C76   H100  1.103370 S    
O8    Cr4   2.009260 S    
C56   C60   1.561560 S    
C52   C60   1.532627 S    
O1    C9    1.302063 A    
C115  H87   1.117017 S    
C73   C74   1.501121 S    
C90   C94   1.504834 S    
O7    C3    1.321373 A    
C116  H88   1.116992 S    
C51   C59   1.554347 S    
C50   H120  1.090524 S    
C83   H47   1.111247 S    
N12   O76   1.298028 A    
C98   H82   1.086829 S    
C41   H113  1.100342 S    
O39   Cr7   1.976689 S    
C51   H29   1.104426 S    
C41   H13   1.108524 S    
C29   C33   1.545482 S    
O45   Cr9   1.999017 S    
O16   C8    1.315473 A    
H42   C81   1.101891 S    
C7    O19   1.337943 A    
Cr4   O52   2.027523 S    
O2    Cr2   2.120427 S    
C97   C113  1.540117 S    
C2    C59   1.477685 S    
C112  C116  1.538961 S    
Cr6   O50   2.069261 S    
C92   H60   1.100614 S    
C25   C29   1.541348 S    
C90   C106  1.565265 S    
C48   H20   1.082235 S    
O13   Cr5   2.003451 S    
C94   H62   1.101836 S    
C83   C87   1.519930 S    
O9    Cr5   2.102088 S    
C49   C65   1.548562 S    
C69   H93   1.112230 S    
C42   C58   1.552235 S    
N10   O72   1.298102 A    
C82   C86   1.519053 S    
O7    Cr3   2.008753 S    
C6    C34   1.479822 S    
C97   H81   1.086894 S    
C114  H86   1.116992 S    
C104  C120  1.536761 S    
N7    O66   1.301297 A    
C91   C107  1.565831 S    
C28   C35   1.531963 S    
C73   H37   1.104126 S    
C55   N3    1.477117 S    
N1    O53   1.302011 A    
Cr2   O50   2.027523 S    
N11   O74   1.300394 A    
C54   H90   1.099067 S    
C97   C105  1.554987 S    
O14   Cr6   1.999972 S    
N2    O56   1.301979 A    
C71   H27   1.091116 S    
C96   H64   1.101835 S    
O38   C18   1.324015 A    
O25   Cr1   2.130515 S    
C30   C34   1.544419 S    
C79   C87   1.545280 S    
H21   C67   1.106827 S    
C47   N11   1.466945 S    
C77   C85   1.545280 S    
C16   C105  1.478034 S    
C104  H108  1.112338 S    
C44   C60   1.552221 S    
C37   H9    1.108306 S    
C14   O34   1.278868 A    
C80   H51   1.107751 S    
C91   C95   1.504697 S    
H23   C65   1.106824 S    
C100  C108  1.554836 S    
C73   C85   1.567920 S    
C102  C118  1.536761 S    
C56   N4    1.481973 S    
O10   Cr6   2.098143 S    
O4    Cr4   2.120427 S    
C70   H26   1.072108 S    
C67   H35   1.113029 S    
C80   C88   1.546345 S    
C27   C31   1.541341 S    
C62   C66   1.521370 S    
C39   H11   1.108303 S    
C42   C46   1.570208 S    
O32   Cr4   2.001145 S    
C110  C118  1.546170 S    
C44   H16   1.110408 S    
