data_mof_unit_43274.cif
_audit_creation_date              2012-12-11T14:55:53-0500
_audit_creation_method            fapswitch 2.2
_symmetry_space_group_name_H-M    P1
_symmetry_Int_Tables_number       1
_space_group_crystal_system       triclinic
_cell_length_a                    27.80083
_cell_length_b                    17.47967
_cell_length_c                    18.353092
_cell_angle_alpha                 89.859265
_cell_angle_beta                  137.78781
_cell_angle_gamma                 90.053856
_cell_volume                      5992.23850483

loop_
_atom_site_label
_atom_site_type_symbol
_atom_type_description
_atom_site_fract_x
_atom_site_fract_y
_atom_site_fract_z
_atom_type_partial_charge
C1    C     C_R   0.687628 0.897039 0.799245 0.466734
C2    C     C_3   0.258389 0.678364 0.033903 0.402123
C3    C     C_3   0.682377 0.758802 0.945137 0.346302
C4    C     C_3   0.183989 0.775146 0.941889 0.435051
C5    C     C_3   0.816011 0.224854 0.058111 0.435051
C6    C     C_3   0.817623 0.741198 0.054863 0.346301
C7    C     C_3   0.182377 0.258802 0.945137 0.346302
C8    C     C_3   0.239815 0.747894 0.060525 0.085140
C9    C     C_3   0.760185 0.252106 0.939474 0.085140
C10   C     C_3   0.752210 0.710351 0.939686 0.132544
C11   C     C_3   0.247790 0.289649 0.060315 0.132543
C12   C     C_3   0.739815 0.247894 0.060525 0.085140
C13   C     C_3   0.280505 0.318541 0.024915 0.400565
C14   C     C_3   0.260185 0.752106 0.939474 0.085140
C15   C     C_3   0.252210 0.210351 0.939686 0.132544
C16   C     C_3   0.747790 0.789649 0.060315 0.132543
C17   C     C_3   0.297191 0.794151 0.084077 -0.378241
C18   C     C_3   0.702810 0.205850 0.915923 -0.378241
C19   C     C_3   0.715280 0.787372 0.910136 -0.371744
C20   C     C_3   0.284720 0.212628 0.089864 -0.371744
C21   C     C_3   0.797191 0.294151 0.084077 -0.378241
C22   C     C_3   0.202810 0.705850 0.915923 -0.378241
C23   C     C_3   0.215280 0.287372 0.910136 -0.371744
C24   C     C_3   0.719495 0.681458 0.975085 0.400566
C25   C     C_3   0.784720 0.712628 0.089864 -0.371744
C26   C     C_3   0.241611 0.821637 0.966097 0.402124
C27   C     C_3   0.758390 0.178364 0.033903 0.402123
C28   C     C_3   0.780505 0.818542 0.024915 0.400565
C29   C     C_3   0.219495 0.181458 0.975085 0.400566
C30   C     C_R   0.704960 0.757051 0.576506 -0.133223
C31   C     C_R   0.295040 0.242948 0.423494 -0.133223
C32   C     C_R   0.283965 0.764874 0.407460 -0.099877
C33   C     C_R   0.312372 0.102961 0.200755 0.466734
C34   C     C_R   0.716035 0.235126 0.592539 -0.099876
C35   C     C_R   0.204960 0.257051 0.576506 -0.133223
C36   C     C_R   0.795040 0.742948 0.423494 -0.133223
C37   C     C_R   0.783965 0.264874 0.407460 -0.099877
C38   C     C_R   0.216035 0.735126 0.592539 -0.099876
C39   C     C_R   0.324941 0.317900 0.562574 0.525202
C40   C     C_R   0.675059 0.682100 0.437427 0.525201
C41   C     C_R   0.694946 0.330205 0.475343 0.496798
C42   C     C_R   0.305054 0.669794 0.524656 0.496798
C43   C     C_R   0.824941 0.817900 0.562574 0.525202
C44   C     C_R   0.323481 0.909302 0.186341 0.457559
C45   C     C_R   0.175059 0.182100 0.437427 0.525201
C46   C     C_R   0.194946 0.830205 0.475343 0.496798
C47   C     C_R   0.805054 0.169794 0.524656 0.496798
C48   C     C_R   0.329932 0.306155 0.493189 0.061849
C49   C     C_R   0.670068 0.693845 0.506811 0.061849
C50   C     C_R   0.690060 0.307624 0.543080 0.076547
C51   C     C_R   0.309939 0.692375 0.456919 0.076547
C52   C     C_R   0.829932 0.806155 0.493189 0.061849
C53   C     C_R   0.170068 0.193845 0.506811 0.061849
C54   C     C_R   0.190060 0.807624 0.543080 0.076547
C55   C     C_R   0.676520 0.090698 0.813658 0.457559
C56   C     C_R   0.809939 0.192375 0.456919 0.076547
C57   C     C_R   0.231363 0.220045 0.383696 0.568546
C58   C     C_R   0.768637 0.779955 0.616304 0.568546
C59   C     C_R   0.770777 0.203884 0.611182 0.557567
C60   C     C_R   0.229223 0.796116 0.388817 0.557567
C61   C     C_R   0.731363 0.720045 0.383696 0.568546
C62   C     C_R   0.268637 0.279955 0.616304 0.568546
C63   C     C_R   0.270777 0.703884 0.611182 0.557567
C64   C     C_R   0.729223 0.296116 0.388817 0.557567
C65   C     C_R   0.224669 0.226443 0.452425 -0.302432
C66   C     C_R   0.187628 0.397039 0.799245 0.466734
C67   C     C_R   0.775331 0.773557 0.547575 -0.302432
C68   C     C_R   0.770145 0.218463 0.535624 -0.302355
C69   C     C_R   0.229854 0.781536 0.464375 -0.302355
C70   C     C_R   0.724669 0.726443 0.452425 -0.302432
C71   C     C_R   0.275331 0.273557 0.547575 -0.302432
C72   C     C_R   0.270145 0.718463 0.535624 -0.302355
C73   C     C_R   0.729854 0.281537 0.464375 -0.302355
C74   C     C_R   0.328559 0.103118 0.420734 0.576298
C75   C     C_R   0.671441 0.896882 0.579266 0.576298
C76   C     C_R   0.675628 0.103144 0.595465 0.531053
C77   C     C_R   0.812372 0.602961 0.200755 0.466734
C78   C     C_R   0.324372 0.896856 0.404534 0.531053
C79   C     C_R   0.828559 0.603118 0.420734 0.576298
C80   C     C_R   0.171441 0.396882 0.579266 0.576298
C81   C     C_R   0.175628 0.603144 0.595465 0.531053
C82   C     C_R   0.824372 0.396856 0.404534 0.531053
C83   C     C_R   0.407830 0.806144 0.501175 -0.049428
C84   C     C_R   0.592170 0.193856 0.498825 -0.049428
C85   C     C_R   0.591274 0.804373 0.504345 -0.120772
C86   C     C_R   0.408725 0.195627 0.495655 -0.120772
C87   C     C_R   0.907830 0.306143 0.501175 -0.049428
C88   C     C_R   0.823481 0.409302 0.186341 0.457559
C89   C     C_R   0.092170 0.693856 0.498825 -0.049428
C90   C     C_R   0.091274 0.304373 0.504345 -0.120772
C91   C     C_R   0.908725 0.695626 0.495655 -0.120772
C92   C     C_R   0.593821 0.184122 0.720497 0.442738
C93   C     C_R   0.406179 0.815878 0.279503 0.442739
C94   C     C_R   0.397246 0.191163 0.284439 0.458906
C95   C     C_R   0.602754 0.808837 0.715561 0.458906
C96   C     C_R   0.093821 0.684122 0.720497 0.442738
C97   C     C_R   0.906179 0.315878 0.279503 0.442739
C98   C     C_R   0.897246 0.691163 0.284439 0.458906
C99   C     C_R   0.176519 0.590698 0.813658 0.457559
C100  C     C_R   0.102754 0.308837 0.715561 0.458906
C101  C     C_R   0.672493 0.825978 0.808232 -0.051934
C102  C     C_R   0.327507 0.174022 0.191768 -0.051934
C103  C     C_R   0.344975 0.842046 0.177518 -0.061506
C104  C     C_R   0.655025 0.157954 0.822482 -0.061506
C105  C     C_R   0.172493 0.325978 0.808232 -0.051934
C106  C     C_R   0.827507 0.674022 0.191768 -0.051934
C107  C     C_R   0.844975 0.342046 0.177518 -0.061506
C108  C     C_R   0.155025 0.657954 0.822482 -0.061506
C109  C     C_R   0.339918 0.182827 0.439787 -0.066556
C110  C     C_3   0.741611 0.321637 0.966097 0.402124
C111  C     C_R   0.660082 0.817173 0.560213 -0.066556
C112  C     C_R   0.663609 0.179584 0.564024 -0.126332
C113  C     C_R   0.336391 0.820416 0.435976 -0.126333
C114  C     C_R   0.839918 0.682827 0.439787 -0.066556
C115  C     C_R   0.160082 0.317173 0.560213 -0.066556
C116  C     C_R   0.163609 0.679584 0.564024 -0.126332
C117  C     C_R   0.836391 0.320416 0.435976 -0.126333
C118  C     C_3   0.683989 0.275147 0.941889 0.435051
C119  C     C_3   0.316011 0.724854 0.058111 0.435051
C120  C     C_3   0.317622 0.241198 0.054863 0.346301
Cl1   Cl    Cl    0.765281 0.906380 0.832915 -0.358708
Cl2   Cl    Cl    0.121498 0.109166 0.339250 -0.261213
Cl3   Cl    Cl    0.161670 0.920485 0.411187 -0.338228
Cl4   Cl    Cl    0.838329 0.079515 0.588812 -0.338229
Cl5   Cl    Cl    0.378502 0.390834 0.660750 -0.261213
Cl6   Cl    Cl    0.621498 0.609166 0.339250 -0.261213
Cl7   Cl    Cl    0.661671 0.420485 0.411187 -0.338228
Cl8   Cl    Cl    0.338329 0.579515 0.588812 -0.338229
Cl9   Cl    Cl    0.278427 0.053185 0.430071 -0.499570
Cl10  Cl    Cl    0.721573 0.946815 0.569928 -0.499571
Cl11  Cl    Cl    0.757827 0.070752 0.722056 -0.354036
Cl12  Cl    Cl    0.234719 0.093619 0.167085 -0.358708
Cl13  Cl    Cl    0.242173 0.929248 0.277943 -0.354036
Cl14  Cl    Cl    0.778427 0.553185 0.430071 -0.499570
Cl15  Cl    Cl    0.221573 0.446815 0.569928 -0.499571
Cl16  Cl    Cl    0.257827 0.570752 0.722056 -0.354036
Cl17  Cl    Cl    0.742173 0.429248 0.277943 -0.354036
Cl18  Cl    Cl    0.572138 0.280223 0.678306 -0.510818
Cl19  Cl    Cl    0.427862 0.719777 0.321693 -0.510819
Cl20  Cl    Cl    0.431191 0.284273 0.330717 -0.514580
Cl21  Cl    Cl    0.568808 0.715727 0.669283 -0.514580
Cl22  Cl    Cl    0.072138 0.780223 0.678306 -0.510818
Cl23  Cl    Cl    0.234443 0.939939 0.091204 -0.353641
Cl24  Cl    Cl    0.927862 0.219777 0.321693 -0.510819
Cl25  Cl    Cl    0.931191 0.784273 0.330717 -0.514580
Cl26  Cl    Cl    0.068808 0.215727 0.669283 -0.514580
Cl27  Cl    Cl    0.598348 0.308691 0.875311 -0.309778
Cl28  Cl    Cl    0.401652 0.691310 0.124688 -0.309778
Cl29  Cl    Cl    0.407485 0.229541 0.124157 -0.408101
Cl30  Cl    Cl    0.592515 0.770459 0.875843 -0.408101
Cl31  Cl    Cl    0.098348 0.808691 0.875311 -0.309778
Cl32  Cl    Cl    0.901652 0.191310 0.124688 -0.309778
Cl33  Cl    Cl    0.907485 0.729541 0.124157 -0.408101
Cl34  Cl    Cl    0.765557 0.060062 0.908796 -0.353641
Cl35  Cl    Cl    0.092515 0.270459 0.875843 -0.408101
Cl36  Cl    Cl    0.731434 0.414403 0.914932 -0.372255
Cl37  Cl    Cl    0.268566 0.585598 0.085068 -0.372255
Cl38  Cl    Cl    0.326749 0.407272 0.070385 -0.259142
Cl39  Cl    Cl    0.673251 0.592728 0.929615 -0.259141
Cl40  Cl    Cl    0.231434 0.914403 0.914932 -0.372255
Cl41  Cl    Cl    0.768566 0.085598 0.085068 -0.372255
Cl42  Cl    Cl    0.826749 0.907272 0.070385 -0.259142
Cl43  Cl    Cl    0.173251 0.092728 0.929615 -0.259141
Cl44  Cl    Cl    0.836734 0.810451 0.752772 -0.321946
Cl45  Cl    Cl    0.265281 0.406380 0.832915 -0.358708
Cl46  Cl    Cl    0.163266 0.189549 0.247228 -0.321946
Cl47  Cl    Cl    0.145681 0.813900 0.253453 -0.307524
Cl48  Cl    Cl    0.854318 0.186100 0.746546 -0.307524
Cl49  Cl    Cl    0.336734 0.310451 0.752772 -0.321946
Cl50  Cl    Cl    0.663266 0.689549 0.247228 -0.321946
Cl51  Cl    Cl    0.645681 0.313900 0.253453 -0.307524
Cl52  Cl    Cl    0.354318 0.686100 0.746546 -0.307524
Cl53  Cl    Cl    0.734719 0.593619 0.167085 -0.358708
Cl54  Cl    Cl    0.734443 0.439938 0.091204 -0.353641
Cl55  Cl    Cl    0.265557 0.560062 0.908796 -0.353641
Cl56  Cl    Cl    0.878502 0.890834 0.660750 -0.261213
H1    H     H_    0.433327 0.751307 0.529908 0.219350
H2    H     H_    0.566673 0.248693 0.470092 0.219350
H3    H     H_    0.566096 0.750424 0.485109 0.227341
H4    H     H_    0.433904 0.249576 0.514891 0.227342
H5    H     H_    0.933327 0.251307 0.529908 0.219350
H6    H     H_    0.066673 0.748693 0.470092 0.219350
H7    H     H_    0.066096 0.250424 0.485109 0.227341
H8    H     H_    0.933904 0.749576 0.514891 0.227342
I1    I     I_    0.219830 0.741051 0.152533 0.006550
I2    I     I_    0.376651 0.391150 0.476493 0.054585
I3    I     I_    0.351276 0.616876 0.422293 0.031232
I4    I     I_    0.648724 0.383124 0.577706 0.031232
I5    I     I_    0.123349 0.108849 0.523507 0.054585
I6    I     I_    0.876651 0.891150 0.476493 0.054585
I7    I     I_    0.851276 0.116876 0.422293 0.031231
I8    I     I_    0.148724 0.883124 0.577706 0.031232
I9    I     I_    0.780170 0.258949 0.847467 0.006551
I10   I     I_    0.759091 0.649179 0.846765 0.026712
I11   I     I_    0.240909 0.350821 0.153235 0.026712
I12   I     I_    0.719830 0.241051 0.152533 0.006550
I13   I     I_    0.280170 0.758950 0.847467 0.006551
I14   I     I_    0.259091 0.149179 0.846765 0.026712
I15   I     I_    0.740909 0.850821 0.153235 0.026712
I16   I     I_    0.623349 0.608849 0.523507 0.054585
N1    N     N_R   0.625380 0.928280 0.709340 -0.149876
N2    N     N_R   0.613900 0.929750 0.547530 -0.115164
N3    N     N_R   0.613900 0.070250 0.547530 -0.110497
N4    N     N_R   0.386100 0.929750 0.452470 -0.110497
N5    N     N_R   0.886100 0.570250 0.452470 -0.115164
N6    N     N_R   0.113900 0.429750 0.547530 -0.115164
N7    N     N_R   0.113900 0.570250 0.547530 -0.110497
N8    N     N_R   0.886100 0.429750 0.452470 -0.110497
N9    N     N_R   0.437800 0.869550 0.507970 -0.080484
N10   N     N_R   0.562200 0.130450 0.492030 -0.080484
N11   N     N_R   0.562200 0.869550 0.492030 -0.091310
N12   N     N_R   0.374620 0.071720 0.290660 -0.149876
N13   N     N_R   0.437800 0.130450 0.507970 -0.091310
N14   N     N_R   0.937800 0.369550 0.507970 -0.080484
N15   N     N_R   0.062200 0.630450 0.492030 -0.080484
N16   N     N_R   0.062200 0.369550 0.492030 -0.091310
N17   N     N_R   0.937800 0.630450 0.507970 -0.091310
N18   N     N_R   0.573690 0.128980 0.653840 -0.133283
N19   N     N_R   0.426310 0.871020 0.346160 -0.133283
N20   N     N_R   0.426310 0.128980 0.346160 -0.134008
N21   N     N_R   0.573690 0.871020 0.653840 -0.134008
N22   N     N_R   0.073690 0.628980 0.653840 -0.133283
N23   N     N_R   0.374620 0.928280 0.290660 -0.138248
N24   N     N_R   0.926310 0.371020 0.346160 -0.133283
N25   N     N_R   0.926310 0.628980 0.346160 -0.134008
N26   N     N_R   0.073690 0.371020 0.653840 -0.134008
N27   N     N_R   0.625380 0.071720 0.709340 -0.138248
N28   N     N_R   0.125380 0.428280 0.709340 -0.149876
N29   N     N_R   0.874620 0.571720 0.290660 -0.149876
N30   N     N_R   0.874620 0.428280 0.290660 -0.138248
N31   N     N_R   0.125380 0.571720 0.709340 -0.138248
N32   N     N_R   0.386100 0.070250 0.452470 -0.115164
Ni1   Ni    Ni4+2 0.616560 1.000000 0.627280 0.323455
Ni2   Ni    Ni4+2 0.383440 1.000000 0.372720 0.323455
Ni3   Ni    Ni4+2 0.116560 0.500000 0.627280 0.323455
Ni4   Ni    Ni4+2 0.883440 0.500000 0.372720 0.323455
Ni5   Ni    Ni4+2 0.497990 0.870580 0.500000 0.276061
Ni6   Ni    Ni4+2 0.502010 0.129420 0.500000 0.276061
Ni7   Ni    Ni4+2 0.997990 0.370580 0.500000 0.276061
Ni8   Ni    Ni4+2 0.002010 0.629420 0.500000 0.276061

loop_
_geom_bond_atom_site_label_1
_geom_bond_atom_site_label_2
_ccdc_geom_bond_type
C61   C70   A    
C16   C28   S    
C55   Cl34  S    
C88   N30   A    
C7    C29   S    
C3    C16   S    
C90   H7    S    
C35   C53   A    
C34   C112  S    
C41   Cl7   S    
C80   N6    A    
N1    N21   A    
N2    N11   A    
C4    C8    S    
C58   Cl44  S    
C93   C103  A    
C74   C109  A    
C82   N8    A    
C21   C110  S    
C47   Cl4   S    
C76   N3    A    
N7    Ni3   S    
C97   Cl24  S    
N18   N27   A    
C41   C73   A    
C7    C11   S    
C99   C108  A    
N5    N17   A    
C120  Cl29  S    
C95   N21   A    
C80   Cl15  S    
C54   I8    S    
C51   I3    S    
C39   Cl5   S    
C17   C26   S    
N10   Ni6   S    
C118  Cl27  S    
N9    Ni5   S    
C87   C117  A    
C82   Cl17  S    
C10   I10   S    
C76   Cl11  S    
C84   N10   A    
C43   C52   A    
C6    C25   S    
C20   C102  S    
C40   C49   A    
C23   C105  S    
C16   C25   S    
C88   Cl54  S    
C15   C120  S    
C13   C23   S    
C55   N27   A    
C1    N1    A    
C4    Cl31  S    
C83   C113  A    
C46   C69   A    
N4    Ni2   S    
C5    C27   S    
C37   C56   A    
N1    Ni1   S    
C75   N2    A    
C6    C28   S    
C100  Cl26  S    
N28   Ni3   S    
C90   N16   A    
N4    N9    A    
C2    C22   S    
C77   Cl53  S    
C64   C73   A    
N11   Ni5   S    
N3    N10   A    
N30   Ni4   S    
C32   C113  S    
N7    N15   A    
C18   C118  S    
C36   C52   A    
C75   Cl10  S    
C42   Cl8   S    
C42   C51   A    
C89   N15   A    
C98   N25   A    
C15   C23   S    
C4    C22   S    
C96   C108  A    
C89   C116  A    
C36   C114  S    
C91   H8    S    
C76   C112  A    
C12   I12   S    
C110  C118  S    
C3    C24   S    
C37   C117  S    
C85   N11   A    
N32   Ni2   S    
C78   Cl13  S    
C44   C103  A    
C25   C106  S    
C15   C29   S    
C20   C29   S    
C4    C26   S    
N27   Ni1   S    
C14   I13   S    
C2    C8    S    
C11   C20   S    
C24   Cl39  S    
C60   Cl47  S    
C34   C50   A    
C83   H1    S    
C12   C27   S    
C28   Cl42  S    
C33   C102  A    
C6    Cl33  S    
C86   C109  A    
N13   N32   A    
C24   C25   S    
C74   N32   A    
N13   Ni6   S    
N18   Ni6   S    
C19   C101  S    
C57   C65   A    
C88   C107  A    
C92   C104  A    
C11   I11   S    
C52   I6    S    
C57   Cl46  S    
N12   N20   A    
C10   C24   S    
C68   C73   A    
C65   C71   A    
C96   Cl22  S    
C55   C104  A    
C45   C53   A    
N25   N29   A    
C92   N18   A    
N21   Ni5   S    
N6    Ni3   S    
C97   C107  A    
C41   C50   A    
C91   N17   A    
C69   C72   A    
C100  N26   A    
C29   Cl43  S    
C77   N29   A    
C32   C51   A    
C48   I2    S    
C93   Cl19  S    
N23   Ni2   S    
N24   N30   A    
C59   C68   A    
C38   C116  S    
C43   Cl56  S    
C9    C18   S    
N12   Ni2   S    
C38   C54   A    
C80   C115  A    
C10   C19   S    
C85   H3    S    
C40   Cl6   S    
C3    C19   S    
C46   C54   A    
C86   H4    S    
C31   C109  S    
C5    C21   S    
C44   N23   A    
C84   C112  A    
C90   C115  A    
C14   C26   S    
C35   C115  S    
C19   C28   S    
C5    Cl32  S    
N17   Ni8   S    
C45   Cl2   S    
C83   N9    A    
C16   I15   S    
C40   C70   A    
C12   C118  S    
C33   Cl12  S    
C21   C107  S    
C30   C49   A    
N22   N31   A    
C95   Cl21  S    
C96   N22   A    
C31   C48   A    
C45   C65   A    
C34   C59   A    
C84   H2    S    
C46   Cl3   S    
C79   C114  A    
C78   C113  A    
C94   N20   A    
C32   C60   A    
C66   C105  A    
C36   C61   A    
C1    C101  A    
C13   Cl38  S    
C20   C120  S    
C37   C64   A    
C47   C68   A    
C22   C108  S    
C81   Cl16  S    
C38   C63   A    
C26   Cl40  S    
N6    N16   A    
C9    C110  S    
C15   I14   S    
C62   Cl49  S    
N8    Ni4   S    
C77   C106  A    
C3    Cl30  S    
N8    N14   A    
N26   Ni7   S    
C66   Cl45  S    
N16   Ni7   S    
C75   C111  A    
N5    Ni4   S    
C100  C105  A    
C18   C27   S    
C18   C104  S    
C5    C9    S    
C85   C111  A    
C50   I4    S    
C87   H5    S    
C99   N31   A    
C2    C119  S    
C97   N24   A    
N3    Ni1   S    
N15   Ni8   S    
C98   Cl25  S    
C8    I1    S    
N20   Ni6   S    
C92   Cl18  S    
N26   N28   A    
C8    C17   S    
C98   C106  A    
C91   C114  A    
C81   N7    A    
C30   C111  S    
C93   N19   A    
C67   C70   A    
C89   H6    S    
C31   C57   A    
N29   Ni4   S    
N14   Ni7   S    
C119  Cl28  S    
C86   N13   A    
C79   N5    A    
C27   Cl41  S    
N2    Ni1   S    
C11   C13   S    
C14   C22   S    
C63   Cl52  S    
C60   C69   A    
C64   Cl51  S    
C44   Cl23  S    
C7    C23   S    
N19   Ni5   S    
C30   C58   A    
C81   C116  A    
N22   Ni8   S    
C63   C72   A    
C33   N12   A    
C87   N14   A    
C62   C71   A    
C35   C62   A    
C9    I9    S    
C17   C103  S    
N24   Ni7   S    
C1    Cl1   S    
C56   I7    S    
C99   Cl55  S    
C110  Cl36  S    
C6    C10   S    
C17   C119  S    
N19   N23   A    
C12   C21   S    
C58   C67   A    
C78   N4    A    
C7    Cl35  S    
C2    Cl37  S    
C94   C102  A    
C43   C67   A    
C14   C119  S    
C79   Cl14  S    
C74   Cl9   S    
C66   N28   A    
N25   Ni8   S    
C39   C71   A    
C94   Cl20  S    
C47   C56   A    
N31   Ni3   S    
C61   Cl50  S    
C82   C117  A    
C42   C72   A    
C13   C120  S    
C53   I5    S    
C59   Cl48  S    
C95   C101  A    
C39   C48   A    
C49   I16   S    
