data_mof_unit_61517.cif
_audit_creation_date              2013-03-05T16:28:56-0500
_audit_creation_method            fapswitch 2.2
_symmetry_space_group_name_H-M    P1
_symmetry_Int_Tables_number       1
_space_group_crystal_system       triclinic
_cell_length_a                    18.257697
_cell_length_b                    18.257717
_cell_length_c                    47.166451
_cell_angle_alpha                 90.000055
_cell_angle_beta                  89.999938
_cell_angle_gamma                 89.999985
_cell_volume                      15722.6470698

loop_
_atom_site_label
_atom_site_type_symbol
_atom_site_description
_atom_site_fract_x
_atom_site_fract_y
_atom_site_fract_z
_atom_type_partial_charge
O1    O     O_R   0.999960 0.892740 0.023680 -0.597315
O2    O     O_R   0.107260 0.999960 0.023680 -0.597322
O3    O     O_R   0.000040 0.107260 0.023680 -0.597315
O4    O     O_R   0.892740 0.000040 0.023680 -0.597322
O5    O     O_R   0.999960 0.107260 0.976320 -0.597310
O6    O     O_R   0.107260 0.000040 0.976320 -0.597292
O7    O     O_R   0.000040 0.892740 0.976320 -0.597308
O8    O     O_R   0.892740 0.999960 0.976320 -0.597293
O9    O     O_R   0.499960 0.392740 0.523680 -0.597325
O10   O     O_R   0.607260 0.499960 0.523680 -0.597317
O11   O     O_R   0.500040 0.607260 0.523680 -0.597328
O12   O     O_R   0.392740 0.500040 0.523680 -0.597314
O13   O     O_R   0.499960 0.607260 0.476320 -0.597300
O14   O     O_R   0.607260 0.500040 0.476320 -0.597308
O15   O     O_R   0.500040 0.392740 0.476320 -0.597302
O16   O     O_R   0.392740 0.499960 0.476320 -0.597308
C1    C     C_R   1.000000 0.859007 1.000000 0.902617
C2    C     C_R   0.140993 0.000000 1.000000 0.902616
C3    C     C_R   0.000000 0.140993 0.000000 0.902617
C4    C     C_R   0.859007 1.000000 0.000000 0.902615
C5    C     C_R   0.500000 0.359007 0.500000 0.902621
C6    C     C_R   0.640993 0.500000 0.500000 0.902620
C7    C     C_R   0.500000 0.640993 0.500000 0.902621
C8    C     C_R   0.359007 0.500000 0.500000 0.902621
Zn1   Zn    Zn3+2 0.000000 1.000000 0.031620 1.136156
Zn2   Zn    Zn3+2 0.000000 1.000000 0.968380 1.136204
Zn3   Zn    Zn3+2 0.500000 0.500000 0.531620 1.136144
Zn4   Zn    Zn3+2 0.500000 0.500000 0.468380 1.136187
C9    C     C_1   0.782515 1.000000 0.000000 -0.105801
C10   C     C_1   1.000000 0.782515 1.000000 -0.105812
C11   C     C_1   0.217485 0.000000 1.000000 -0.105797
C12   C     C_1   1.000000 0.217485 0.000000 -0.105815
C13   C     C_1   0.282515 0.500000 0.500000 -0.105812
C14   C     C_1   0.500000 0.282515 0.500000 -0.105820
C15   C     C_1   0.717485 0.500000 0.500000 -0.105816
C16   C     C_1   0.500000 0.717485 0.500000 -0.105821
C17   C     C_1   0.717714 0.000000 0.000000 -0.084732
C18   C     C_1   1.000000 0.717714 1.000000 -0.084760
C19   C     C_1   0.282286 0.000000 1.000000 -0.084725
C20   C     C_1   1.000000 0.282286 0.000000 -0.084767
C21   C     C_1   0.217714 0.500000 0.500000 -0.084754
C22   C     C_1   0.500000 0.217714 0.500000 -0.084774
C23   C     C_1   0.782286 0.500000 0.500000 -0.084762
C24   C     C_1   0.500000 0.782286 0.500000 -0.084776
O17   O     O_R   0.500020 0.060670 0.958090 -0.587251
O18   O     O_R   0.939330 0.500020 0.958090 -0.587221
O19   O     O_R   0.499980 0.939330 0.958090 -0.587251
O20   O     O_R   0.060670 0.499980 0.958090 -0.587221
O21   O     O_R   0.500020 0.939330 0.041910 -0.587218
O22   O     O_R   0.939330 0.499980 0.041910 -0.587218
O23   O     O_R   0.499980 0.060670 0.041910 -0.587219
O24   O     O_R   0.060670 0.500020 0.041910 -0.587218
O25   O     O_R   0.000020 0.560670 0.458090 -0.587223
O26   O     O_R   0.439330 0.000020 0.458090 -0.587227
O27   O     O_R   0.999980 0.439330 0.458090 -0.587223
O28   O     O_R   0.560670 0.999980 0.458090 -0.587227
O29   O     O_R   0.000020 0.439330 0.541910 -0.587218
O30   O     O_R   0.439330 0.999980 0.541910 -0.587200
O31   O     O_R   0.999980 0.560670 0.541910 -0.587218
O32   O     O_R   0.560670 0.000020 0.541910 -0.587199
C25   C     C_R   0.500000 1.000000 0.944611 1.019303
C26   C     C_R   0.000000 0.500000 0.944611 1.019217
C27   C     C_R   0.500000 0.000000 0.055389 1.019200
C28   C     C_R   1.000000 0.500000 0.055389 1.019212
C29   C     C_R   0.000000 0.500000 0.444611 1.019225
C30   C     C_R   0.500000 1.000000 0.444611 1.019244
C31   C     C_R   0.000000 0.500000 0.555389 1.019211
C32   C     C_R   0.500000 0.000000 0.555390 1.019156
O33   O     O_R   0.607320 0.060650 0.000010 -0.603607
O34   O     O_R   0.939350 0.607320 0.000010 -0.603616
O35   O     O_R   0.392680 0.939350 0.000010 -0.603606
O36   O     O_R   0.060650 0.392680 0.000010 -0.603614
O37   O     O_R   0.607320 0.939350 0.999990 -0.603631
O38   O     O_R   0.939350 0.392680 0.999990 -0.603615
O39   O     O_R   0.392680 0.060650 0.999990 -0.603629
O40   O     O_R   0.060650 0.607320 0.999990 -0.603610
O41   O     O_R   0.107320 0.560650 0.500010 -0.603612
O42   O     O_R   0.439350 0.107320 0.500010 -0.603600
O43   O     O_R   0.892680 0.439350 0.500010 -0.603617
O44   O     O_R   0.560650 0.892680 0.500010 -0.603604
O45   O     O_R   0.107320 0.439350 0.499990 -0.603614
O46   O     O_R   0.439350 0.892680 0.499990 -0.603620
O47   O     O_R   0.892680 0.560650 0.499990 -0.603613
O48   O     O_R   0.560650 0.107320 0.499990 -0.603623
C33   C     C_R   0.641234 0.000000 0.000000 0.949951
C34   C     C_R   0.000000 0.641234 1.000000 0.949918
C35   C     C_R   0.358766 0.000000 0.000000 0.949957
C36   C     C_R   1.000000 0.358766 0.000000 0.949911
C37   C     C_R   0.141234 0.500000 0.500000 0.949922
C38   C     C_R   0.500000 0.141234 0.500000 0.949901
C39   C     C_R   0.858766 0.500000 0.500000 0.949915
C40   C     C_R   0.500000 0.858766 0.500000 0.949899
Zn5   Zn    Zn3+2 0.500000 0.080980 0.000000 1.130875
Zn6   Zn    Zn3+2 0.919020 0.500000 0.000000 1.130890
Zn7   Zn    Zn3+2 0.500000 0.919020 0.000000 1.130874
Zn8   Zn    Zn3+2 0.080980 0.500000 0.000000 1.130894
Zn9   Zn    Zn3+2 0.000000 0.580980 0.500000 1.130895
Zn10  Zn    Zn3+2 0.419020 1.000000 0.500000 1.130904
Zn11  Zn    Zn3+2 0.000000 0.419020 0.500000 1.130893
Zn12  Zn    Zn3+2 0.580980 1.000000 0.500000 1.130901
C41   C     C_R   0.952828 0.454887 0.189966 0.697414
C42   C     C_R   0.545116 0.952833 0.189966 0.697413
C43   C     C_R   0.047172 0.545111 0.189966 0.697413
C44   C     C_R   0.454876 0.047162 0.189966 0.697414
C45   C     C_R   0.952841 0.545130 0.810034 0.697417
C46   C     C_R   0.545017 0.047260 0.810037 0.697411
C47   C     C_R   0.047195 0.454917 0.810035 0.697412
C48   C     C_R   0.454954 0.952762 0.810036 0.697412
C49   C     C_R   0.452872 0.954844 0.689967 0.697409
C50   C     C_R   0.045130 0.452844 0.689966 0.697415
C51   C     C_R   0.547105 0.045184 0.689968 0.697411
C52   C     C_R   0.954912 0.547193 0.689965 0.697412
C53   C     C_R   0.452803 0.045086 0.310035 0.697412
C54   C     C_R   0.045101 0.547182 0.310035 0.697413
C55   C     C_R   0.547191 0.954907 0.310035 0.697413
C56   C     C_R   0.954899 0.452817 0.310035 0.697413
N1    N     N_R   0.000000 0.499999 0.176065 -0.332184
N2    N     N_R   0.499996 0.999998 0.176066 -0.332184
N3    N     N_R   0.000015 0.500021 0.823935 -0.332186
N4    N     N_R   0.499987 0.000009 0.823936 -0.332188
N5    N     N_R   0.499991 0.000012 0.676067 -0.332178
N6    N     N_R   0.000019 0.500015 0.676065 -0.332184
N7    N     N_R   0.499998 0.999997 0.323935 -0.332185
N8    N     N_R   0.000000 0.499999 0.323935 -0.332185
C57   C     C_R   0.047970 0.547553 0.219908 -0.163069
C58   C     C_R   0.452432 0.047957 0.219908 -0.163069
C59   C     C_R   0.952031 0.452444 0.219908 -0.163069
C60   C     C_R   0.547558 0.952035 0.219908 -0.163069
C61   C     C_R   0.048000 0.452480 0.780093 -0.163068
C62   C     C_R   0.452516 0.951958 0.780094 -0.163068
C63   C     C_R   0.952051 0.547578 0.780092 -0.163068
C64   C     C_R   0.547447 0.048074 0.780095 -0.163067
C65   C     C_R   0.547877 0.047647 0.719909 -0.163072
C66   C     C_R   0.952476 0.547999 0.719907 -0.163070
C67   C     C_R   0.452089 0.952388 0.719909 -0.163070
C68   C     C_R   0.047578 0.452054 0.719908 -0.163071
C69   C     C_R   0.547984 0.952461 0.280093 -0.163069
C70   C     C_R   0.952456 0.452020 0.280093 -0.163070
C71   C     C_R   0.452007 0.047530 0.280093 -0.163069
C72   C     C_R   0.047545 0.547978 0.280093 -0.163069
C73   C     C_R   0.000000 0.499999 0.234963 -0.079931
C74   C     C_R   0.499995 0.999996 0.234963 -0.079931
C75   C     C_R   0.000026 0.500029 0.765037 -0.079931
C76   C     C_R   0.499982 0.000017 0.765039 -0.079932
C77   C     C_R   0.499982 0.000017 0.734965 -0.079927
C78   C     C_R   0.000027 0.500027 0.734963 -0.079930
C79   C     C_R   0.499995 0.999996 0.265038 -0.079930
C80   C     C_R   0.000000 0.499999 0.265037 -0.079931
C81   C     C_R   0.095071 0.595328 0.235133 0.369695
C82   C     C_R   0.404647 0.095048 0.235134 0.369695
C83   C     C_R   0.904930 0.404670 0.235133 0.369695
C84   C     C_R   0.595341 0.904942 0.235133 0.369694
C85   C     C_R   0.095113 0.404716 0.764868 0.369696
C86   C     C_R   0.404834 0.904765 0.764867 0.369696
C87   C     C_R   0.904952 0.595354 0.764866 0.369695
C88   C     C_R   0.595122 0.095277 0.764869 0.369697
C89   C     C_R   0.594881 0.095517 0.735135 0.369691
C90   C     C_R   0.904711 0.595112 0.735132 0.369695
C91   C     C_R   0.405075 0.904526 0.735134 0.369692
C92   C     C_R   0.095355 0.404956 0.735134 0.369694
C93   C     C_R   0.595100 0.904701 0.264867 0.369695
C94   C     C_R   0.904689 0.404911 0.264867 0.369694
C95   C     C_R   0.404888 0.095288 0.264867 0.369694
C96   C     C_R   0.095312 0.595086 0.264867 0.369695
O49   O     O_2   0.906830 0.413467 0.174414 -0.424576
O50   O     O_2   0.586543 0.906842 0.174414 -0.424577
O51   O     O_2   0.093169 0.586532 0.174414 -0.424576
O52   O     O_2   0.413450 0.093155 0.174414 -0.424576
O53   O     O_2   0.906833 0.586541 0.825585 -0.424576
O54   O     O_2   0.586369 0.093317 0.825589 -0.424573
O55   O     O_2   0.093193 0.413498 0.825588 -0.424580
O56   O     O_2   0.413608 0.906697 0.825587 -0.424570
O57   O     O_2   0.406911 0.913382 0.674415 -0.424580
O58   O     O_2   0.086544 0.406839 0.674415 -0.424573
O59   O     O_2   0.593073 0.086639 0.674417 -0.424578
O60   O     O_2   0.913489 0.593186 0.674412 -0.424577
O61   O     O_2   0.406783 0.086481 0.325587 -0.424575
O62   O     O_2   0.086509 0.593191 0.325586 -0.424576
O63   O     O_2   0.593213 0.913514 0.325586 -0.424574
O64   O     O_2   0.913491 0.406808 0.325587 -0.424576
C97   C     C_R   0.442450 0.034518 0.869113 0.269706
C98   C     C_R   0.965408 0.442523 0.869108 0.269685
C99   C     C_R   0.557532 0.965488 0.869111 0.269709
C100  C     C_R   0.034603 0.557505 0.869113 0.269681
C101  C     C_R   0.442514 0.965390 0.130889 0.269678
C102  C     C_R   0.965397 0.557487 0.130890 0.269681
C103  C     C_R   0.557481 0.034609 0.130890 0.269679
C104  C     C_R   0.034603 0.442512 0.130889 0.269680
C105  C     C_R   0.942504 0.534589 0.369111 0.269684
C106  C     C_R   0.465425 0.942492 0.369111 0.269688
C107  C     C_R   0.057496 0.465410 0.369111 0.269684
C108  C     C_R   0.534573 0.057503 0.369111 0.269688
C109  C     C_R   0.942524 0.465405 0.630891 0.269682
C110  C     C_R   0.465342 0.057465 0.630890 0.269657
C111  C     C_R   0.057502 0.534607 0.630887 0.269677
C112  C     C_R   0.534650 0.942552 0.630892 0.269664
C113  C     C_R   0.442701 0.034672 0.898854 0.253860
C114  C     C_R   0.965252 0.442764 0.898849 0.253879
C115  C     C_R   0.557287 0.965330 0.898851 0.253858
C116  C     C_R   0.034752 0.557255 0.898853 0.253880
C117  C     C_R   0.442760 0.965238 0.101149 0.253882
C118  C     C_R   0.965244 0.557242 0.101149 0.253881
C119  C     C_R   0.557236 0.034762 0.101150 0.253882
C120  C     C_R   0.034755 0.442757 0.101149 0.253881
C121  C     C_R   0.942750 0.534742 0.398851 0.253877
C122  C     C_R   0.465273 0.942739 0.398852 0.253873
C123  C     C_R   0.057250 0.465257 0.398851 0.253877
C124  C     C_R   0.534727 0.057258 0.398851 0.253873
C125  C     C_R   0.942766 0.465248 0.601151 0.253879
C126  C     C_R   0.465194 0.057218 0.601149 0.253894
C127  C     C_R   0.057252 0.534756 0.601147 0.253882
C128  C     C_R   0.534803 0.942793 0.601152 0.253893
C129  C     C_R   0.499996 0.000000 0.913648 -0.310047
C130  C     C_R   0.000001 0.500006 0.913647 -0.310103
C131  C     C_R   0.499999 1.000000 0.086353 -0.310102
C132  C     C_R   1.000000 0.500000 0.086353 -0.310101
C133  C     C_R   0.000000 0.500000 0.413647 -0.310094
C134  C     C_R   0.500000 0.999999 0.413647 -0.310085
C135  C     C_R   0.000006 0.500001 0.586353 -0.310098
C136  C     C_R   0.499999 0.000004 0.586354 -0.310132
C137  C     C_R   0.499990 0.000005 0.854360 -0.056451
C138  C     C_R   0.000008 0.500016 0.854358 -0.056443
C139  C     C_R   0.499997 0.999999 0.145642 -0.056441
C140  C     C_R   1.000000 0.499999 0.145642 -0.056440
C141  C     C_R   0.000000 0.499999 0.354358 -0.056442
C142  C     C_R   0.499999 0.999997 0.354358 -0.056444
C143  C     C_R   0.000015 0.500008 0.645642 -0.056439
C144  C     C_R   0.499995 0.000010 0.645643 -0.056433
Cl1   Cl    Cl    0.154775 0.658348 0.217987 -0.290658
Cl2   Cl    Cl    0.341613 0.154737 0.217988 -0.290657
Cl3   Cl    Cl    0.845227 0.341648 0.217987 -0.290657
Cl4   Cl    Cl    0.658372 0.845250 0.217987 -0.290657
Cl5   Cl    Cl    0.154834 0.341712 0.782014 -0.290668
Cl6   Cl    Cl    0.341935 0.844931 0.782013 -0.290662
Cl7   Cl    Cl    0.845255 0.658381 0.782012 -0.290662
Cl8   Cl    Cl    0.658004 0.155128 0.782015 -0.290656
Cl9   Cl    Cl    0.654436 0.158677 0.717988 -0.290650
Cl10  Cl    Cl    0.841708 0.654833 0.717986 -0.290651
Cl11  Cl    Cl    0.345504 0.841382 0.717986 -0.290657
Cl12  Cl    Cl    0.158382 0.345259 0.717988 -0.290654
Cl13  Cl    Cl    0.654820 0.841696 0.282013 -0.290658
Cl14  Cl    Cl    0.841676 0.345199 0.282014 -0.290659
Cl15  Cl    Cl    0.345165 0.158290 0.282014 -0.290658
Cl16  Cl    Cl    0.158326 0.654798 0.282013 -0.290660
N9    N     N_R   0.384026 0.069299 0.853762 0.262370
O65   O     O_R   0.316176 0.052604 0.859173 -0.225486
O66   O     O_R   0.398436 0.114801 0.833279 -0.305394
N10   N     N_R   0.930542 0.384158 0.853753 0.262369
O67   O     O_R   0.947136 0.316280 0.859160 -0.225472
O68   O     O_R   0.885066 0.398644 0.833269 -0.305393
N11   N     N_R   0.615953 0.930710 0.853757 0.262371
O69   O     O_R   0.683804 0.947402 0.859167 -0.225482
O70   O     O_R   0.601538 0.885213 0.833273 -0.305393
N12   N     N_R   0.069473 0.615877 0.853761 0.262368
O71   O     O_R   0.052871 0.683752 0.859170 -0.225476
O72   O     O_R   0.114958 0.601398 0.833281 -0.305393
N13   N     N_R   0.384153 0.930508 0.146242 0.262370
O73   O     O_R   0.316273 0.947092 0.140835 -0.225465
O74   O     O_R   0.398645 0.885030 0.166724 -0.305402
N14   N     N_R   0.930523 0.615852 0.146243 0.262369
O75   O     O_R   0.947113 0.683730 0.140835 -0.225466
O76   O     O_R   0.885043 0.601364 0.166725 -0.305402
N15   N     N_R   0.615841 0.069490 0.146244 0.262369
O77   O     O_R   0.683721 0.052907 0.140837 -0.225465
O78   O     O_R   0.601347 0.114969 0.166725 -0.305400
N16   N     N_R   0.069477 0.384147 0.146243 0.262369
O79   O     O_R   0.052886 0.316269 0.140835 -0.225466
O80   O     O_R   0.114956 0.398634 0.166725 -0.305402
N17   N     N_R   0.884131 0.569448 0.353757 0.262369
O81   O     O_R   0.816257 0.552841 0.359165 -0.225466
O82   O     O_R   0.898606 0.614931 0.333275 -0.305398
N18   N     N_R   0.430582 0.884108 0.353758 0.262368
O83   O     O_R   0.447209 0.816239 0.359167 -0.225467
O84   O     O_R   0.385095 0.898570 0.333276 -0.305398
N19   N     N_R   0.115870 0.430551 0.353757 0.262369
O85   O     O_R   0.183744 0.447158 0.359165 -0.225467
O86   O     O_R   0.101394 0.385068 0.333275 -0.305398
N20   N     N_R   0.569415 0.115887 0.353757 0.262369
O87   O     O_R   0.552791 0.183756 0.359166 -0.225466
O88   O     O_R   0.614900 0.101423 0.333274 -0.305399
N21   N     N_R   0.884161 0.430535 0.646247 0.262371
O89   O     O_R   0.816282 0.447125 0.640840 -0.225457
O90   O     O_R   0.898650 0.385059 0.666730 -0.305406
N22   N     N_R   0.430412 0.115798 0.646242 0.262367
O91   O     O_R   0.446944 0.183691 0.640836 -0.225446
O92   O     O_R   0.384941 0.101269 0.666722 -0.305407
N23   N     N_R   0.115871 0.569481 0.646239 0.262369
O93   O     O_R   0.183747 0.552886 0.640830 -0.225461
O94   O     O_R   0.101388 0.614965 0.666720 -0.305409
N24   N     N_R   0.569578 0.884222 0.646247 0.262369
O95   O     O_R   0.553049 0.816328 0.640842 -0.225445
O96   O     O_R   0.615044 0.898755 0.666729 -0.305404
Cl17  Cl    Cl    0.371186 0.078843 0.917566 -0.456573
Cl18  Cl    Cl    0.920983 0.371300 0.917555 -0.456458
Cl19  Cl    Cl    0.628805 0.921156 0.917560 -0.456562
Cl20  Cl    Cl    0.079015 0.628714 0.917564 -0.456477
Cl21  Cl    Cl    0.371307 0.920958 0.082440 -0.456467
Cl22  Cl    Cl    0.920972 0.628700 0.082440 -0.456471
Cl23  Cl    Cl    0.628691 0.079042 0.082441 -0.456465
Cl24  Cl    Cl    0.079028 0.371300 0.082440 -0.456471
Cl25  Cl    Cl    0.871283 0.578999 0.417560 -0.456479
Cl26  Cl    Cl    0.421034 0.871262 0.417561 -0.456498
Cl27  Cl    Cl    0.128717 0.421000 0.417560 -0.456480
Cl28  Cl    Cl    0.578967 0.128736 0.417560 -0.456497
Cl29  Cl    Cl    0.871304 0.420975 0.582445 -0.456467
Cl30  Cl    Cl    0.420866 0.128641 0.582440 -0.456418
Cl31  Cl    Cl    0.128709 0.579024 0.582436 -0.456484
Cl32  Cl    Cl    0.579135 0.871367 0.582445 -0.456407

loop_
_geom_bond_atom_site_label_1
_geom_bond_atom_site_label_2
_geom_bond_distance
_ccdc_geom_bond_type
C64   C76   1.423077 A    
C53   O61   1.347306 S    
C112  C144  1.408879 A    
O8    Zn2   1.993809 S    
O9    C5    1.275456 A    
C48   N4    1.360139 A    
C14   C22   1.183127 T    
C19   C35   1.396343 S    
C47   C61   1.413040 A    
C126  Cl30  1.770363 S    
C45   C63   1.413039 A    
C47   O55   1.347305 S    
C46   C64   1.413038 A    
C82   C95   1.402433 A    
O41   C37   1.268691 A    
C45   O53   1.347304 S    
O18   C26   1.277181 A    
C119  C131  1.407817 A    
N22   O91   1.301020 A    
C32   C136  1.460481 S    
O33   Zn5   1.994263 S    
C49   O57   1.347307 S    
O35   Zn7   1.994265 S    
C10   C18   1.183127 T    
N12   O72   1.301040 A    
C106  C122  1.402759 A    
N18   O83   1.301022 A    
N23   O94   1.301044 A    
O3    C3    1.275453 A    
C93   Cl13  1.779376 S    
C24   C40   1.396345 S    
C107  C141  1.408884 A    
N9    O65   1.301025 A    
C87   C90   1.402433 A    
C1    C10   1.396573 S    
C26   C130  1.460448 S    
C43   N1    1.360139 A    
C3    C12   1.396573 S    
O27   C29   1.277179 A    
N10   O68   1.301048 A    
C66   C78   1.423073 A    
C113  Cl17  1.770365 S    
C123  C133  1.407812 A    
C55   N7    1.360136 A    
O12   Zn3   1.993810 S    
C97   C137  1.408891 A    
O48   Zn12  1.994265 S    
N11   O69   1.301027 A    
C52   C66   1.413039 A    
C128  C136  1.407827 A    
O10   C6    1.275455 A    
O44   C40   1.268690 A    
O11   Zn3   1.993810 S    
C86   Cl6   1.779379 S    
C70   C94   1.419896 A    
C57   C81   1.419895 A    
C90   Cl10  1.779379 S    
C61   C75   1.423074 A    
C71   C95   1.419895 A    
C56   O64   1.347308 S    
C119  Cl23  1.770362 S    
C16   C24   1.183127 T    
C65   C77   1.423069 A    
O37   Zn7   1.994263 S    
C114  C130  1.407813 A    
C63   C75   1.423069 A    
O39   Zn5   1.994265 S    
O43   Zn11  1.994265 S    
N15   O78   1.301046 A    
C109  N21   1.437133 S    
O20   Zn8   2.011231 S    
C106  N18   1.437130 S    
C76   C77   1.418498 A    
O32   Zn12  2.011225 S    
C112  N24   1.437131 S    
O47   C39   1.268691 A    
C82   Cl2   1.779376 S    
C111  C143  1.408881 A    
O25   Zn9   2.011230 S    
C20   C36   1.396345 S    
C41   N1    1.360140 A    
O40   Zn8   1.994265 S    
C69   C93   1.419895 A    
C49   N5    1.360141 A    
O28   C30   1.277178 A    
O11   C7    1.275453 A    
C97   N9    1.437132 S    
C23   C39   1.396343 S    
O36   Zn8   1.994267 S    
C7    C16   1.396573 S    
C101  C139  1.408882 A    
C2    C11   1.396571 S    
C27   C131  1.460457 S    
O10   Zn3   1.993807 S    
C21   C37   1.396343 S    
C43   O51   1.347307 S    
C112  C128  1.402768 A    
C49   C67   1.413037 A    
C50   C68   1.413034 A    
O30   Zn10  2.011226 S    
O17   Zn5   2.011230 S    
N8    C141  1.434964 S    
C52   N6    1.360139 A    
C102  C118  1.402759 A    
O7    Zn2   1.993812 S    
C18   C34   1.396345 S    
C42   C60   1.413037 A    
C110  C144  1.408879 A    
O29   Zn11  2.011225 S    
O13   C7    1.275456 A    
N13   O73   1.301021 A    
C59   C73   1.423073 A    
C128  Cl32  1.770365 S    
C121  Cl25  1.770364 S    
O31   C31   1.277181 A    
C105  N17   1.437130 S    
C60   C84   1.419896 A    
C83   Cl3   1.779375 S    
C55   C69   1.413038 A    
C57   C73   1.423073 A    
C54   O62   1.347305 S    
C116  C130  1.407813 A    
C53   C71   1.413038 A    
O41   Zn9   1.994263 S    
C54   C72   1.413037 A    
C15   C23   1.183126 T    
C48   C62   1.413035 A    
C84   C93   1.402433 A    
C127  Cl31  1.770365 S    
C42   O50   1.347303 S    
C115  Cl19  1.770362 S    
C110  N22   1.437130 S    
C46   O54   1.347309 S    
O48   C38   1.268690 A    
C107  N19   1.437131 S    
C50   O58   1.347306 S    
C125  C135  1.407815 A    
C109  C143  1.408883 A    
O22   Zn6   2.011226 S    
C104  C120  1.402759 A    
C22   C38   1.396345 S    
O4    C4    1.275452 A    
C98   N10   1.437131 S    
C110  C126  1.402764 A    
O20   C26   1.277180 A    
O18   Zn6   2.011230 S    
O30   C32   1.277187 A    
C62   C86   1.419901 A    
C81   C96   1.402433 A    
C107  C123  1.402759 A    
O21   Zn7   2.011225 S    
O37   C33   1.268693 A    
N16   O80   1.301045 A    
O23   Zn5   2.011226 S    
O39   C35   1.268691 A    
C66   C90   1.419897 A    
N22   O92   1.301046 A    
C114  Cl18  1.770362 S    
O33   C33   1.268691 A    
C102  C140  1.408883 A    
C52   O60   1.347307 S    
C106  C142  1.408884 A    
C74   C79   1.418503 A    
N14   O75   1.301021 A    
O26   C30   1.277178 A    
C72   C96   1.419894 A    
C127  C135  1.407814 A    
O12   C8    1.275452 A    
O1    C1    1.275456 A    
C81   Cl1   1.779376 S    
O14   C6    1.275452 A    
C85   C92   1.402433 A    
C31   C135  1.460453 S    
C125  Cl29  1.770363 S    
C86   C91   1.402433 A    
C61   C85   1.419897 A    
C58   C82   1.419896 A    
O6    Zn2   1.993808 S    
C103  C139  1.408880 A    
C88   Cl8   1.779380 S    
C48   O56   1.347309 S    
C41   C59   1.413037 A    
C65   C89   1.419889 A    
C43   C57   1.413037 A    
C68   C78   1.423071 A    
C68   C92   1.419893 A    
N18   O84   1.301047 A    
O27   Zn11  2.011231 S    
N20   O87   1.301023 A    
N1    C140  1.434964 S    
C111  N23   1.437130 S    
C84   Cl4   1.779376 S    
C75   C78   1.418503 A    
O46   Zn10  1.994267 S    
O38   Zn6   1.994267 S    
N19   O85   1.301024 A    
N15   O77   1.301022 A    
O42   C38   1.268692 A    
O34   Zn6   1.994265 S    
C100  C116  1.402759 A    
O2    C2    1.275455 A    
C117  Cl21  1.770363 S    
C103  C119  1.402764 A    
O46   C40   1.268692 A    
N24   O95   1.301021 A    
C101  C117  1.402759 A    
C120  Cl24  1.770363 S    
C105  C121  1.402759 A    
C67   C77   1.423068 A    
O13   Zn4   1.993809 S    
C94   Cl14  1.779377 S    
O45   C37   1.268693 A    
C97   C113  1.402759 A    
C115  C129  1.407794 A    
N17   O81   1.301023 A    
C47   N3    1.360137 A    
O4    Zn1   1.993810 S    
C44   N2    1.360137 A    
C124  C134  1.407810 A    
C98   C138  1.408883 A    
C25   C129  1.460415 S    
O3    Zn1   1.993810 S    
O23   C27   1.277181 A    
O24   C28   1.277181 A    
C122  Cl26  1.770365 S    
C5    C14   1.396573 S    
C58   C74   1.423073 A    
N12   O71   1.301019 A    
N23   O93   1.301021 A    
C53   N7    1.360138 A    
C99   C137  1.408892 A    
C83   C94   1.402433 A    
C121  C133  1.407812 A    
O25   C29   1.277179 A    
C116  Cl20  1.770361 S    
C85   Cl5   1.779375 S    
C41   O49   1.347306 S    
O35   C35   1.268693 A    
C101  N13   1.437133 S    
N9    O66   1.301046 A    
N21   O90   1.301043 A    
C96   Cl16  1.779376 S    
O40   C34   1.268690 A    
C113  C129  1.407799 A    
N10   O67   1.301023 A    
O9    Zn3   1.993811 S    
C120  C132  1.407815 A    
C56   N8    1.360140 A    
N2    C139  1.434969 S    
C69   C79   1.423069 A    
O19   C25   1.277173 A    
O5    C3    1.275456 A    
O45   Zn11  1.994263 S    
C8    C13   1.396571 S    
C13   C21   1.183126 T    
C63   C87   1.419894 A    
C30   C134  1.460438 S    
C50   N6    1.360139 A    
O15   Zn4   1.993812 S    
C29   C133  1.460448 S    
O17   C25   1.277171 A    
O2    Zn1   1.993807 S    
C99   N11   1.437133 S    
O5    Zn2   1.993809 S    
O32   C32   1.277188 A    
O47   Zn9   1.994265 S    
C9    C17   1.183126 T    
C91   Cl11  1.779380 S    
C45   N3    1.360138 A    
O38   C36   1.268692 A    
C108  N20   1.437133 S    
O16   Zn4   1.993809 S    
N4    C137  1.434964 S    
O21   C27   1.277182 A    
C51   N5    1.360142 A    
O22   C28   1.277180 A    
C98   C114  1.402764 A    
C72   C80   1.423072 A    
N7    C142  1.434969 S    
C122  C134  1.407810 A    
C100  C138  1.408882 A    
C6    C15   1.396571 S    
C71   C79   1.423069 A    
O8    C4    1.275455 A    
N5    C144  1.434969 S    
C51   O59   1.347307 S    
C17   C33   1.396343 S    
C88   C89   1.402433 A    
N19   O86   1.301045 A    
N11   O70   1.301046 A    
C126  C136  1.407827 A    
C117  C131  1.407819 A    
C73   C80   1.418503 A    
C64   C88   1.419902 A    
C102  N14   1.437131 S    
O42   Zn10  1.994265 S    
C42   N2    1.360139 A    
C54   N8    1.360137 A    
C108  C142  1.408887 A    
O16   C8    1.275455 A    
O44   Zn12  1.994267 S    
O1    Zn1   1.993811 S    
C108  C124  1.402759 A    
O29   C31   1.277182 A    
O36   C36   1.268690 A    
C56   C70   1.413033 A    
C4    C9    1.396571 S    
O6    C2    1.275452 A    
C118  Cl22  1.770363 S    
C123  Cl27  1.770365 S    
C124  Cl28  1.770363 S    
N14   O76   1.301044 A    
C70   C80   1.423073 A    
C51   C65   1.413030 A    
O7    C1    1.275453 A    
N21   O89   1.301023 A    
N3    C138  1.434964 S    
C99   C115  1.402764 A    
C104  N16   1.437130 S    
N13   O74   1.301043 A    
C111  C127  1.402759 A    
C44   O52   1.347305 S    
C67   C91   1.419891 A    
C109  C125  1.402759 A    
C87   Cl7   1.779378 S    
C59   C83   1.419897 A    
C95   Cl15  1.779377 S    
C104  C140  1.408884 A    
C100  N12   1.437130 S    
O31   Zn9   2.011226 S    
N20   O88   1.301046 A    
O28   Zn12  2.011231 S    
O34   C34   1.268692 A    
C62   C76   1.423075 A    
C89   Cl9   1.779382 S    
C92   Cl12  1.779374 S    
C46   N4    1.360138 A    
O43   C39   1.268693 A    
C28   C132  1.460453 S    
C105  C141  1.408886 A    
C118  C132  1.407815 A    
N17   O82   1.301045 A    
N6    C143  1.434964 S    
C103  N15   1.437129 S    
C11   C19   1.183126 T    
O24   Zn8   2.011225 S    
N24   O96   1.301043 A    
C12   C20   1.183127 T    
N16   O79   1.301021 A    
O15   C5    1.275453 A    
C44   C58   1.413037 A    
O19   Zn7   2.011231 S    
O26   Zn10  2.011230 S    
O14   Zn4   1.993808 S    
C60   C74   1.423073 A    
C55   O63   1.347306 S    
