data_mof_unit_18195.cif
_audit_creation_date              2012-12-10T18:59:16-0500
_audit_creation_method            fapswitch 2.2
_symmetry_space_group_name_H-M    P1
_symmetry_Int_Tables_number       1
_space_group_crystal_system       triclinic
_cell_length_a                    10.769068
_cell_length_b                    10.818924
_cell_length_c                    9.560366
_cell_angle_alpha                 90.208382
_cell_angle_beta                  89.898997
_cell_angle_gamma                 89.890334
_cell_volume                      1113.86449294

loop_
_atom_site_label
_atom_site_type_symbol
_atom_type_description
_atom_site_fract_x
_atom_site_fract_y
_atom_site_fract_z
_atom_type_partial_charge
C1    C     C_R   0.497339 0.262406 0.499755 0.770533
C2    C     C_R   0.065576 0.388429 0.553093 0.091724
C3    C     C_R   0.129188 0.492356 0.500532 -0.121101
C4    C     C_R   0.065251 0.593717 0.447031 -0.259025
C5    C     C_R   0.936506 0.595587 0.447300 0.131417
C6    C     C_R   0.871257 0.493683 0.499827 -0.106830
C7    C     C_R   0.477478 0.064348 0.624576 0.116584
C8    C     C_R   0.484166 0.129429 0.499062 -0.096231
C9    C     C_R   0.472961 0.064094 0.372351 -0.212879
C10   C     C_R   0.473540 0.935253 0.372571 -0.220940
C11   C     C_R   0.485364 0.870920 0.499511 -0.098710
C12   C     C_R   0.262734 0.498113 0.500148 0.798272
C13   C     C_R   0.478435 0.937145 0.624812 0.127847
C14   C     C_3   0.559185 0.931961 0.751518 -0.480584
C15   C     C_3   0.557317 0.072224 0.751800 -0.456793
C16   C     C_R   0.608000 0.514785 0.073381 0.264357
C17   C     C_R   0.395510 0.472725 0.074263 -0.090383
C18   C     C_R   0.395512 0.472684 0.925817 -0.087693
C19   C     C_R   0.608039 0.514626 0.926218 0.266627
C20   C     C_3   0.693833 0.622370 0.920576 -0.512967
C21   C     C_3   0.693795 0.622557 0.079429 -0.490949
C22   C     C_R   0.497897 0.737698 0.500070 0.814999
C23   C     C_R   0.737321 0.498675 0.499898 0.842390
C24   C     C_R   0.129367 0.283166 0.603140 -0.177719
C25   C     C_R   0.064147 0.180653 0.651597 -0.136548
C26   C     C_R   0.934939 0.180676 0.650290 -0.136849
C27   C     C_R   0.870205 0.283357 0.600821 -0.172547
C28   C     C_R   0.934423 0.388796 0.552189 0.043613
Cu1   Cu    Cu3+1 0.499990 0.499980 0.640670 0.935633
Cu2   Cu    Cu3+1 0.500010 0.500020 0.359330 0.944445
H1    H     H_    0.115735 0.672902 0.407338 0.143982
H2    H     H_    0.652577 0.892580 0.728806 0.194221
H3    H     H_    0.506659 0.112313 0.842717 0.198675
H4    H     H_    0.649558 0.113968 0.730390 0.191360
H5    H     H_    0.310266 0.451770 0.128802 0.152034
H6    H     H_    0.310303 0.451666 0.871363 0.151994
H7    H     H_    0.785441 0.597391 0.874625 0.203647
H8    H     H_    0.649429 0.705446 0.874851 0.210609
H9    H     H_    0.785338 0.596972 0.124292 0.205498
H10   H     H_    0.649762 0.706138 0.126164 0.215452
H11   H     H_    0.229676 0.278457 0.603940 0.133328
H12   H     H_    0.114108 0.100526 0.689301 0.132415
H13   H     H_    0.884706 0.100453 0.686893 0.126623
H14   H     H_    0.769952 0.278638 0.599647 0.128907
H15   H     H_    0.470238 0.111754 0.272969 0.167003
H16   H     H_    0.471050 0.886819 0.273261 0.164621
H17   H     H_    0.510211 0.891283 0.842816 0.197557
N1    N     N_R   0.500790 0.500930 0.147930 -0.188561
N2    N     N_R   0.500790 0.500890 0.852020 -0.186545
O1    O     O_R   0.500000 0.319640 0.618810 -0.587347
O2    O     O_R   0.500010 0.319680 0.381230 -0.583330
O3    O     O_R   0.319640 0.499980 0.618820 -0.591659
O4    O     O_R   0.319650 0.500020 0.381230 -0.587859
O5    O     O_R   0.499990 0.680320 0.618770 -0.575120
O6    O     O_R   0.500000 0.680360 0.381190 -0.580148
O7    O     O_R   0.680350 0.499980 0.618770 -0.591168
O8    O     O_R   0.680360 0.500020 0.381180 -0.564518
N3    N     N_3   0.871607 0.702770 0.398045 -0.600848
H18   H     H_    0.898055 0.778079 0.459965 0.213515
H19   H     H_    0.900816 0.720436 0.295735 0.215968

loop_
_geom_bond_atom_site_label_1
_geom_bond_atom_site_label_2
_ccdc_geom_bond_type
C25   H12   S    
C10   H16   S    
Cu2   O2    S    
C15   H4    S    
C9    H15   S    
C14   H17   S    
C20   H7    S    
Cu1   O7    S    
C1    C8    S    
C20   H8    S    
C9    C10   A    
C19   N2    A    
C11   C22   S    
C12   O4    A    
C21   H9    S    
C17   N1    A    
C7    C13   A    
C10   C11   A    
C16   N1    A    
C7    C15   S    
C2    C3    A    
N3    H18   S    
C22   O6    A    
C7    C8    A    
C22   O5    A    
Cu1   N2    S    
C13   C14   S    
C20   C21   S    
C24   H11   S    
C1    O2    A    
C23   O7    A    
C26   C27   A    
C16   C21   S    
C21   H10   S    
C5    N3    S    
C16   C19   A    
C6    C23   S    
C27   H14   S    
Cu2   N1    S    
C12   O3    A    
C26   H13   S    
C17   C18   A    
N3    H19   S    
Cu1   O1    S    
C2    C24   A    
C5    C6    A    
Cu2   O4    S    
C4    H1    S    
Cu1   O5    S    
Cu1   Cu2   S    
C3    C4    A    
Cu2   O8    S    
C11   C13   A    
C24   C25   A    
C1    O1    A    
C27   C28   A    
C23   O8    A    
C14   C15   S    
C4    C5    A    
C2    C28   A    
C3    C12   S    
C17   H5    S    
C25   C26   A    
C18   H6    S    
Cu2   O6    S    
C15   H3    S    
C6    C28   A    
C19   C20   S    
C18   N2    A    
C14   H2    S    
C8    C9    A    
Cu1   O3    S    
