data_mof_unit_39680.cif
_audit_creation_date              2012-12-10T17:57:52-0500
_audit_creation_method            fapswitch 2.2
_symmetry_space_group_name_H-M    P1
_symmetry_Int_Tables_number       1
_space_group_crystal_system       triclinic
_cell_length_a                    10.833311
_cell_length_b                    9.513707
_cell_length_c                    15.078774
_cell_angle_alpha                 89.980875
_cell_angle_beta                  90.12651
_cell_angle_gamma                 89.975763
_cell_volume                      1554.08902405

loop_
_atom_site_label
_atom_site_type_symbol
_atom_type_description
_atom_site_fract_x
_atom_site_fract_y
_atom_site_fract_z
_atom_type_partial_charge
C1    C     C_R   0.262046 0.500016 0.499900 0.780401
C2    C     C_R   0.737954 0.499984 0.500100 0.780401
C3    C     C_R   0.371138 0.285006 0.041543 0.449495
C4    C     C_R   0.628864 0.714993 0.958457 0.449495
C5    C     C_R   0.063903 0.372290 0.498549 -0.178524
C6    C     C_R   0.936097 0.627710 0.501451 -0.178524
C7    C     C_R   0.936199 0.372269 0.498722 -0.173712
C8    C     C_R   0.063800 0.627730 0.501278 -0.173712
C9    C     C_R   0.871789 0.499979 0.500133 -0.020097
C10   C     C_R   0.128211 0.500021 0.499867 -0.020097
C11   C     C_R   0.421841 0.074501 0.445890 -0.002011
C12   C     C_R   0.578159 0.925499 0.554110 -0.002011
C13   C     C_R   0.578148 0.074368 0.554117 -0.016585
C14   C     C_R   0.421852 0.925632 0.445883 -0.016584
C15   C     C_R   0.495809 0.500010 0.328810 0.809553
C16   C     C_R   0.504191 0.499990 0.671190 0.809553
C17   C     C_R   0.577298 0.603911 0.814925 0.395778
C18   C     C_R   0.422703 0.396088 0.185075 0.395776
C19   C     C_R   0.510933 0.499613 0.767849 -0.204615
C20   C     C_R   0.489068 0.500386 0.232151 -0.204615
C21   C     C_R   0.446912 0.394812 0.813093 -0.247321
C22   C     C_R   0.553088 0.605188 0.186907 -0.247321
C23   C     C_R   0.443223 0.393957 0.905077 0.091002
C24   C     C_R   0.556777 0.606043 0.094923 0.091003
C25   C     C_R   0.503229 0.500663 0.953377 -0.067093
C26   C     C_R   0.496771 0.499336 0.046623 -0.067092
C27   C     C_R   0.569934 0.607998 0.908481 0.037695
C28   C     C_R   0.430067 0.392001 0.091519 0.037694
C29   C     C_R   0.378518 0.287797 0.948785 -0.309754
C30   C     C_R   0.621483 0.712202 0.051215 -0.309755
Cu1   Cu    Cu3+1 0.500000 0.640660 0.500000 0.955431
Cu2   Cu    Cu3+1 0.500000 0.359340 0.500000 0.955432
H1    H     H_    0.397384 0.314695 0.776169 0.173013
H2    H     H_    0.602615 0.685305 0.223831 0.173013
H3    H     H_    0.333253 0.206309 0.910379 0.144585
H4    H     H_    0.666749 0.793690 0.089621 0.144585
H5    H     H_    0.111978 0.272444 0.497359 0.151275
H6    H     H_    0.888022 0.727556 0.502641 0.151275
H7    H     H_    0.888204 0.272413 0.497678 0.151719
H8    H     H_    0.111796 0.727587 0.502322 0.151719
H9    H     H_    0.359215 0.130682 0.402581 0.144611
H10   H     H_    0.640785 0.869318 0.597419 0.144610
H11   H     H_    0.640729 0.130459 0.597462 0.129779
H12   H     H_    0.359270 0.869541 0.402538 0.129779
N1    N     N_R   0.500000 0.852070 0.500000 -0.167882
N2    N     N_R   0.500000 0.147930 0.500000 -0.167882
O1    O     O_R   0.319640 0.618740 0.499990 -0.588134
O2    O     O_R   0.680360 0.381260 0.500010 -0.588134
O3    O     O_R   0.680360 0.618740 0.500010 -0.596327
O4    O     O_R   0.319640 0.381260 0.499990 -0.596326
O5    O     O_R   0.499970 0.618800 0.370260 -0.581236
O6    O     O_R   0.500030 0.381200 0.629740 -0.581236
O7    O     O_R   0.500030 0.618800 0.629740 -0.562407
O8    O     O_R   0.499970 0.381200 0.370260 -0.562405
O9    O     O_3   0.651227 0.699869 0.771257 -0.664051
H13   H     H_    0.686286 0.654620 0.717786 0.308989
O10   O     O_3   0.348776 0.300129 0.228743 -0.664050
H14   H     H_    0.313714 0.345381 0.282213 0.308988
O11   O     O_3   0.307898 0.178000 0.083733 -0.661168
H15   H     H_    0.273202 0.112602 0.038955 0.317590
O12   O     O_3   0.692104 0.821998 0.916267 -0.661168
H16   H     H_    0.726801 0.887395 0.961045 0.317590

loop_
_geom_bond_atom_site_label_1
_geom_bond_atom_site_label_2
_ccdc_geom_bond_type
O11   H15   S    
O9    H13   S    
C6    H6    S    
C14   H12   S    
C15   O5    A    
C2    O3    A    
C5    H5    S    
C25   C27   A    
C1    O4    A    
C17   O9    S    
C18   O10   S    
C26   C28   A    
Cu1   Cu2   S    
C30   H4    S    
C6    C9    A    
C21   C23   A    
C4    C30   A    
C5    C10   A    
Cu1   O1    S    
Cu1   O7    S    
Cu2   O2    S    
C24   C26   A    
Cu2   O4    S    
O10   H14   S    
C15   C20   S    
Cu1   O3    S    
C16   C19   S    
C6    C8    A    
C23   C29   A    
C7    H7    S    
C8    C10   A    
C3    C28   A    
C19   C21   A    
C20   C22   A    
C11   H9    S    
C14   N1    A    
C18   C20   A    
C23   C25   A    
O12   H16   S    
C22   H2    S    
C11   C14   A    
C22   C24   A    
C24   C30   A    
C21   H1    S    
C17   C19   A    
C17   C27   A    
C15   O8    A    
C7    C9    A    
C13   H11   S    
C4    C27   A    
C18   C28   A    
C12   C13   A    
C5    C7    A    
Cu1   N1    S    
Cu2   O8    S    
C3    C29   A    
C29   H3    S    
C13   N2    A    
C1    O1    A    
C11   N2    A    
C12   H10   S    
C8    H8    S    
C2    O2    A    
C25   C26   A    
C16   O7    A    
C2    C9    S    
Cu2   N2    S    
C4    O12   S    
Cu2   O6    S    
C1    C10   S    
C16   O6    A    
Cu1   O5    S    
C12   N1    A    
C3    O11   S    
