data_mof_unit_14201.cif
_audit_creation_date              2013-03-05T15:49:17-0500
_audit_creation_method            fapswitch 2.2
_symmetry_space_group_name_H-M    P1
_symmetry_Int_Tables_number       1
_space_group_crystal_system       triclinic
_cell_length_a                    10.630868
_cell_length_b                    12.016049
_cell_length_c                    12.871681
_cell_angle_alpha                 93.221081
_cell_angle_beta                  90.185635
_cell_angle_gamma                 86.132036
_cell_volume                      1637.90449184

loop_
_atom_site_label
_atom_site_type_symbol
_atom_site_description
_atom_site_fract_x
_atom_site_fract_y
_atom_site_fract_z
_atom_type_partial_charge
O1    O     O_R   0.506170 0.421690 0.658830 -0.578607
O2    O     O_R   0.491330 0.609320 0.646410 -0.636182
C1    C     C_R   0.498017 0.522024 0.700341 0.916830
O3    O     O_R   0.690660 0.406170 0.506210 -0.577705
O4    O     O_R   0.675810 0.593790 0.493790 -0.625667
C2    C     C_R   0.739497 0.499643 0.496818 0.878880
Zn1   Zn    Zn3+2 0.509910 0.374720 0.508290 0.992905
Zn2   Zn    Zn3+2 0.490090 0.625280 0.491710 0.954142
O5    O     O_R   0.508670 0.390680 0.353590 -0.643973
O6    O     O_R   0.493830 0.578310 0.341170 -0.625519
O7    O     O_R   0.324190 0.406210 0.506210 -0.620349
O8    O     O_R   0.309340 0.593830 0.493790 -0.618179
C3    C     C_R   0.502822 0.478049 0.299681 0.844280
C4    C     C_R   0.260536 0.499502 0.496964 0.865283
H1    H     H_    0.877384 0.617742 0.621892 0.169356
C5    C     C_R   0.878178 0.370683 0.331458 -0.157345
H2    H     H_    0.776643 0.370813 0.326679 0.145252
C6    C     C_R   0.948385 0.308151 0.254623 -0.107416
H3    H     H_    0.900964 0.260698 0.194122 0.152395
C7    C     C_R   0.079296 0.307947 0.254793 -0.134089
H4    H     H_    0.133597 0.260336 0.194446 0.141097
C8    C     C_R   0.140466 0.370293 0.331786 -0.188771
H5    H     H_    0.241990 0.370115 0.327241 0.141083
C9    C     C_R   0.070745 0.432974 0.411207 0.105164
C10   C     C_R   0.938846 0.433188 0.411041 0.105426
C11   C     C_R   0.871736 0.499065 0.489396 -0.084920
C12   C     C_R   0.930888 0.566680 0.563039 -0.155328
H6    H     H_    0.105512 0.617367 0.622182 0.165766
C13   C     C_R   0.059369 0.566433 0.563221 -0.181469
C14   C     C_R   0.128338 0.498621 0.489731 -0.101697
C15   C     C_R   0.504363 0.464953 0.188427 -0.052276
C16   C     C_R   0.500236 0.535851 0.811578 -0.106843
C17   C     C_R   0.545548 0.645845 0.968394 0.181058
C18   C     C_R   0.533899 0.636202 0.860659 -0.190834
C19   C     C_R   0.474628 0.445004 0.868353 -0.211280
C20   C     C_R   0.486390 0.451794 0.974731 0.135478
C21   C     C_R   0.522388 0.552325 0.025854 0.152016
C22   C     C_R   0.532603 0.556591 0.133088 -0.259944
C23   C     C_R   0.471512 0.365343 0.137587 -0.212774
C24   C     C_R   0.462714 0.358718 0.030381 -0.166670
H7    H     H_    0.560485 0.631790 0.174626 0.177800
H8    H     H_    0.449432 0.294198 0.180632 0.156862
H9    H     H_    0.435681 0.281750 0.991143 0.153647
H10   H     H_    0.553813 0.705920 0.814798 0.173686
H11   H     H_    0.446604 0.368014 0.829551 0.184870
N1    N     N_R   0.523130 0.207800 0.519340 -0.173744
N2    N     N_R   0.476870 0.792180 0.480660 -0.116307
C25   C     C_R   0.374711 0.956263 0.410491 -0.252460
C26   C     C_R   0.387564 0.839887 0.417864 0.031530
C27   C     C_R   0.556241 0.856535 0.536997 0.034277
C28   C     C_R   0.548736 0.974277 0.530951 -0.089244
C29   C     C_R   0.455169 0.024654 0.467642 0.055692
C30   C     C_R   0.444275 0.142289 0.463087 -0.124230
C31   C     C_R   0.615194 0.160093 0.580834 0.349099
C32   C     C_R   0.630380 0.042852 0.587404 0.134383
H12   H     H_    0.373218 0.181749 0.414248 0.153940
H13   H     H_    0.302331 0.992372 0.360726 0.147754
H14   H     H_    0.325311 0.787475 0.373779 0.138091
H15   H     H_    0.624112 0.815251 0.587149 0.167514
N3    N     N_R   0.701315 0.228598 0.635353 0.252381
O9    O     O_R   0.817304 0.226462 0.602970 -0.348984
O10   O     O_R   0.675354 0.265626 0.730239 -0.361979
N4    N     N_R   0.730021 0.994793 0.649696 0.218253
O11   O     O_R   0.739529 0.026141 0.747630 -0.334751
O12   O     O_R   0.816817 0.925733 0.606825 -0.388081
C33   C     C_3   0.583030 0.755051 0.019173 -0.894718
H16   H     H_    0.596753 0.818172 0.961115 0.259925
H17   H     H_    0.508142 0.790016 0.073972 0.239247
H18   H     H_    0.673160 0.741408 0.061895 0.246968

loop_
_geom_bond_atom_site_label_1
_geom_bond_atom_site_label_2
_geom_bond_distance
_ccdc_geom_bond_type
O4    Zn2   1.985450 S    
C33   H17   1.110437 S    
N4    O12   1.301186 A    
C16   C18   1.397261 A    
C21   C22   1.382556 A    
C5    C10   1.415621 A    
N2    C27   1.362663 A    
C16   C19   1.389536 A    
C28   C32   1.409050 A    
C19   C20   1.372912 A    
C15   C22   1.394309 A    
C25   C29   1.403899 A    
C17   C21   1.415042 A    
Zn2   O8    1.983743 S    
C7    H4    1.082731 S    
N1    C31   1.372342 A    
C33   H16   1.111012 S    
C2    C11   1.408889 S    
Zn2   N2    2.013908 S    
C25   H13   1.083351 S    
N2    C26   1.362703 A    
C5    C6    1.394763 A    
C31   N3    1.428579 S    
C29   C30   1.414932 A    
Zn1   O7    1.985451 S    
C11   C12   1.390177 A    
C13   C14   1.390541 A    
C32   N4    1.436113 S    
C20   C21   1.417780 A    
C4    C14   1.408870 S    
O3    Zn1   1.983746 S    
O4    C2    1.281071 A    
C27   H15   1.080780 S    
N1    C30   1.366642 A    
O3    C2    1.280637 A    
C25   C26   1.404344 A    
O8    C4    1.280721 A    
C17   C33   1.510101 S    
C17   C18   1.390884 A    
C23   H8    1.083536 S    
C6    C7    1.391529 A    
C8    H5    1.080920 S    
C1    C16   1.432414 S    
Zn2   O6    1.987307 S    
O7    C4    1.280958 A    
C8    C9    1.415905 A    
C9    C14   1.410755 A    
C12   C13   1.365665 A    
C7    C8    1.394403 A    
C28   C29   1.410272 A    
C33   H18   1.110345 S    
Zn1   N1    2.014146 S    
C20   C24   1.398738 A    
C18   H10   1.084158 S    
C9    C10   1.402032 A    
C22   H7    1.082133 S    
N3    O10   1.300140 A    
C6    H3    1.082609 S    
C30   H12   1.082922 S    
C23   C24   1.380972 A    
Zn1   O5    2.011075 S    
O5    C3    1.288526 A    
C31   C32   1.414382 A    
H6    C13   1.084924 S    
O2    C1    1.287905 A    
C27   C28   1.418160 A    
C10   C11   1.411218 A    
O1    Zn1   1.987306 S    
H1    C12   1.085051 S    
C3    C15   1.431844 S    
C24   H9    1.084188 S    
O2    Zn2   2.011076 S    
C26   H14   1.081788 S    
N4    O11   1.300818 A    
C5    H2    1.080863 S    
C15   C23   1.396332 A    
N3    O9    1.301042 A    
O1    C1    1.288537 A    
O6    C3    1.287721 A    
C19   H11   1.085513 S    
