data_mof_unit_51332.cif
_audit_creation_date              2012-12-11T14:08:18-0500
_audit_creation_method            fapswitch 2.2
_symmetry_space_group_name_H-M    P1
_symmetry_Int_Tables_number       1
_space_group_crystal_system       triclinic
_cell_length_a                    27.76971
_cell_length_b                    27.789873
_cell_length_c                    27.836372
_cell_angle_alpha                 90.255215
_cell_angle_beta                  90.236512
_cell_angle_gamma                 89.895214
_cell_volume                      21481.3621955

loop_
_atom_site_label
_atom_site_type_symbol
_atom_type_description
_atom_site_fract_x
_atom_site_fract_y
_atom_site_fract_z
_atom_type_partial_charge
C1    C     C_R   0.024645 0.085005 0.025793 0.065574
C2    C     C_R   0.024412 0.024676 0.085245 0.065532
C3    C     C_R   0.084613 0.024680 0.025582 0.065674
C4    C     C_R   0.897211 0.706641 0.191078 -0.011299
C5    C     C_R   0.202616 0.904823 0.698740 0.000316
C6    C     C_R   0.705839 0.192178 0.897108 -0.008304
C7    C     C_R   0.902903 0.201872 0.697249 -0.033031
C8    C     C_R   0.179464 0.718384 0.883717 -0.032120
C9    C     C_R   0.710465 0.891301 0.185951 -0.030672
C10   C     C_R   0.696113 0.694323 0.209418 -0.072575
C11   C     C_R   0.211127 0.694647 0.694168 -0.074825
C12   C     C_R   0.694553 0.208404 0.696772 -0.072954
C13   C     C_R   0.907836 0.907302 0.208402 0.035147
C14   C     C_R   0.208738 0.908374 0.907562 0.034965
C15   C     C_R   0.907261 0.208654 0.908632 0.035259
C16   C     C_R   0.916336 0.861058 0.381102 -0.137874
C17   C     C_R   0.397469 0.902729 0.847206 -0.133146
C18   C     C_R   0.849082 0.395219 0.905942 -0.139754
C19   C     C_R   0.904021 0.396707 0.850273 -0.142398
C20   C     C_R   0.398778 0.846743 0.901288 -0.139245
C21   C     C_R   0.860643 0.916313 0.381081 -0.133124
C22   C     C_R   0.688106 0.743407 0.382504 -0.145217
C23   C     C_R   0.385616 0.689632 0.745089 -0.147750
C24   C     C_R   0.743517 0.382005 0.687931 -0.156494
C25   C     C_R   0.687038 0.380874 0.742876 -0.128829
C26   C     C_R   0.384193 0.745031 0.688941 -0.134847
C27   C     C_R   0.743753 0.687282 0.380947 -0.129262
C28   C     C_R   0.860337 0.687194 0.381144 -0.165248
C29   C     C_R   0.379045 0.860521 0.686261 -0.169416
C30   C     C_R   0.686054 0.379026 0.860630 -0.167188
C31   C     C_R   0.859132 0.380325 0.686574 -0.176864
C32   C     C_R   0.378855 0.685890 0.860560 -0.180349
C33   C     C_R   0.686373 0.860131 0.379823 -0.165941
C34   C     C_R   0.740614 0.916605 0.379680 0.047284
C35   C     C_R   0.375725 0.738909 0.918046 0.031940
C36   C     C_R   0.917006 0.378321 0.739290 0.043978
C37   C     C_R   0.739138 0.375077 0.918300 0.038135
C38   C     C_R   0.375781 0.918017 0.739380 0.033529
C39   C     C_R   0.916578 0.742248 0.380568 0.046734
C40   C     C_R   0.905038 0.905474 0.399497 0.053058
C41   C     C_R   0.427114 0.881575 0.880589 0.064578
C42   C     C_R   0.885848 0.422080 0.888361 0.055372
C43   C     C_R   0.698936 0.697856 0.399257 0.037952
C44   C     C_R   0.404639 0.701462 0.700909 0.039595
C45   C     C_R   0.698064 0.399200 0.698130 0.038364
C46   C     C_R   0.905493 0.697823 0.399075 0.018083
C47   C     C_R   0.393383 0.907193 0.694411 0.015071
C48   C     C_R   0.693886 0.392726 0.907617 0.020664
C49   C     C_R   0.904965 0.396421 0.694688 0.019766
C50   C     C_R   0.393166 0.693606 0.907250 0.021651
C51   C     C_R   0.695045 0.905958 0.396380 0.002655
C52   C     C_R   0.954274 0.140767 0.016906 -0.166837
C53   C     C_R   0.015969 0.954642 0.140870 -0.166574
C54   C     C_R   0.140653 0.016457 0.955755 -0.166296
C55   C     C_R   0.952700 0.014565 0.138406 -0.164725
C56   C     C_R   0.015033 0.139189 0.954867 -0.164120
C57   C     C_R   0.138249 0.953004 0.014936 -0.164064
C58   C     C_R   0.662438 0.930835 0.990463 0.090144
C59   C     C_R   0.980290 0.682496 0.919706 0.093966
C60   C     C_R   0.027419 0.091703 0.574541 0.088608
C61   C     C_R   0.660806 0.994971 0.932616 0.089757
C62   C     C_R   0.085073 0.025728 0.578383 0.093554
C63   C     C_R   0.927564 0.679827 0.989212 0.087901
C64   C     C_R   0.617965 0.919587 0.914853 0.113893
C65   C     C_R   0.919167 0.620938 0.925699 0.103108
C66   C     C_R   0.024660 0.028058 0.514951 0.097767
C67   C     C_R   0.676521 0.976325 0.976036 -0.220581
C68   C     C_R   0.965100 0.701535 0.963923 -0.220202
C69   C     C_R   0.067914 0.070066 0.595487 -0.229499
C70   C     C_R   0.631787 0.966979 0.902277 -0.225461
C71   C     C_R   0.903942 0.640048 0.969371 -0.226608
C72   C     C_R   0.063519 0.005171 0.537612 -0.236581
C73   C     C_R   0.633011 0.902890 0.960568 -0.227867
C74   C     C_R   0.008403 0.072728 0.531950 -0.229421
C75   C     C_R   0.954804 0.644020 0.899270 -0.246148
C76   C     C_R   0.722196 0.922983 0.056094 -0.182674
C77   C     C_R   0.048170 0.740175 0.908215 -0.182346
C78   C     C_R   0.982120 0.103512 0.649741 -0.173682
C79   C     C_R   0.718334 0.063080 0.931575 -0.186462
C80   C     C_R   0.110043 0.994838 0.658702 -0.182630
C81   C     C_R   0.873432 0.692775 0.058743 -0.185965
C82   C     C_R   0.733087 0.916677 0.104302 -0.171536
C83   C     C_R   0.097256 0.748112 0.902393 -0.173571
C84   C     C_R   0.950582 0.129148 0.678746 -0.198656
C85   C     C_R   0.728334 0.111629 0.926388 -0.155399
C86   C     C_R   0.137811 0.964877 0.687552 -0.164818
C87   C     C_R   0.866406 0.696921 0.107929 -0.161211
C88   C     C_R   0.697116 0.902617 0.136416 0.142695
C89   C     C_R   0.128022 0.709742 0.890679 0.140718
C90   C     C_R   0.933128 0.173948 0.664007 0.146309
C91   C     C_R   0.692342 0.143316 0.910718 0.141263
C92   C     C_R   0.173257 0.935456 0.667164 0.132669
C93   C     C_R   0.906008 0.699418 0.139546 0.151778
C94   C     C_R   0.650257 0.893859 0.119539 -0.173598
C95   C     C_R   0.108959 0.663990 0.882290 -0.172742
C96   C     C_R   0.945680 0.191862 0.618630 -0.170369
C97   C     C_R   0.645974 0.125901 0.900710 -0.187473
C98   C     C_R   0.180501 0.936126 0.617290 -0.184703
C99   C     C_R   0.952778 0.698453 0.120953 -0.188259
C100  C     C_R   0.639178 0.900695 0.071172 -0.176706
C101  C     C_R   0.060047 0.655940 0.888368 -0.179315
C102  C     C_R   0.977065 0.165708 0.589053 -0.183677
C103  C     C_R   0.635716 0.077202 0.906593 -0.170350
C104  C     C_R   0.152850 0.966527 0.588273 -0.176044
C105  C     C_R   0.959815 0.693991 0.071626 -0.177993
C106  C     C_R   0.675054 0.915830 0.039342 0.134976
C107  C     C_R   0.029275 0.693671 0.902721 0.138886
C108  C     C_R   0.996297 0.121859 0.605049 0.130822
C109  C     C_R   0.671957 0.045471 0.921952 0.135938
C110  C     C_R   0.117414 0.996283 0.608777 0.135483
C111  C     C_R   0.920145 0.690952 0.040246 0.137415
C112  C     C_R   0.925480 0.170352 0.988280 -0.177739
C113  C     C_R   0.987527 0.925864 0.170316 -0.176756
C114  C     C_R   0.170321 0.988082 0.926771 -0.175897
C115  C     C_R   0.924226 0.985771 0.167758 -0.180567
C116  C     C_R   0.986227 0.168662 0.926213 -0.178967
C117  C     C_R   0.167835 0.924618 0.985951 -0.181310
C118  C     C_R   0.558229 0.851199 0.905225 0.133027
C119  C     C_R   0.868156 0.555562 0.890675 0.127847
C120  C     C_R   0.948567 0.981777 0.501959 0.131282
C121  C     C_R   0.555067 0.916021 0.848765 0.134052
C122  C     C_R   0.008708 0.985283 0.436766 0.129869
C123  C     C_R   0.943141 0.535160 0.933996 0.125102
C124  C     C_R   0.507795 0.850236 0.906850 -0.223590
C125  C     C_R   0.860490 0.506586 0.882441 -0.227560
C126  C     C_R   0.919882 0.952416 0.472570 -0.208806
C127  C     C_R   0.504750 0.915961 0.850809 -0.221894
C128  C     C_R   0.979719 0.953638 0.409637 -0.212980
C129  C     C_R   0.934815 0.486488 0.923684 -0.215666
C130  C     C_R   0.480420 0.884689 0.881930 0.091337
C131  C     C_R   0.893933 0.472611 0.898346 0.078119
C132  C     C_R   0.935691 0.937772 0.427465 0.068731
C133  C     C_R   0.581118 0.892037 0.885365 0.003497
C134  C     C_R   0.909925 0.569949 0.916024 -0.005806
C135  C     C_R   0.993065 0.999017 0.483394 -0.020730
C136  C     C_R   0.028282 0.579334 0.516286 0.101509
C137  C     C_R   0.512865 0.026451 0.576192 0.108677
C138  C     C_R   0.574857 0.512513 0.027478 0.109295
C139  C     C_R   0.022814 0.516165 0.576192 0.112933
C140  C     C_R   0.512868 0.574358 0.026238 0.111376
C141  C     C_R   0.574502 0.025159 0.514455 0.110063
C142  C     C_R   0.089692 0.572569 0.578594 0.071510
C143  C     C_R   0.577741 0.085192 0.578164 0.068804
C144  C     C_R   0.576943 0.577982 0.085925 0.068231
C145  C     C_R   0.072353 0.594105 0.536471 -0.197544
C146  C     C_R   0.535498 0.066166 0.597945 -0.203880
C147  C     C_R   0.596776 0.535460 0.066984 -0.203602
C148  C     C_R   0.065426 0.532787 0.597585 -0.210778
C149  C     C_R   0.535033 0.597315 0.065327 -0.206792
C150  C     C_R   0.597143 0.064513 0.536470 -0.205631
C151  C     C_R   0.004735 0.539237 0.535341 -0.242488
C152  C     C_R   0.531203 0.007989 0.533087 -0.246870
C153  C     C_R   0.531504 0.530820 0.009233 -0.247611
C154  C     C_R   0.994901 0.660234 0.493352 0.030365
C155  C     C_R   0.437841 0.016744 0.626650 0.027062
C156  C     C_R   0.626097 0.437532 0.017573 0.026285
C157  C     C_R   0.009106 0.436849 0.617204 0.030640
C158  C     C_R   0.436019 0.621392 0.014927 0.026717
C159  C     C_R   0.622001 0.013629 0.438260 0.032950
C160  C     C_R   0.964223 0.687973 0.464795 -0.220832
C161  C     C_R   0.408756 0.987219 0.655316 -0.237165
C162  C     C_R   0.654907 0.408316 0.987906 -0.234360
C163  C     C_R   0.979994 0.407725 0.646098 -0.225790
C164  C     C_R   0.406847 0.650333 0.985541 -0.218492
C165  C     C_R   0.651413 0.984136 0.409645 -0.238523
C166  C     C_R   0.940511 0.183538 0.941997 0.144522
C167  C     C_R   0.940750 0.940465 0.183004 0.143000
C168  C     C_R   0.183142 0.941265 0.940901 0.144895
C169  C     C_R   0.938429 0.667185 0.426782 0.146348
C170  C     C_R   0.419887 0.938208 0.661056 0.137579
C171  C     C_R   0.660040 0.418926 0.938843 0.135369
C172  C     C_R   0.934545 0.423978 0.661024 0.142185
C173  C     C_R   0.420060 0.659742 0.937808 0.139087
C174  C     C_R   0.661272 0.936507 0.423293 0.135527
C175  C     C_R   0.944433 0.618280 0.416225 -0.175929
C176  C     C_R   0.459202 0.918523 0.636718 -0.173247
C177  C     C_R   0.634643 0.457639 0.919253 -0.173806
C178  C     C_R   0.916933 0.468010 0.644318 -0.171560
C179  C     C_R   0.461209 0.637800 0.918857 -0.172904
C180  C     C_R   0.639082 0.917515 0.463965 -0.166922
C181  C     C_R   0.976117 0.590425 0.443695 -0.209038
C182  C     C_R   0.488311 0.947521 0.608681 -0.207248
C183  C     C_R   0.606473 0.486857 0.948367 -0.206454
C184  C     C_R   0.945422 0.496916 0.615375 -0.212781
C185  C     C_R   0.490137 0.608917 0.947671 -0.208353
C186  C     C_R   0.609654 0.946391 0.492298 -0.211766
C187  C     C_R   0.001386 0.610847 0.482724 0.110419
C188  C     C_R   0.478369 0.996876 0.603556 0.117945
C189  C     C_R   0.602197 0.477652 0.997810 0.115602
C190  C     C_R   0.991983 0.482139 0.602368 0.108439
C191  C     C_R   0.478341 0.601059 0.996033 0.110161
C192  C     C_R   0.601516 0.994806 0.480307 0.111537
C193  C     C_R   0.169245 0.613899 0.591287 -0.183877
C194  C     C_R   0.592754 0.165965 0.615706 -0.180146
C195  C     C_R   0.616484 0.591797 0.165983 -0.179732
C196  C     C_R   0.109786 0.614394 0.654738 -0.171878
C197  C     C_R   0.622986 0.652188 0.103774 -0.177534
C198  C     C_R   0.650728 0.101532 0.626624 -0.177631
C199  C     C_R   0.198870 0.643948 0.619101 -0.191387
C200  C     C_R   0.621340 0.196289 0.644261 -0.197495
C201  C     C_R   0.645025 0.620262 0.196459 -0.200969
C202  C     C_R   0.138673 0.645172 0.681793 -0.177863
C203  C     C_R   0.652243 0.679899 0.133675 -0.181239
C204  C     C_R   0.678561 0.131350 0.655822 -0.180495
C205  C     C_R   0.182783 0.661269 0.663784 0.141300
C206  C     C_R   0.663674 0.178531 0.665559 0.144368
C207  C     C_R   0.664330 0.663726 0.179750 0.148842
C208  C     C_R   0.124355 0.599185 0.608920 0.135627
C209  C     C_R   0.607443 0.118431 0.606830 0.131578
C210  C     C_R   0.605448 0.607688 0.119432 0.133924
C211  C     C_R   0.577775 0.574995 0.511667 0.096528
C212  C     C_R   0.522283 0.582564 0.578953 0.093715
C213  C     C_R   0.578595 0.515271 0.575475 0.095508
C214  C     C_R   0.593882 0.530961 0.530235 -0.231252
C215  C     C_R   0.539978 0.599098 0.534854 -0.218327
C216  C     C_R   0.541895 0.540637 0.599025 -0.220647
C217  C     C_R   0.998643 0.123522 0.999833 0.143753
C218  C     C_R   0.998250 0.998597 0.123305 0.143972
C219  C     C_R   0.122992 0.998604 0.999428 0.143662
C220  C     C_R   0.658309 0.598054 0.479832 -0.169380
C221  C     C_R   0.495254 0.663382 0.608519 -0.174328
C222  C     C_R   0.587143 0.449186 0.636499 -0.179014
C223  C     C_R   0.658559 0.482052 0.599314 -0.170662
C224  C     C_R   0.455020 0.592115 0.638103 -0.178790
C225  C     C_R   0.587434 0.635022 0.444720 -0.180631
C226  C     C_R   0.687557 0.628759 0.453704 -0.174320
C227  C     C_R   0.467014 0.691994 0.638368 -0.175671
C228  C     C_R   0.616190 0.422263 0.667538 -0.174123
C229  C     C_R   0.687368 0.454801 0.629722 -0.170604
C230  C     C_R   0.427509 0.620768 0.668817 -0.173846
C231  C     C_R   0.616908 0.666497 0.419137 -0.172852
C232  C     C_R   0.667165 0.664028 0.424201 0.138431
C233  C     C_R   0.433503 0.670855 0.669138 0.140199
C234  C     C_R   0.666549 0.425450 0.664701 0.139630
C235  C     C_R   0.607799 0.601260 0.476430 0.135021
C236  C     C_R   0.489599 0.613074 0.607991 0.135898
C237  C     C_R   0.608086 0.480117 0.602655 0.136836
C238  C     C_R   0.913771 0.745383 0.217911 0.187184
C239  C     C_R   0.224518 0.917357 0.741673 0.159054
C240  C     C_R   0.744990 0.218151 0.913673 0.162651
C241  C     C_R   0.914894 0.218904 0.742440 0.182250
C242  C     C_R   0.207525 0.752882 0.905527 0.182453
C243  C     C_R   0.748389 0.909886 0.212256 0.176533
C244  C     C_R   0.695713 0.851598 0.210324 -0.173842
C245  C     C_R   0.206493 0.700363 0.847187 -0.172431
C246  C     C_R   0.860462 0.223630 0.686582 -0.183962
C247  C     C_R   0.693174 0.213396 0.854597 -0.198621
C248  C     C_R   0.220670 0.860091 0.688256 -0.196718
C249  C     C_R   0.854978 0.693504 0.213080 -0.219465
C250  C     C_R   0.741139 0.684478 0.227672 0.125942
C251  C     C_R   0.228025 0.740252 0.684531 0.144937
C252  C     C_R   0.684545 0.227553 0.741216 0.129638
C253  C     C_R   0.740211 0.224498 0.686125 0.132837
C254  C     C_R   0.227642 0.684723 0.739627 0.109635
C255  C     C_R   0.685303 0.739810 0.226059 0.118020
C256  C     C_R   0.863287 0.917738 0.227160 -0.153331
C257  C     C_R   0.228168 0.864163 0.917941 -0.157364
C258  C     C_R   0.917750 0.227423 0.864329 -0.154009
C259  C     C_R   0.861141 0.224025 0.917063 -0.134438
C260  C     C_R   0.223074 0.916759 0.861136 -0.131083
C261  C     C_R   0.916785 0.861097 0.223560 -0.128427
H1    H     H_    0.890696 0.181094 0.001961 0.107834
H2    H     H_    0.001839 0.891484 0.181500 0.108422
H3    H     H_    0.181627 0.002480 0.892629 0.108221
H4    H     H_    0.888432 0.998321 0.176578 0.107592
H5    H     H_    0.999076 0.177727 0.890780 0.107901
H6    H     H_    0.176757 0.888777 0.998128 0.108249
H7    H     H_    0.696983 0.998870 0.000581 0.119785
H8    H     H_    0.985610 0.729866 0.981256 0.113981
H9    H     H_    0.082247 0.084969 0.628624 0.117136
H10   H     H_    0.618685 0.984188 0.870379 0.113703
H11   H     H_    0.878405 0.619972 0.990751 0.115535
H12   H     H_    0.073243 0.968959 0.526682 0.118707
H13   H     H_    0.620480 0.869498 0.975156 0.114765
H14   H     H_    0.976004 0.088335 0.516670 0.116436
H15   H     H_    0.967182 0.627528 0.866186 0.119657
H16   H     H_    0.769900 0.921775 0.116229 0.120240
H17   H     H_    0.111157 0.784228 0.906998 0.121894
H18   H     H_    0.940330 0.114424 0.713199 0.122981
H19   H     H_    0.764836 0.123906 0.932536 0.114234
H20   H     H_    0.131076 0.964082 0.725838 0.115089
H21   H     H_    0.829803 0.698842 0.121089 0.118205
H22   H     H_    0.622239 0.882256 0.143811 0.112829
H23   H     H_    0.132102 0.634149 0.872428 0.112726
H24   H     H_    0.931967 0.226292 0.606607 0.113678
H25   H     H_    0.617955 0.149849 0.887911 0.120855
H26   H     H_    0.207971 0.913841 0.600916 0.116264
H27   H     H_    0.983919 0.700132 0.144227 0.123149
H28   H     H_    0.750389 0.934382 0.031896 0.118944
H29   H     H_    0.025241 0.770050 0.918415 0.118556
H30   H     H_    0.994973 0.068788 0.661930 0.118781
H31   H     H_    0.746954 0.039125 0.942999 0.117486
H32   H     H_    0.081803 0.015831 0.675468 0.111068
H33   H     H_    0.842414 0.690370 0.035119 0.119598
H34   H     H_    0.602410 0.895803 0.058993 0.117756
H35   H     H_    0.047129 0.619517 0.884096 0.108187
H36   H     H_    0.986652 0.179710 0.554140 0.117851
H37   H     H_    0.599444 0.064518 0.899886 0.116575
H38   H     H_    0.159048 0.966771 0.549890 0.115583
H39   H     H_    0.996269 0.691228 0.058198 0.119227
H40   H     H_    0.490562 0.821059 0.925628 0.122496
H41   H     H_    0.828625 0.494830 0.863054 0.136923
H42   H     H_    0.885410 0.939298 0.484716 0.122217
H43   H     H_    0.485299 0.938567 0.825946 0.116411
H44   H     H_    0.990366 0.941445 0.374311 0.117373
H45   H     H_    0.959264 0.458665 0.935666 0.119758
H46   H     H_    0.090172 0.625838 0.522758 0.121967
H47   H     H_    0.523426 0.078925 0.632728 0.121178
H48   H     H_    0.631684 0.523355 0.079663 0.121411
H49   H     H_    0.077260 0.517657 0.631486 0.119912
H50   H     H_    0.522209 0.632308 0.077040 0.121210
H51   H     H_    0.632063 0.076261 0.523833 0.121119
H52   H     H_    0.940647 0.129638 0.051508 0.118174
H53   H     H_    0.051046 0.941372 0.130226 0.118301
H54   H     H_    0.129897 0.051589 0.942846 0.118303
H55   H     H_    0.937936 0.048311 0.125718 0.118245
H56   H     H_    0.049102 0.126755 0.940611 0.118496
H57   H     H_    0.125494 0.938142 0.048442 0.118605
H58   H     H_    0.969897 0.528617 0.521171 0.121272
H59   H     H_    0.514663 0.976496 0.516890 0.122938
H60   H     H_    0.515070 0.514009 0.977997 0.123050
H61   H     H_    0.958979 0.725628 0.473707 0.116473
H62   H     H_    0.377580 0.002730 0.672706 0.135122
H63   H     H_    0.672860 0.377456 0.003384 0.134532
H64   H     H_    0.992886 0.372467 0.656202 0.111085
H65   H     H_    0.373896 0.664600 0.000237 0.114067
H66   H     H_    0.665772 0.998489 0.376693 0.114169
H67   H     H_    0.924853 0.601788 0.386747 0.115877
H68   H     H_    0.468660 0.880934 0.641030 0.118184
H69   H     H_    0.638311 0.466671 0.881616 0.121867
H70   H     H_    0.881680 0.480780 0.655086 0.122683
H71   H     H_    0.472003 0.644513 0.882127 0.123277
H72   H     H_    0.645898 0.880699 0.474753 0.122671
H73   H     H_    0.980012 0.552527 0.435294 0.126614
H74   H     H_    0.519780 0.931496 0.592156 0.120234
H75   H     H_    0.589263 0.517927 0.932319 0.122200
H76   H     H_    0.931735 0.531772 0.604543 0.130232
H77   H     H_    0.522879 0.594042 0.932586 0.124206
H78   H     H_    0.594578 0.931318 0.524753 0.123033
H79   H     H_    0.233781 0.653842 0.605396 0.121305
H80   H     H_    0.610195 0.233168 0.650152 0.121712
H81   H     H_    0.652496 0.608093 0.232594 0.122140
H82   H     H_    0.126094 0.657344 0.716601 0.120307
H83   H     H_    0.666099 0.713820 0.120609 0.119765
H84   H     H_    0.711624 0.117471 0.671297 0.122885
H85   H     H_    0.181087 0.602397 0.556034 0.120768
H86   H     H_    0.559532 0.179513 0.600338 0.123523
H87   H     H_    0.602819 0.557684 0.178670 0.123354
H88   H     H_    0.075025 0.604011 0.668821 0.121202
H89   H     H_    0.614836 0.664964 0.067923 0.120349
H90   H     H_    0.662489 0.064888 0.620114 0.123638
H91   H     H_    0.622181 0.511456 0.511836 0.111425
H92   H     H_    0.527116 0.633008 0.520802 0.108424
H93   H     H_    0.531968 0.530553 0.635178 0.114067
H94   H     H_    0.726237 0.626306 0.458305 0.114318
H95   H     H_    0.472318 0.730611 0.638428 0.113547
H96   H     H_    0.599267 0.399241 0.693770 0.107430
H97   H     H_    0.726102 0.458322 0.627120 0.112708
H98   H     H_    0.401184 0.603856 0.691812 0.112979
H99   H     H_    0.600412 0.692816 0.395666 0.111450
H100  H     H_    0.675587 0.573731 0.504809 0.109366
H101  H     H_    0.522539 0.680737 0.587067 0.116384
H102  H     H_    0.548383 0.446722 0.639728 0.112471
H103  H     H_    0.676137 0.506537 0.574895 0.109197
H104  H     H_    0.449513 0.553551 0.638159 0.114182
H105  H     H_    0.548757 0.638075 0.440755 0.114320
H106  H     H_    0.666576 0.829417 0.199554 0.133144
H107  H     H_    0.194040 0.673513 0.822977 0.130337
H108  H     H_    0.848372 0.229033 0.650598 0.133772
H109  H     H_    0.663810 0.202548 0.832548 0.148387
H110  H     H_    0.219049 0.844327 0.653432 0.138427
H111  H     H_    0.832955 0.664317 0.201812 0.151365
H112  H     H_    0.851455 0.953690 0.234710 0.115905
H113  H     H_    0.236512 0.852813 0.953812 0.116980
H114  H     H_    0.953847 0.235647 0.854242 0.119870
H115  H     H_    0.844812 0.224419 0.951713 0.086369
H116  H     H_    0.220504 0.950910 0.843924 0.086493
H117  H     H_    0.951335 0.844164 0.222317 0.086015
H118  H     H_    0.951879 0.845954 0.381108 0.090719
H119  H     H_    0.408040 0.931110 0.824091 0.092088
H120  H     H_    0.826242 0.406058 0.934940 0.103722
H121  H     H_    0.931073 0.411049 0.827344 0.122930
H122  H     H_    0.411632 0.822473 0.928004 0.110930
H123  H     H_    0.846357 0.952183 0.379311 0.118085
H124  H     H_    0.653973 0.761594 0.386029 0.086568
H125  H     H_    0.390321 0.655803 0.763333 0.089077
H126  H     H_    0.760825 0.383107 0.653339 0.092614
H127  H     H_    0.652165 0.381187 0.759885 0.084985
H128  H     H_    0.385196 0.761906 0.654103 0.090177
H129  H     H_    0.760707 0.652272 0.380216 0.087861
H130  H     H_    0.842926 0.652492 0.381976 0.100100
H131  H     H_    0.379324 0.842450 0.651847 0.101551
H132  H     H_    0.651764 0.379761 0.842186 0.102981
H133  H     H_    0.840772 0.380652 0.652330 0.107841
H134  H     H_    0.378983 0.651460 0.842440 0.109585
H135  H     H_    0.651831 0.842341 0.379659 0.108414
N1    N     N_R   0.004700 0.064601 0.065187 -0.117241
N2    N     N_R   0.064176 0.004766 0.064991 -0.117071
N3    N     N_R   0.064412 0.064609 0.006073 -0.117094
N4    N     N_R   0.877910 0.758550 0.247710 -0.058539
N5    N     N_R   0.247710 0.877910 0.758550 -0.057096
N6    N     N_R   0.758550 0.247710 0.877910 -0.056423
N7    N     N_R   0.877910 0.247710 0.758550 -0.057320
N8    N     N_R   0.247710 0.758550 0.877910 -0.059494
N9    N     N_R   0.758550 0.877910 0.247710 -0.057614
N10   N     N_R   0.725540 0.845080 0.247770 -0.057304
N11   N     N_R   0.247770 0.725540 0.845080 -0.058529
N12   N     N_R   0.845080 0.247770 0.725540 -0.050922
N13   N     N_R   0.725540 0.247770 0.845080 -0.048545
N14   N     N_R   0.247770 0.845080 0.725540 -0.047933
N15   N     N_R   0.845080 0.725540 0.247770 -0.048390
N16   N     N_R   0.758420 0.725600 0.247730 -0.068716
N17   N     N_R   0.247730 0.758420 0.725600 -0.068455
N18   N     N_R   0.725600 0.247730 0.758420 -0.070513
N19   N     N_R   0.758420 0.247730 0.725600 -0.063207
N20   N     N_R   0.247730 0.725600 0.758420 -0.061728
N21   N     N_R   0.725600 0.758420 0.247730 -0.062128
N22   N     N_R   0.845030 0.878030 0.247760 -0.039677
N23   N     N_R   0.247760 0.845030 0.878030 -0.039497
N24   N     N_R   0.878030 0.247760 0.845030 -0.038861
N25   N     N_R   0.845030 0.247760 0.878030 -0.041273
N26   N     N_R   0.247760 0.878030 0.845030 -0.042141
N27   N     N_R   0.878030 0.845030 0.247760 -0.043010
N28   N     N_R   0.877970 0.845080 0.355840 -0.042270
N29   N     N_R   0.355840 0.877970 0.845080 -0.044277
N30   N     N_R   0.845080 0.355840 0.877970 -0.043390
N31   N     N_R   0.877970 0.355840 0.845080 -0.045227
N32   N     N_R   0.355840 0.845080 0.877970 -0.044760
N33   N     N_R   0.845080 0.877970 0.355840 -0.040071
N34   N     N_R   0.725530 0.758500 0.355850 -0.038321
N35   N     N_R   0.355850 0.725530 0.758500 -0.038687
N36   N     N_R   0.758500 0.355850 0.725530 -0.038369
N37   N     N_R   0.725530 0.355850 0.758500 -0.036692
N38   N     N_R   0.355850 0.758500 0.725530 -0.036875
N39   N     N_R   0.758500 0.725530 0.355850 -0.035910
N40   N     N_R   0.845000 0.725590 0.355820 -0.043073
N41   N     N_R   0.355820 0.845000 0.725590 -0.040689
N42   N     N_R   0.725590 0.355820 0.845000 -0.042137
N43   N     N_R   0.845000 0.355820 0.725590 -0.044610
N44   N     N_R   0.355820 0.725590 0.845000 -0.043747
N45   N     N_R   0.725590 0.845000 0.355820 -0.047441
N46   N     N_R   0.758510 0.877990 0.355880 -0.048217
N47   N     N_R   0.355880 0.758510 0.877990 -0.053474
N48   N     N_R   0.877990 0.355880 0.758510 -0.054864
N49   N     N_R   0.758510 0.355880 0.877990 -0.051386
N50   N     N_R   0.355880 0.877990 0.758510 -0.049573
N51   N     N_R   0.877990 0.758510 0.355880 -0.053373
Ni1   Ni    Ni4+2 0.877260 0.801820 0.301780 0.196355
Ni2   Ni    Ni4+2 0.301780 0.877260 0.801820 0.202188
Ni3   Ni    Ni4+2 0.801820 0.301780 0.877260 0.200365
Ni4   Ni    Ni4+2 0.877260 0.301780 0.801820 0.198406
Ni5   Ni    Ni4+2 0.301780 0.801820 0.877260 0.196057
Ni6   Ni    Ni4+2 0.801820 0.877260 0.301780 0.203394
Ni7   Ni    Ni4+2 0.726220 0.801790 0.301810 0.199049
Ni8   Ni    Ni4+2 0.301810 0.726220 0.801790 0.198613
Ni9   Ni    Ni4+2 0.801790 0.301810 0.726220 0.198485
Ni10  Ni    Ni4+2 0.726220 0.301810 0.801790 0.196868
Ni11  Ni    Ni4+2 0.301810 0.801790 0.726220 0.198257
Ni12  Ni    Ni4+2 0.801790 0.726220 0.301810 0.195730
N52   N     N_3   0.762971 0.962726 0.381861 -0.235393
H136  H     H_    0.763572 0.973795 0.417796 0.106340
H137  H     H_    0.742302 0.987313 0.362615 0.089157
N53   N     N_3   0.369230 0.757097 0.965878 -0.223089
H138  H     H_    0.344928 0.734651 0.983161 0.087083
H139  H     H_    0.351985 0.790379 0.964392 0.091461
N54   N     N_3   0.965357 0.376229 0.757428 -0.220753
H140  H     H_    0.986338 0.357098 0.733048 0.088010
H141  H     H_    0.966292 0.356414 0.788905 0.086528
N55   N     N_3   0.754408 0.362732 0.965882 -0.227418
H142  H     H_    0.762453 0.394603 0.984268 0.091286
H143  H     H_    0.785781 0.342066 0.964076 0.096048
N56   N     N_3   0.365982 0.965999 0.755547 -0.226282
H144  H     H_    0.398836 0.982948 0.762643 0.091108
H145  H     H_    0.346334 0.964903 0.787381 0.100276
N57   N     N_3   0.965135 0.755702 0.370414 -0.215541
H146  H     H_    0.978976 0.773680 0.400434 0.090761
H147  H     H_    0.965544 0.778672 0.340911 0.095634
C262  C     C_3   0.586214 0.806759 0.920081 -0.464646
C263  C     C_3   0.573220 0.763147 0.888496 -0.214872
C264  C     C_3   0.601738 0.718599 0.903415 -0.927616
H148  H     H_    0.640996 0.725095 0.899613 0.263471
H149  H     H_    0.593704 0.709180 0.941291 0.262188
H150  H     H_    0.591511 0.687721 0.880082 0.248470
H151  H     H_    0.534228 0.754812 0.891528 0.198038
H152  H     H_    0.581186 0.771389 0.850293 0.196690
H153  H     H_    0.625544 0.813117 0.916331 0.197169
H154  H     H_    0.578230 0.798453 0.958270 0.187884
C265  C     C_3   0.830942 0.591125 0.872649 -0.429613
C266  C     C_3   0.787415 0.592683 0.906343 -0.235545
C267  C     C_3   0.749676 0.628629 0.888900 -0.920777
H155  H     H_    0.765177 0.665424 0.887686 0.262118
H156  H     H_    0.736535 0.618389 0.852528 0.262164
H157  H     H_    0.718646 0.628864 0.913940 0.250757
H158  H     H_    0.770644 0.556443 0.908307 0.197740
H159  H     H_    0.799338 0.603285 0.943059 0.194492
H160  H     H_    0.846352 0.627803 0.869390 0.198858
H161  H     H_    0.819113 0.580343 0.835929 0.187168
C268  C     C_3   0.933112 0.994276 0.553277 -0.408705
C269  C     C_3   0.890250 0.965863 0.573298 -0.276631
C270  C     C_3   0.881534 0.978488 0.626005 -0.911046
H162  H     H_    0.913535 0.968956 0.648099 0.259547
H163  H     H_    0.873977 0.017573 0.630041 0.264421
H164  H     H_    0.850072 0.958013 0.639418 0.249473
H165  H     H_    0.857042 0.974776 0.552731 0.197223
H166  H     H_    0.897489 0.926596 0.570403 0.203954
H167  H     H_    0.964259 0.987852 0.577675 0.204665
H168  H     H_    0.923705 0.033083 0.554925 0.191921
C271  C     C_3   0.579393 0.936809 0.804830 -0.465292
C272  C     C_3   0.563507 0.910683 0.758609 -0.218397
C273  C     C_3   0.587687 0.932088 0.714457 -0.919052
H169  H     H_    0.577674 0.970608 0.710582 0.264340
H170  H     H_    0.627458 0.928895 0.717493 0.259898
H171  H     H_    0.575626 0.912403 0.681762 0.247993
H172  H     H_    0.573103 0.871907 0.761123 0.195893
H173  H     H_    0.523878 0.913587 0.753658 0.198477
H174  H     H_    0.570262 0.975679 0.802016 0.187859
H175  H     H_    0.619144 0.932866 0.807917 0.196248
C274  C     C_3   0.056044 0.004984 0.417427 -0.411241
C275  C     C_3   0.067354 0.992583 0.364783 -0.269534
C276  C     C_3   0.113985 0.016496 0.348685 -0.910993
H176  H     H_    0.110802 0.056268 0.351398 0.261213
H177  H     H_    0.144653 0.004168 0.371264 0.260004
H178  H     H_    0.121384 0.006701 0.310705 0.250254
H179  H     H_    0.071563 0.952996 0.360616 0.195569
H180  H     H_    0.037565 0.005236 0.341173 0.203446
H181  H     H_    0.055091 0.044858 0.420987 0.196410
H182  H     H_    0.086012 0.991332 0.440171 0.187551
C277  C     C_3   0.986083 0.550987 0.964777 -0.403945
C278  C     C_3   0.019059 0.510744 0.983616 -0.279218
C279  C     C_3   0.060128 0.531404 0.013901 -0.912618
H183  H     H_    0.082386 0.556199 0.992067 0.261620
H184  H     H_    0.045610 0.551247 0.045422 0.261568
H185  H     H_    0.083413 0.501669 0.027012 0.249658
H186  H     H_    0.997998 0.485629 0.006292 0.201757
H187  H     H_    0.034924 0.490596 0.952912 0.199065
H188  H     H_    0.008571 0.575753 0.943420 0.192886
H189  H     H_    0.972134 0.571253 0.996310 0.199874
N58   N     N_3   0.016781 0.681769 0.534898 -0.218806
H190  H     H_    0.989431 0.695098 0.556999 0.109954
H191  H     H_    0.037536 0.710920 0.523570 0.100466
N59   N     N_3   0.425997 0.066544 0.620785 -0.220477
H192  H     H_    0.425432 0.082578 0.654830 0.099472
H193  H     H_    0.391203 0.068660 0.606446 0.108866
N60   N     N_3   0.620926 0.426234 0.067416 -0.220491
H194  H     H_    0.655231 0.426085 0.083038 0.098976
H195  H     H_    0.607016 0.391401 0.069877 0.109567
N61   N     N_3   0.055769 0.420383 0.602764 -0.217299
H196  H     H_    0.051450 0.387911 0.584142 0.106713
H197  H     H_    0.075876 0.413334 0.633791 0.102001
N62   N     N_3   0.422551 0.612484 0.063681 -0.217532
H198  H     H_    0.388456 0.596589 0.063459 0.108025
H199  H     H_    0.419707 0.645663 0.081309 0.101597
N63   N     N_3   0.612727 0.062367 0.424490 -0.217748
H200  H     H_    0.597046 0.061928 0.390280 0.109326
H201  H     H_    0.645788 0.080101 0.421975 0.099482
C280  C     C_3   0.966110 0.752487 0.230616 -0.493050
C281  C     C_3   0.988522 0.706356 0.251301 -0.227334
C282  C     C_3   0.041098 0.714220 0.265319 -0.922474
H202  H     H_    0.062438 0.724542 0.233323 0.259073
H203  H     H_    0.044057 0.742954 0.293036 0.260545
H204  H     H_    0.056238 0.680424 0.280279 0.251690
H205  H     H_    0.968132 0.695176 0.283689 0.206434
H206  H     H_    0.986671 0.676544 0.224683 0.191180
H207  H     H_    0.986229 0.764761 0.198552 0.186341
H208  H     H_    0.969158 0.780219 0.259077 0.186026
C283  C     C_3   0.237518 0.968444 0.755664 -0.472586
C284  C     C_3   0.259454 0.997557 0.714229 -0.217744
C285  C     C_3   0.277383 0.046555 0.731658 -0.945712
H209  H     H_    0.246813 0.068269 0.745593 0.264779
H210  H     H_    0.304705 0.042429 0.760547 0.262326
H211  H     H_    0.294046 0.066122 0.701277 0.247607
H212  H     H_    0.289776 0.977221 0.697921 0.200792
H213  H     H_    0.232350 0.004355 0.685783 0.209011
H214  H     H_    0.205015 0.987256 0.769387 0.179646
H215  H     H_    0.265068 0.967106 0.784411 0.191339
C286  C     C_3   0.754289 0.228055 0.966210 -0.479485
C287  C     C_3   0.707749 0.240862 0.993071 -0.213590
C288  C     C_3   0.718298 0.255766 0.044869 -0.939895
H216  H     H_    0.736505 0.225998 0.064341 0.264798
H217  H     H_    0.741621 0.288196 0.045753 0.260748
H218  H     H_    0.684007 0.264402 0.063412 0.248419
H219  H     H_    0.689175 0.271116 0.974580 0.199792
H220  H     H_    0.683192 0.209326 0.993391 0.198330
H221  H     H_    0.771441 0.196134 0.983038 0.181101
H222  H     H_    0.778570 0.259453 0.969572 0.191554
C289  C     C_3   0.964870 0.211683 0.763171 -0.467546
C290  C     C_3   0.991514 0.258903 0.770127 -0.262250
C291  C     C_3   0.041633 0.251156 0.791468 -0.936344
H223  H     H_    0.039204 0.233203 0.826928 0.256048
H224  H     H_    0.063848 0.228704 0.766950 0.265180
H225  H     H_    0.059614 0.286493 0.796436 0.251312
H226  H     H_    0.995136 0.276664 0.734691 0.196437
H227  H     H_    0.970447 0.281931 0.794449 0.195431
H228  H     H_    0.963544 0.188729 0.795362 0.183359
H229  H     H_    0.987395 0.190313 0.738217 0.202581
C292  C     C_3   0.200721 0.764560 0.958255 -0.461320
C293  C     C_3   0.247474 0.760878 0.986875 -0.251800
C294  C     C_3   0.240066 0.774876 0.039377 -0.938928
H230  H     H_    0.227099 0.812627 0.042123 0.258126
H231  H     H_    0.213450 0.750573 0.056377 0.265196
H232  H     H_    0.274785 0.771818 0.059066 0.250209
H233  H     H_    0.261099 0.723281 0.984971 0.195394
H234  H     H_    0.274444 0.785071 0.971088 0.191554
H235  H     H_    0.181785 0.799234 0.963176 0.180550
H236  H     H_    0.175705 0.737716 0.974013 0.195328
C295  C     C_3   0.759303 0.963083 0.212209 -0.465520
C296  C     C_3   0.761756 0.984059 0.263113 -0.233449
C297  C     C_3   0.776591 0.036869 0.262461 -0.948903
H237  H     H_    0.812966 0.040708 0.246480 0.259724
H238  H     H_    0.750302 0.058338 0.241299 0.266489
H239  H     H_    0.777620 0.051140 0.299771 0.249278
H240  H     H_    0.725608 0.981026 0.279830 0.193017
H241  H     H_    0.787839 0.963723 0.285523 0.200143
H242  H     H_    0.791696 0.970635 0.190561 0.178202
H243  H     H_    0.729681 0.982240 0.193158 0.193725
C298  C     C_3   0.756985 0.634883 0.243588 -0.436909
C299  C     C_3   0.764392 0.599448 0.201383 -0.245135
C300  C     C_3   0.800639 0.560159 0.214246 -0.943829
H244  H     H_    0.836579 0.576069 0.221692 0.260126
H245  H     H_    0.788342 0.540145 0.246388 0.264666
H246  H     H_    0.804055 0.534512 0.183741 0.252984
H247  H     H_    0.729984 0.581581 0.192096 0.207976
H248  H     H_    0.776740 0.618325 0.168570 0.190095
H249  H     H_    0.790306 0.638273 0.265568 0.195209
H250  H     H_    0.729584 0.620003 0.268362 0.171276
C301  C     C_3   0.242790 0.755801 0.634882 -0.433671
C302  C     C_3   0.199097 0.766604 0.602362 -0.243387
C303  C     C_3   0.214400 0.792611 0.556759 -0.945577
H251  H     H_    0.231460 0.827629 0.565786 0.254119
H252  H     H_    0.240317 0.770146 0.536194 0.265844
H253  H     H_    0.182316 0.799500 0.533848 0.252900
H254  H     H_    0.180940 0.732755 0.591660 0.209075
H255  H     H_    0.171879 0.788686 0.621593 0.195102
H256  H     H_    0.267720 0.786838 0.637466 0.183321
H257  H     H_    0.264895 0.727057 0.618145 0.173505
C304  C     C_3   0.634851 0.244098 0.756250 -0.438244
C305  C     C_3   0.599178 0.202224 0.763398 -0.241376
C306  C     C_3   0.559667 0.215679 0.798998 -0.957513
H258  H     H_    0.575387 0.223295 0.834984 0.257575
H259  H     H_    0.539754 0.247926 0.786258 0.267811
H260  H     H_    0.533953 0.185335 0.802335 0.253067
H261  H     H_    0.581540 0.192936 0.728847 0.208321
H262  H     H_    0.617856 0.169245 0.776151 0.193392
H263  H     H_    0.638058 0.266322 0.789388 0.194813
H264  H     H_    0.620271 0.268824 0.728498 0.168998
C307  C     C_3   0.755949 0.229760 0.634381 -0.426829
C308  C     C_3   0.770046 0.281408 0.621671 -0.253369
C309  C     C_3   0.789805 0.284403 0.570731 -0.951856
H265  H     H_    0.822784 0.261992 0.567267 0.260097
H266  H     H_    0.762406 0.271856 0.544347 0.268913
H267  H     H_    0.799155 0.322311 0.562510 0.249866
H268  H     H_    0.737500 0.304556 0.624178 0.200873
H269  H     H_    0.797636 0.295461 0.646848 0.203397
H270  H     H_    0.783586 0.202522 0.625526 0.179329
H271  H     H_    0.725631 0.220227 0.609972 0.195635
C310  C     C_3   0.237079 0.632632 0.754447 -0.434225
C311  C     C_3   0.282879 0.624411 0.783891 -0.248969
C312  C     C_3   0.286434 0.572457 0.801060 -0.954806
H272  H     H_    0.255884 0.563961 0.825207 0.266861
H273  H     H_    0.286077 0.547269 0.769957 0.265656
H274  H     H_    0.320623 0.567384 0.821266 0.250265
H275  H     H_    0.313897 0.631599 0.760481 0.196471
H276  H     H_    0.284487 0.648181 0.815701 0.214733
H277  H     H_    0.205089 0.617509 0.772681 0.179411
H278  H     H_    0.241024 0.610322 0.721395 0.196840
C313  C     C_3   0.632785 0.753606 0.234595 -0.433070
C314  C     C_3   0.623111 0.781317 0.281147 -0.251543
C315  C     C_3   0.572194 0.801999 0.281776 -0.951927
H279  H     H_    0.567575 0.828515 0.252356 0.264742
H280  H     H_    0.545233 0.772797 0.277449 0.266343
H281  H     H_    0.565802 0.820521 0.316612 0.250459
H282  H     H_    0.626540 0.755761 0.311208 0.193919
H283  H     H_    0.648711 0.811221 0.286473 0.213550
H284  H     H_    0.617840 0.772249 0.202690 0.179831
H285  H     H_    0.610952 0.720159 0.236884 0.193303

loop_
_geom_bond_atom_site_label_1
_geom_bond_atom_site_label_2
_ccdc_geom_bond_type
C101  C107  A    
C249  H111  S    
C284  C285  S    
C306  H258  S    
C96   C102  A    
C240  C286  S    
N63   H200  S    
C196  H88   S    
C291  H225  S    
C289  H229  S    
C264  H148  S    
C102  H36   S    
C181  H73   S    
C181  C187  A    
C269  C270  S    
C143  C209  S    
C120  C268  S    
C281  C282  S    
C21   H123  S    
C176  C182  A    
C183  H75   S    
C282  H204  S    
C194  H86   S    
C119  C265  S    
C35   N53   S    
N24   N25   A    
C302  H254  S    
C9    C88   S    
C201  H81   S    
C283  H215  S    
C173  C179  A    
C162  H63   S    
C84   H18   S    
C128  C132  A    
C203  H83   S    
C199  C205  A    
C285  H209  S    
C163  H64   S    
C78   C108  A    
C279  H183  S    
C113  H2    S    
C229  C234  A    
C198  C209  A    
C114  H3    S    
C80   C86   A    
C251  N17   A    
N50   Ni2   S    
C272  H172  S    
C66   C72   A    
C162  C171  A    
N61   H196  S    
C245  H107  S    
C277  C278  S    
N8    N11   A    
C15   C166  S    
C142  C208  S    
N45   Ni7   S    
C19   H121  S    
C142  C148  A    
C243  N9    A    
C200  H80   S    
C299  H248  S    
C184  H76   S    
C255  C313  S    
C193  C208  A    
C284  H212  S    
N25   Ni3   S    
C238  N4    A    
C116  C166  A    
C100  H34   S    
C183  C189  A    
C298  C299  S    
C53   C113  A    
C301  C302  S    
C55   C218  A    
N28   N33   A    
C227  C233  A    
C1    N1    A    
C52   H52   S    
C79   C109  A    
C123  C134  A    
N53   H138  S    
C268  H167  S    
N11   Ni8   S    
C137  C146  A    
C78   H30   S    
N23   N26   A    
C292  C293  S    
C35   N47   A    
C296  H240  S    
C170  C176  A    
C306  H260  S    
C38   N50   A    
N55   H142  S    
C14   C257  A    
C155  C161  A    
C123  C277  S    
C161  H62   S    
C266  H158  S    
C253  N19   A    
N27   Ni1   S    
C254  N20   A    
C307  H270  S    
C7    C246  A    
N44   Ni8   S    
C7    C241  A    
C268  C269  S    
C56   C116  A    
C124  C130  A    
C164  C173  A    
C118  C124  A    
C163  C172  A    
C97   C103  A    
C16   C40   A    
C304  H264  S    
C309  H266  S    
N36   N37   A    
C16   H118  S    
N52   H137  S    
C8    C245  A    
N38   Ni11  S    
C221  C236  A    
C198  C204  A    
C305  C306  S    
N29   N32   A    
C17   N29   A    
C222  H102  S    
C23   N35   A    
C267  H155  S    
C33   H135  S    
C14   C168  S    
C264  H150  S    
C79   C85   A    
C312  H272  S    
C242  C292  S    
C282  H202  S    
C150  H51   S    
C56   H56   S    
C159  C192  A    
C310  C311  S    
C294  H232  S    
C293  H233  S    
C274  C275  S    
C195  C201  A    
N4    Ni1   S    
C299  C300  S    
C221  C227  A    
C100  C106  A    
C285  H211  S    
C180  C186  A    
C120  C135  A    
C286  C287  S    
N4    N15   A    
C224  H104  S    
C65   C71   A    
C55   H55   S    
N60   H194  S    
C104  C110  A    
C41   C130  S    
C3    N2    A    
C250  N16   A    
C226  C232  A    
C54   C114  A    
C37   N55   S    
C265  C266  S    
C140  C149  A    
C260  N26   A    
C120  C126  A    
C26   N38   A    
C63   C111  S    
C11   C251  A    
N22   N27   A    
C58   C67   A    
C295  H242  S    
C276  H177  S    
N54   H140  S    
C223  H103  S    
C314  C315  S    
C2    C218  S    
C121  C271  S    
C254  C310  S    
C263  H152  S    
C103  H37   S    
C288  H217  S    
C302  H255  S    
C243  C295  S    
C296  C297  S    
C139  C190  S    
C240  N6    A    
C97   H25   S    
C26   C44   A    
C255  N21   A    
C99   H27   S    
C31   H133  S    
C28   C46   A    
C34   C51   A    
C278  H187  S    
C29   C47   A    
C281  H205  S    
C30   C48   A    
C195  H87   S    
C291  H224  S    
C116  H5    S    
C18   C42   A    
C22   H124  S    
C230  H98   S    
C154  N58   S    
C288  H218  S    
C52   C112  A    
C117  C168  A    
C302  C303  S    
C66   C74   A    
C156  N60   S    
C11   C254  A    
C270  H162  S    
C304  H263  S    
C226  H94   S    
C61   C67   A    
C273  H170  S    
C124  H40   S    
C69   H9    S    
C185  H77   S    
C305  H261  S    
N8    Ni5   S    
C194  C200  A    
C211  C235  S    
C64   C73   A    
N7    Ni4   S    
C42   C131  S    
N42   N49   A    
C126  C132  A    
N6    Ni3   S    
C290  H226  S    
C204  H84   S    
C246  H108  S    
C186  H78   S    
C79   H31   S    
C175  C181  A    
C137  C188  S    
C156  C189  A    
C280  H207  S    
C239  N5    A    
C277  H188  S    
C26   H128  S    
C141  C192  S    
C84   C90   A    
C16   N28   A    
C144  C147  A    
C280  H208  S    
C157  N61   S    
C212  C236  S    
C141  C150  A    
N13   Ni10  S    
C83   C89   A    
C247  H109  S    
C88   C94   A    
C139  C148  A    
N34   Ni7   S    
C119  C134  A    
C126  H42   S    
C242  N8    A    
C313  H285  S    
C29   H131  S    
N56   H144  S    
N48   Ni4   S    
N31   Ni4   S    
C223  C237  A    
C76   C82   A    
C127  H43   S    
C298  H249  S    
C2    N1    A    
C263  H151  S    
C290  H227  S    
N29   Ni2   S    
C165  C174  A    
C7    C90   S    
C59   C107  S    
C159  C165  A    
C36   N54   S    
C10   C250  A    
C196  C208  A    
C51   C174  S    
C37   N49   A    
C81   H33   S    
N59   H192  S    
C202  H82   S    
C274  H181  S    
C48   C171  S    
C125  C131  A    
C22   C43   A    
C212  C215  A    
C94   C100  A    
C73   H13   S    
C160  C169  A    
C297  H237  S    
C278  C279  S    
C38   C47   A    
C220  C226  A    
C57   H57   S    
C137  C152  A    
C182  C188  A    
C244  H106  S    
C257  N23   A    
C311  H276  S    
C29   N41   A    
C271  H175  S    
C3    C219  S    
N19   Ni9   S    
C262  H154  S    
C199  H79   S    
C265  H161  S    
C18   H120  S    
C184  C190  A    
C138  C189  S    
C256  H112  S    
C5    C248  A    
C9    C243  A    
C25   C45   A    
C179  H71   S    
C169  C175  A    
C197  H89   S    
C172  C178  A    
C34   N46   A    
C283  C284  S    
C306  H259  S    
C12   C253  A    
C315  H281  S    
C77   H29   S    
C27   N39   A    
C264  H149  S    
C49   C172  S    
C258  H114  S    
C90   C96   A    
C221  H101  S    
C222  C237  A    
N28   Ni1   S    
C270  H164  S    
C244  N10   A    
N7    N12   A    
C87   H21   S    
C68   H8    S    
C310  H277  S    
C14   C260  A    
C44   C233  S    
C67   H7    S    
C70   H10   S    
C21   C40   A    
C214  H91   S    
C60   C69   A    
C82   C88   A    
C87   C93   A    
C139  C151  A    
C22   N34   A    
C285  H210  S    
C279  H184  S    
C257  H113  S    
C18   N30   A    
C262  C263  S    
C259  H115  S    
C4    C93   S    
C301  H256  S    
C223  C229  A    
C80   H32   S    
C308  H269  S    
C211  C214  A    
C3    N3    A    
C269  H165  S    
C265  H160  S    
C140  C191  S    
C4    C238  A    
C300  H244  S    
C171  C177  A    
C8    C89   S    
C11   C205  S    
C115  C167  A    
N34   N39   A    
C251  C301  S    
C95   C101  A    
C141  C152  A    
N9    Ni6   S    
C94   H22   S    
C36   N48   A    
C300  H246  S    
C61   C70   A    
C143  C146  A    
C299  H247  S    
C174  C180  A    
C279  H185  S    
C57   C219  A    
C220  C235  A    
C263  C264  S    
C24   H126  S    
N26   Ni2   S    
C144  C210  S    
C311  C312  S    
N24   Ni4   S    
C153  H60   S    
C308  C309  S    
C247  N13   A    
C213  C214  A    
C314  H283  S    
C28   N40   A    
N58   H190  S    
N21   Ni7   S    
C50   C173  S    
C1    N3    A    
C268  H168  S    
C228  H96   S    
C31   C49   A    
C4    C249  A    
C121  C127  A    
C309  H267  S    
C272  C273  S    
C75   H15   S    
C294  H231  S    
N30   N31   A    
C24   N36   A    
C297  H239  S    
C74   H14   S    
C231  H99   S    
C157  C190  A    
C197  C210  A    
C31   N43   A    
C307  H271  S    
C63   C68   A    
C27   H129  S    
N49   Ni3   S    
C32   N44   A    
N41   Ni11  S    
C38   N56   S    
C71   H11   S    
C202  C205  A    
C253  C307  S    
C76   C106  A    
C53   H53   S    
N46   Ni6   S    
C229  H97   S    
C105  H39   S    
C250  C298  S    
C93   C99   A    
C65   C134  S    
C60   C108  S    
C241  C289  S    
C140  C153  A    
C145  H46   S    
C256  N22   A    
C105  C111  A    
C146  H47   S    
N63   H201  S    
C142  C145  A    
C287  H219  S    
C267  H156  S    
C289  H228  S    
C56   C217  A    
C185  C191  A    
N20   Ni8   S    
C312  H273  S    
N55   H143  S    
C85   C91   A    
C308  H268  S    
C282  H203  S    
N51   Ni1   S    
C6    C247  A    
C195  C210  A    
C258  N24   A    
C159  N63   S    
C177  C183  A    
C13   C256  A    
C261  H117  S    
C239  C283  S    
C23   C44   A    
C10   C255  A    
C62   C69   A    
C267  H157  S    
N60   H195  S    
C89   C95   A    
C290  C291  S    
C224  C230  A    
C118  C262  S    
C312  H274  S    
C129  H45   S    
C272  H173  S    
C222  C228  A    
C112  C166  A    
C147  H48   S    
C151  H58   S    
C52   C217  A    
C152  H59   S    
C45   C234  S    
N35   Ni8   S    
C313  C314  S    
C81   C87   A    
C15   C258  A    
N5    N14   A    
C119  C125  A    
C138  C153  A    
N39   Ni12  S    
C295  H243  S    
N17   N20   A    
N54   H141  S    
N18   N19   A    
N37   Ni10  S    
N32   Ni5   S    
C161  C170  A    
C136  C151  A    
C280  C281  S    
C271  H174  S    
C57   C117  A    
C213  C216  A    
C277  H189  S    
C64   C133  S    
C315  H279  S    
C128  H44   S    
C5    C239  A    
C20   N32   A    
C294  H230  S    
N43   Ni9   S    
C34   N52   S    
C43   C232  S    
C65   C75   A    
C113  C167  A    
C33   N45   A    
C303  H253  S    
C114  C168  A    
C179  C185  A    
C33   C51   A    
C283  H214  S    
C154  C187  A    
C21   N33   A    
C278  H186  S    
C12   C252  A    
N44   N47   A    
C103  C109  A    
C315  H280  S    
C266  H159  S    
C158  C191  A    
C193  C199  A    
N43   N48   A    
N62   H199  S    
C30   N42   A    
N62   H198  S    
C55   C115  A    
N23   Ni5   S    
C72   H12   S    
C270  H163  S    
C292  H236  S    
C122  C128  A    
C295  C296  S    
C122  C135  A    
C66   C135  S    
C27   C43   A    
C275  H180  S    
N52   H136  S    
C32   H134  S    
C160  H61   S    
C95   H23   S    
C281  H206  S    
C122  C274  S    
C1    C217  S    
C176  H68   S    
C36   C49   A    
C115  H4    S    
C23   H125  S    
C12   C206  S    
C252  N18   A    
C211  C215  A    
C30   H132  S    
C269  H166  S    
N47   Ni5   S    
N42   Ni10  S    
C39   N51   A    
C17   H119  S    
C83   H17   S    
C61   C109  S    
C54   C219  A    
C20   C41   A    
C293  H234  S    
C92   C98   A    
C275  C276  S    
C178  H70   S    
C303  H251  S    
C225  H105  S    
C293  C294  S    
N12   Ni9   S    
C225  C231  A    
C300  H245  S    
C24   C45   A    
N61   H197  S    
N56   H145  S    
N40   Ni12  S    
C213  C237  S    
C155  C188  A    
C276  H178  S    
C2    N2    A    
C175  H67   S    
C13   C167  S    
N57   H147  S    
C77   C83   A    
C6    C91   S    
C28   H130  S    
C220  H100  S    
C230  C233  A    
N41   N50   A    
C60   C74   A    
C310  H278  S    
C177  H69   S    
C274  H182  S    
C143  C150  A    
C81   C111  A    
C276  H176  S    
C215  H92   S    
C297  H238  S    
C286  H222  S    
C102  C108  A    
C64   C70   A    
C266  C267  S    
C157  C163  A    
C228  C234  A    
C136  C145  A    
C158  C164  A    
C286  H221  S    
C288  H216  S    
C40   C132  S    
C156  C162  A    
C245  N11   A    
C123  C129  A    
C261  N27   A    
C246  N12   A    
N36   Ni9   S    
N15   Ni12  S    
C252  C304  S    
N14   Ni11  S    
C193  H85   S    
C96   H24   S    
N35   N38   A    
C201  C207  A    
C275  H179  S    
C99   C105  A    
C216  H93   S    
C289  C290  S    
N33   Ni6   S    
C225  C235  A    
C212  C216  A    
C77   C107  A    
C291  H223  S    
N57   H146  S    
N30   Ni3   S    
C249  N15   A    
C273  H171  S    
C287  H220  S    
C25   H127  S    
C203  C207  A    
C91   C97   A    
C298  H250  S    
C58   C106  S    
C238  C280  S    
C10   C207  S    
C154  C160  A    
C273  H169  S    
C59   C68   A    
C305  H262  S    
C6    C240  A    
C62   C110  S    
C8    C242  A    
C138  C147  A    
C241  N7    A    
C35   C50   A    
C85   H19   S    
C62   C72   A    
C117  H6    S    
C37   C48   A    
N22   Ni6   S    
C32   C50   A    
C76   H28   S    
C118  C133  A    
C39   C46   A    
C125  H41   S    
C63   C71   A    
C39   N57   S    
C204  C206  A    
N16   N21   A    
C182  H74   S    
C136  C187  S    
C25   N37   A    
C82   H16   S    
C196  C202  A    
C59   C75   A    
C47   C170  S    
C15   C259  A    
C259  N25   A    
C148  H49   S    
C53   C218  A    
C149  H50   S    
C200  C206  A    
C144  C149  A    
C314  H282  S    
N5    Ni2   S    
C313  H284  S    
C198  H90   S    
C311  H275  S    
C158  N62   S    
C19   N31   A    
C309  H265  S    
N40   N51   A    
C101  H35   S    
C19   C42   A    
C307  C308  S    
N17   Ni11  S    
C155  N59   S    
C301  H257  S    
N58   H191  S    
C227  H95   S    
C303  H252  S    
C46   C169  S    
C127  C130  A    
N59   H193  S    
C86   C92   A    
C194  C209  A    
N16   Ni12  S    
N45   N46   A    
C164  H65   S    
N6    N13   A    
C104  H38   S    
C98   C104  A    
C284  H213  S    
C248  N14   A    
C86   H20   S    
C260  H116  S    
C197  C203  A    
N9    N10   A    
C54   H54   S    
C165  H66   S    
C186  C192  A    
C17   C41   A    
C5    C92   S    
C224  C236  A    
C180  H72   S    
C78   C84   A    
C262  H153  S    
C20   H122  S    
C287  C288  S    
C98   H26   S    
C80   C110  A    
C231  C232  A    
N53   H139  S    
N18   Ni10  S    
C271  C272  S    
C292  H235  S    
C121  C133  A    
C9    C244  A    
C13   C261  A    
N10   Ni7   S    
C178  C184  A    
C296  H241  S    
C58   C73   A    
C112  H1    S    
C304  C305  S    
C129  C131  A    
C248  H110  S    
