data_mof_unit_44349.cif
_audit_creation_date              2012-12-10T19:11:33-0500
_audit_creation_method            fapswitch 2.2
_symmetry_space_group_name_H-M    P1
_symmetry_Int_Tables_number       1
_space_group_crystal_system       triclinic
_cell_length_a                    10.712773
_cell_length_b                    9.842157
_cell_length_c                    10.478594
_cell_angle_alpha                 87.946974
_cell_angle_beta                  92.211584
_cell_angle_gamma                 90.559734
_cell_volume                      1103.25883562

loop_
_atom_site_label
_atom_site_type_symbol
_atom_type_description
_atom_site_fract_x
_atom_site_fract_y
_atom_site_fract_z
_atom_type_partial_charge
C1    C     C_R   0.258175 0.500244 0.492039 0.903337
C2    C     C_3   0.498847 0.505426 0.122510 0.004848
C3    C     C_3   0.072685 0.651611 0.484933 -0.439565
C4    C     C_3   0.080844 0.435791 0.616285 -0.422361
C5    C     C_3   0.929202 0.653428 0.473293 -0.187122
C6    C     C_3   0.939381 0.451549 0.629207 -0.181429
C7    C     C_3   0.061680 0.424429 0.368128 -0.101002
C8    C     C_3   0.121288 0.501440 0.487769 -0.005825
C9    C     C_3   0.878648 0.503780 0.497386 -0.030911
C10   C     C_3   0.918445 0.412874 0.388069 -0.422430
C11   C     C_3   0.410320 0.083712 0.397901 -0.353314
C12   C     C_3   0.400793 0.921420 0.407554 -0.399755
C13   C     C_3   0.622159 0.082223 0.462141 -0.296846
C14   C     C_3   0.617444 0.923157 0.448515 -0.261172
C15   C     C_3   0.457995 0.072351 0.621386 0.438759
C16   C     C_3   0.473579 0.913463 0.626751 0.449406
C17   C     C_R   0.500057 0.502097 0.257618 0.951761
C18   C     C_R   0.742201 0.500973 0.502018 0.860111
C19   C     C_R   0.497406 0.498156 0.742313 0.865541
C20   C     C_3   0.526115 0.628418 0.034638 -0.117314
C21   C     C_3   0.383676 0.465929 0.041497 -0.183036
C22   C     C_3   0.410862 0.588528 0.950567 -0.144674
C23   C     C_3   0.495026 0.496309 0.877667 0.018253
C24   C     C_3   0.610171 0.536368 0.958952 -0.130098
C25   C     C_3   0.467139 0.374049 0.966040 -0.174222
C26   C     C_3   0.582745 0.413574 0.049507 -0.163232
H1    H     H_    0.340350 0.659050 0.905670 0.151328
H2    H     H_    0.862773 0.435973 0.298739 0.217563
H3    H     H_    0.889709 0.306512 0.411633 0.236160
H4    H     H_    0.437923 0.117249 0.300286 0.209883
H5    H     H_    0.408349 0.879767 0.310868 0.212689
H6    H     H_    0.317461 0.127121 0.409279 0.210569
H7    H     H_    0.306335 0.890359 0.438921 0.163928
H8    H     H_    0.649878 0.130458 0.369632 0.178920
H9    H     H_    0.624609 0.901030 0.345475 0.177854
H10   H     H_    0.354224 0.083924 0.618210 0.067015
H11   H     H_    0.378737 0.872596 0.647689 0.064785
H12   H     H_    0.698611 0.110642 0.528339 0.200788
H13   H     H_    0.702059 0.874139 0.490146 0.168831
H14   H     H_    0.549979 0.732055 0.066868 0.144077
H15   H     H_    0.291781 0.434340 0.078111 0.207347
H16   H     H_    0.702571 0.564221 0.920675 0.160808
H17   H     H_    0.437144 0.270730 0.938790 0.202294
H18   H     H_    0.653279 0.342777 0.093990 0.156717
H19   H     H_    0.114593 0.716209 0.408711 0.237596
H20   H     H_    0.110377 0.327954 0.624992 0.243856
H21   H     H_    0.103116 0.700685 0.575383 0.176107
H22   H     H_    0.129912 0.486297 0.697845 0.150007
H23   H     H_    0.897233 0.716787 0.551647 0.106202
H24   H     H_    0.925626 0.532720 0.698774 0.125972
N1    N     N_3   0.499750 0.138610 0.497240 -0.105063
N2    N     N_3   0.499750 0.861390 0.497240 -0.109968
O1    O     O_R   0.314910 0.616040 0.499970 -0.621712
O2    O     O_R   0.314910 0.383960 0.499970 -0.627140
O3    O     O_R   0.500080 0.616020 0.313900 -0.605196
O4    O     O_R   0.500080 0.383980 0.313900 -0.631953
O5    O     O_R   0.685320 0.616040 0.499930 -0.646586
O6    O     O_R   0.685320 0.383960 0.499930 -0.621747
O7    O     O_R   0.500150 0.616060 0.686000 -0.591371
O8    O     O_R   0.500150 0.383940 0.686000 -0.561802
Zn1   Zn    Zn3+2 0.500150 0.654960 0.499940 0.946642
Zn2   Zn    Zn3+2 0.500150 0.345040 0.499940 0.971378
O9    O     O_3   0.484259 0.142554 0.735558 -0.601047
C27   C     C_3   0.606464 0.135438 0.788775 -0.200387
H25   H     H_    0.615529 0.050578 0.860505 0.183253
H26   H     H_    0.678327 0.138577 0.718367 0.169373
H27   H     H_    0.624829 0.227240 0.843842 0.181082
O10   O     O_3   0.543930 0.860115 0.735870 -0.595427
C28   C     C_3   0.673873 0.843059 0.726534 -0.281899
H28   H     H_    0.722505 0.931637 0.684351 0.136850
H29   H     H_    0.695304 0.749542 0.678394 0.205789
H30   H     H_    0.714770 0.828772 0.824901 0.160431
C29   C     C_2   0.884001 0.727363 0.349715 0.941795
O11   O     O_2   0.918107 0.844796 0.328851 -0.644431
O12   O     O_R   0.800855 0.666200 0.262625 -0.813585
H31   H     H_    0.777935 0.728208 0.186153 0.332101
C30   C     C_2   0.887882 0.323467 0.691474 0.918678
O13   O     O_2   0.888653 0.215873 0.636897 -0.632781
O14   O     O_R   0.853276 0.326512 0.818568 -0.827320
H32   H     H_    0.843414 0.232277 0.859219 0.328989
C31   C     C_2   0.085224 0.503712 0.241639 0.896686
O15   O     O_2   0.021792 0.479290 0.145318 -0.594239
O16   O     O_R   0.184131 0.597025 0.232591 -0.852380
H33   H     H_    0.187590 0.643738 0.144972 0.340213
C32   C     C_2   0.110338 0.279631 0.355669 0.882790
O17   O     O_2   0.167901 0.249550 0.262078 -0.640702
O18   O     O_R   0.083046 0.178301 0.447884 -0.786149
H34   H     H_    0.108219 0.084136 0.423009 0.347833

loop_
_geom_bond_atom_site_label_1
_geom_bond_atom_site_label_2
_ccdc_geom_bond_type
O6    Zn2   S    
C7    C10   S    
O18   H34   S    
C1    C8    S    
C24   H16   S    
C29   O11   D    
C4    C8    S    
C25   H17   S    
C6    C9    S    
C31   O15   D    
C26   H18   S    
C7    C8    S    
C4    H20   S    
C30   O13   D    
C24   C26   S    
N2    Zn1   S    
C20   H14   S    
C15   C16   S    
O8    Zn2   S    
C28   H29   S    
C1    O1    A    
C31   O16   S    
C14   H13   S    
C13   N1    S    
O1    Zn1   S    
C18   O6    A    
C14   N2    S    
C20   C24   S    
C11   H4    S    
O10   C28   S    
C23   C24   S    
C16   O10   S    
C15   N1    S    
C9    C10   S    
C17   O3    A    
C16   H11   S    
C30   O14   S    
C21   C22   S    
C2    C17   S    
C29   O12   S    
C5    H23   S    
N1    Zn2   S    
C12   N2    S    
C32   O18   S    
O7    Zn1   S    
C2    C20   S    
C27   H27   S    
C4    C6    S    
C3    C8    S    
C14   H9    S    
C6    C30   S    
O2    Zn2   S    
C19   O7    A    
C25   C26   S    
C32   O17   D    
C3    H19   S    
O14   H32   S    
C27   H26   S    
C28   H30   S    
C19   C23   S    
O12   H31   S    
C5    C9    S    
C18   O5    A    
O16   H33   S    
C2    C21   S    
C2    C26   S    
C6    H24   S    
C17   O4    A    
C13   H12   S    
C1    O2    A    
C21   H15   S    
C7    C31   S    
C20   C22   S    
C11   H6    S    
C22   H1    S    
C12   H5    S    
O4    Zn2   S    
C15   H10   S    
C4    H22   S    
C10   H2    S    
C21   C25   S    
C16   N2    S    
C3    C5    S    
C11   C12   S    
O5    Zn1   S    
C19   O8    A    
C27   H25   S    
C13   H8    S    
C10   H3    S    
C7    C32   S    
O3    Zn1   S    
C3    H21   S    
C23   C25   S    
C5    C29   S    
C28   H28   S    
C11   N1    S    
O9    C27   S    
C9    C18   S    
C15   O9    S    
C22   C23   S    
C12   H7    S    
C13   C14   S    
