data_mof_unit_63182.cif
_audit_creation_date              2012-12-10T16:48:56-0500
_audit_creation_method            fapswitch 2.2
_symmetry_space_group_name_H-M    P1
_symmetry_Int_Tables_number       1
_space_group_crystal_system       triclinic
_cell_length_a                    18.391351
_cell_length_b                    18.494559
_cell_length_c                    18.42715
_cell_angle_alpha                 119.934121
_cell_angle_beta                  119.457447
_cell_angle_gamma                 90.621227
_cell_volume                      4448.4298306

loop_
_atom_site_label
_atom_site_type_symbol
_atom_type_description
_atom_site_fract_x
_atom_site_fract_y
_atom_site_fract_z
_atom_type_partial_charge
C1    C     C_R   0.138590 0.361666 0.001356 0.521036
C2    C     C_2   0.826376 0.711577 0.020150 0.017789
C3    C     C_2   0.720642 0.280066 0.444374 -0.154480
C4    C     C_R   0.863441 0.640285 0.002164 0.533510
C5    C     C_2   0.702709 0.192507 0.386879 -0.098854
C6    C     C_2   0.783934 0.332928 0.555884 -0.128897
C7    C     C_2   0.789589 0.305841 0.613736 0.016575
C8    C     C_2   0.332841 0.276705 0.061036 -0.114719
C9    C     C_2   0.306002 0.191891 0.982124 -0.007811
C10   C     C_2   0.281115 0.335941 0.056187 0.093761
C11   C     C_2   0.193011 0.306002 0.008586 -0.086479
C12   C     C_3   0.714278 0.326962 0.981457 0.168333
C13   C     C_2   0.217575 0.789566 0.952598 0.086801
C14   C     C_2   0.302910 0.797183 0.990722 -0.083254
C15   C     C_2   0.163906 0.727422 0.947419 -0.119528
C16   C     C_R   0.138364 0.637661 0.277043 0.517620
C17   C     C_2   0.194510 0.716746 0.023051 -0.009952
C18   C     C_2   0.221046 0.775176 0.556239 -0.126329
C19   C     C_2   0.308377 0.818291 0.613331 0.116093
C20   C     C_2   0.165363 0.730085 0.445318 0.082694
C21   C     C_2   0.193675 0.682896 0.387053 0.139687
C22   C     C_R   0.639846 0.138386 0.276743 0.508459
C23   C     C_3   0.798854 0.300577 0.997677 0.005230
C24   C     C_R   0.361784 0.862858 0.723069 0.514479
C25   C     C_R   0.638111 0.861149 0.999113 0.517600
C26   C     C_R   0.361425 0.138263 0.997847 0.523990
C27   C     C_R   0.359120 0.858377 0.998547 0.521280
C28   C     C_R   0.859450 0.361391 0.723103 0.520691
C29   C     C_R   0.639515 0.141055 0.997932 0.528815
C30   C     C_R   0.140693 0.643798 0.003508 0.524456
C31   C     C_R   0.857933 0.358643 0.999295 0.543423
C32   C     C_3   0.768290 0.201195 0.908860 -0.016747
C33   C     C_3   0.701408 0.141612 0.901426 -0.166144
C34   C     C_3   0.695153 0.198205 0.995172 0.006958
C35   C     C_3   0.849157 0.310260 0.100541 -0.021514
C36   C     C_3   0.756650 0.848915 0.929308 -0.367358
C37   C     C_3   0.856250 0.778929 0.129509 -0.382526
C38   C     C_3   0.720846 0.225979 0.574646 -0.377073
C39   C     C_3   0.226558 0.151204 0.873618 -0.380799
C40   C     C_3   0.275843 0.782610 0.131593 -0.382349
C41   C     C_3   0.611824 0.092599 0.795010 -0.402151
C42   C     C_3   0.791616 0.242931 0.094390 -0.034807
C43   C     C_3   0.658299 0.272920 0.991164 0.228467
C44   C     C_2   0.736045 0.789303 0.955264 -0.031986
C45   C     C_2   0.683046 0.796286 0.987882 0.112395
C46   C     C_2   0.775831 0.719680 0.943077 0.130062
F1    F     F_    0.840694 0.172585 0.924030 -0.159481
F2    F     F_    0.272677 0.669571 0.427713 -0.163518
F3    F     F_    0.929805 0.297146 0.124512 -0.168410
F4    F     F_    0.738194 0.416859 0.053483 -0.145510
F5    F     F_    0.663800 0.311048 0.885738 -0.177780
F6    F     F_    0.569595 0.237146 0.910260 -0.168870
F7    F     F_    0.662882 0.329475 0.079827 -0.136513
F8    F     F_    0.792039 0.285698 0.181554 -0.161193
F9    F     F_    0.666408 0.738526 0.007618 -0.174404
F10   F     F_    0.758308 0.661427 0.848811 -0.157208
F11   F     F_    0.325942 0.422835 0.106821 -0.146753
F12   F     F_    0.177767 0.834588 0.913084 -0.151757
F13   F     F_    0.348860 0.828152 0.572137 -0.163925
F14   F     F_    0.082475 0.735371 0.402719 -0.163874
H1    H     H_    0.863804 0.378863 0.163090 0.167094
H2    H     H_    0.188280 0.775515 0.591902 0.140844
H3    H     H_    0.727699 0.089050 0.906361 0.174837
H4    H     H_    0.821515 0.190651 0.093127 0.136600
H5    H     H_    0.808707 0.836688 0.914830 0.141674
H6    H     H_    0.696520 0.835664 0.858907 0.175928
H7    H     H_    0.781907 0.919623 0.994020 0.131254
H8    H     H_    0.928805 0.796153 0.182472 0.133625
H9    H     H_    0.845260 0.842236 0.144124 0.126008
H10   H     H_    0.821446 0.750040 0.148935 0.174266
H11   H     H_    0.709554 0.240986 0.633912 0.142259
H12   H     H_    0.692634 0.314599 0.409408 0.166545
H13   H     H_    0.655270 0.208228 0.506432 0.138490
H14   H     H_    0.744757 0.168590 0.557416 0.136192
H15   H     H_    0.241122 0.105893 0.818280 0.148765
H16   H     H_    0.168214 0.111886 0.857919 0.141620
H17   H     H_    0.210468 0.201996 0.858616 0.134141
H18   H     H_    0.259898 0.794961 0.186756 0.145252
H19   H     H_    0.330826 0.755160 0.145948 0.148228
H20   H     H_    0.298070 0.848259 0.148196 0.131857
H21   H     H_    0.620887 0.043538 0.735857 0.139161
H22   H     H_    0.559322 0.056009 0.789658 0.184091
H23   H     H_    0.735719 0.159006 0.421313 0.121628
H24   H     H_    0.587525 0.138942 0.775113 0.162266
H25   H     H_    0.829090 0.396703 0.591564 0.150190
H26   H     H_    0.737936 0.194922 0.835811 0.150453
H27   H     H_    0.396202 0.304638 0.133789 0.152185
H28   H     H_    0.159091 0.237952 0.974530 0.096583
H29   H     H_    0.332389 0.757362 0.017121 0.095775
H30   H     H_    0.099053 0.684862 0.875542 0.153826
O1    O     O_3   1.000000 0.500000 0.000000 -0.464338
O2    O     O_R   0.324760 0.053850 0.939900 -0.534493
O3    O     O_R   0.443270 0.883090 0.060070 -0.543339
O4    O     O_R   0.053940 0.324750 0.939940 -0.540866
O5    O     O_R   0.616890 0.176890 0.060090 -0.494632
O6    O     O_R   0.323100 0.883090 0.939900 -0.509693
O7    O     O_R   0.616910 0.056740 0.939940 -0.570692
O8    O     O_R   0.615250 0.885990 0.939940 -0.559450
O9    O     O_R   0.446110 0.175200 0.060060 -0.539855
O10   O     O_R   0.614030 0.053850 0.229160 -0.541336
O11   O     O_R   0.324790 0.884790 0.770830 -0.557784
O12   O     O_R   0.053880 0.613970 0.229150 -0.531433
O13   O     O_R   0.884790 0.613970 0.060060 -0.535388
O14   O     O_R   0.175250 0.615170 0.229170 -0.529147
O15   O     O_R   0.886020 0.446110 0.770840 -0.541613
O16   O     O_R   0.176940 0.616860 0.060100 -0.534898
O17   O     O_R   0.883150 0.323060 0.939910 -0.527945
O18   O     O_R   0.056770 0.616860 0.939930 -0.551099
O19   O     O_R   0.883130 0.443210 0.060060 -0.522220
O20   O     O_R   0.884840 0.324750 0.770840 -0.541694
O21   O     O_R   0.175280 0.446110 0.060100 -0.504723
O22   O     O_R   0.885990 0.615170 0.939900 -0.521415
O23   O     O_3   0.500040 0.999960 0.000000 -0.456603
O24   O     O_R   0.615200 0.175200 0.229160 -0.534607
O25   O     O_R   0.446160 0.885990 0.770850 -0.524334
O26   O     O_R   0.614060 0.884790 0.060100 -0.523744
Zn1   Zn    Zn3+2 0.956210 0.542060 0.085830 0.971780
Zn2   Zn    Zn3+2 0.129620 0.543770 0.085850 0.967882
Zn3   Zn    Zn3+2 0.957930 0.543770 0.914160 0.947558
Zn4   Zn    Zn3+2 0.956240 0.370390 0.914160 0.955000
Zn5   Zn    Zn3+2 0.543830 0.957900 0.914170 0.930298
Zn6   Zn    Zn3+2 0.542120 0.956180 0.085840 0.952093
Zn7   Zn    Zn3+2 0.370430 0.956180 0.914150 0.955773
Zn8   Zn    Zn3+2 0.543800 0.129560 0.085840 0.968072

loop_
_geom_bond_atom_site_label_1
_geom_bond_atom_site_label_2
_ccdc_geom_bond_type
O5    Zn8   S    
C1    O21   A    
O8    Zn5   S    
C4    O13   A    
C16   C21   S    
O25   Zn5   S    
C37   H9    S    
C34   C42   S    
C3    C6    S    
C36   H7    S    
O19   Zn1   S    
C2    C46   D    
C12   C23   S    
O11   Zn7   S    
C6    H25   S    
O26   Zn6   S    
O21   Zn2   S    
C39   H17   S    
C18   C19   D    
C12   C43   S    
C5    H23   S    
C36   H6    S    
C43   F6    S    
C26   O2    A    
C37   H8    S    
C9    C39   S    
C24   O11   A    
C35   C42   S    
O7    Zn5   S    
O4    Zn4   S    
C43   F7    S    
C5    C22   S    
C42   F8    S    
C44   C46   S    
C1    O4    A    
C1    C11   S    
C35   F3    S    
O1    Zn1   S    
C39   H15   S    
C14   C27   S    
C20   F14   S    
C28   O15   A    
O10   Zn6   S    
C26   O9    A    
C21   F2    S    
O24   Zn8   S    
C4    O22   A    
C32   H26   S    
C37   H10   S    
O16   Zn2   S    
C17   C30   S    
O18   Zn3   S    
C27   O6    A    
O13   Zn1   S    
C16   O14   A    
C9    C26   S    
O14   Zn2   S    
O1    Zn2   S    
C22   O10   A    
O23   Zn6   S    
C10   F11   S    
O3    Zn6   S    
C25   O26   A    
O20   Zn4   S    
C29   O5    A    
C36   H5    S    
C8    C9    D    
C13   F12   S    
C28   O20   A    
C41   H24   S    
C29   C34   S    
C7    C28   S    
C17   C40   S    
C23   C31   S    
C2    C4    S    
C14   H29   S    
O22   Zn3   S    
O23   Zn7   S    
C11   H28   S    
C33   H3    S    
C41   H21   S    
C40   H20   S    
C33   C34   S    
C31   O19   A    
C40   H19   S    
C35   H1    S    
C39   H16   S    
O12   Zn1   S    
C40   H18   S    
C16   O12   A    
C23   C35   S    
C13   C15   S    
C32   F1    S    
O1    Zn3   S    
C27   O3    A    
C25   C45   S    
O17   Zn4   S    
C12   F5    S    
C44   C45   D    
C38   H14   S    
C15   C17   D    
C38   H11   S    
O6    Zn7   S    
C30   O18   A    
C31   O17   A    
C18   H2    S    
C34   C43   S    
C3    C5    D    
C42   H4    S    
C12   F4    S    
C6    C7    D    
C29   O7    A    
C8    H27   S    
C19   F13   S    
C32   C33   S    
C3    H12   S    
C33   C41   S    
C23   C32   S    
C15   H30   S    
C2    C37   S    
O23   Zn8   S    
C41   H22   S    
C7    C38   S    
C19   C24   S    
C18   C20   S    
O2    Zn7   S    
C36   C44   S    
C10   C11   D    
C25   O8    A    
C22   O24   A    
O23   Zn5   S    
C20   C21   D    
C45   F9    S    
C24   O25   A    
C8    C10   S    
C46   F10   S    
O1    Zn4   S    
O15   Zn3   S    
C13   C14   D    
C30   O16   A    
O9    Zn8   S    
C38   H13   S    
