data_mof_unit_7252.cif
_audit_creation_date              2012-10-26T19:04:41-0400
_audit_creation_method            fapswitch 2.2
_symmetry_space_group_name_H-M    P1
_symmetry_Int_Tables_number       1
_space_group_crystal_system       triclinic
_cell_length_a                    9.571618
_cell_length_b                    10.863565
_cell_length_c                    13.434537
_cell_angle_alpha                 92.553259
_cell_angle_beta                  72.434311
_cell_angle_gamma                 90.445547
_cell_volume                      1330.46535602

loop_
_atom_site_label
_atom_site_type_symbol
_atom_type_description
_atom_site_fract_x
_atom_site_fract_y
_atom_site_fract_z
_atom_type_partial_charge
C1    C     C_R   0.503385 0.736877 0.491511 0.554155
C2    C     C_R   0.373726 0.484625 0.814487 -0.003282
C3    C     C_R   0.277382 0.876423 0.427992 -0.091794
C4    C     C_R   0.421539 0.493048 0.699810 0.542124
C5    C     C_R   0.143959 0.933918 0.438163 -0.126312
C6    C     C_R   0.113428 0.048755 0.489511 -0.125904
C7    C     C_R   0.221807 0.111350 0.520871 -0.099586
C8    C     C_R   0.364281 0.059929 0.500142 0.026323
C9    C     C_R   0.382929 0.934084 0.469000 0.028586
C10   C     C_R   0.505136 0.870585 0.481666 -0.006881
C11   C     C_R   0.621826 0.937134 0.499225 -0.152775
C12   C     C_R   0.432575 0.473974 0.979202 0.036539
C13   C     C_R   0.616303 0.064315 0.508026 -0.156024
C14   C     C_R   0.488892 0.127535 0.508894 -0.006399
C15   C     C_R   0.913188 0.337818 0.359864 -0.113012
C16   C     C_R   0.496064 0.262295 0.505364 0.533839
C17   C     C_R   0.013638 0.257881 0.291158 -0.054147
C18   C     C_R   0.157588 0.257357 0.291693 -0.170596
C19   C     C_R   0.201416 0.336107 0.360653 -0.110027
C20   C     C_R   0.103074 0.419591 0.431408 0.141260
C21   C     C_R   0.953485 0.420017 0.431194 0.134706
C22   C     C_R   0.899067 0.576347 0.565263 -0.007418
C23   C     C_R   0.471297 0.448876 0.869702 0.026342
C24   C     C_R   0.047180 0.576383 0.565180 -0.012223
C25   C     C_R   0.578526 0.497512 0.299936 0.536726
C26   C     C_R   0.788978 0.396642 0.024326 -0.125236
C27   C     C_R   0.622433 0.479961 0.186038 -0.002776
C28   C     C_R   0.230771 0.522885 0.870511 -0.132862
C29   C     C_R   0.186740 0.532283 0.978845 -0.139456
C30   C     C_R   0.286465 0.510661 0.032950 -0.115647
C31   C     C_1   0.968021 0.175476 0.219936 0.178892
C32   C     C_R   0.541252 0.460367 0.030585 0.030669
C33   C     C_R   0.680355 0.409252 0.974762 0.049669
C34   C     C_R   0.708651 0.369395 0.870624 -0.142094
C35   C     C_R   0.605191 0.387330 0.819169 -0.123834
C36   C     C_R   0.516908 0.498502 0.135451 -0.133909
C37   C     C_R   0.759996 0.431493 0.129667 -0.132359
Cu1   Cu    Cu3+1 0.359340 0.500010 0.500010 0.906105
Cu2   Cu    Cu3+1 0.640660 0.499990 0.499990 0.916578
H1    H     H_    0.843162 0.416859 0.167538 0.128522
H2    H     H_    0.313551 0.326011 0.355289 0.195294
H3    H     H_    0.811767 0.324827 0.828385 0.109090
H4    H     H_    0.080681 0.638974 0.618504 0.121447
H5    H     H_    0.895371 0.357650 0.982068 0.121303
H6    H     H_    0.415982 0.543103 0.180090 0.121115
H7    H     H_    0.153091 0.547888 0.830474 0.130284
H8    H     H_    0.244604 0.520418 0.116901 0.108099
H9    H     H_    0.075591 0.560348 0.021190 0.124879
H10   H     H_    0.630787 0.348974 0.740164 0.150301
H11   H     H_    0.718007 0.890953 0.506443 0.134651
H12   H     H_    0.297400 0.787932 0.386053 0.145702
H13   H     H_    0.062606 0.887673 0.409035 0.118525
H14   H     H_    0.006637 0.090705 0.503200 0.113088
H15   H     H_    0.189061 0.197370 0.564647 0.150799
H16   H     H_    0.711713 0.113080 0.516149 0.132985
H17   H     H_    0.821596 0.638912 0.618688 0.122752
H18   H     H_    0.805373 0.331827 0.353995 0.188157
H19   H     H_    0.236743 0.194983 0.239004 0.137039
N1    N     N_R   0.852480 0.498790 0.499000 -0.244289
N2    N     N_R   0.148360 0.498710 0.498970 -0.247232
N3    N     N_1   0.931211 0.109416 0.162776 -0.302162
O1    O     O_R   0.381190 0.680360 0.500010 -0.506845
O2    O     O_R   0.618760 0.680340 0.500000 -0.497674
O3    O     O_R   0.323240 0.499990 0.650990 -0.501209
O4    O     O_R   0.560820 0.499960 0.650980 -0.505162
O5    O     O_R   0.381240 0.319660 0.500000 -0.533782
O6    O     O_R   0.618810 0.319640 0.499990 -0.528987
O7    O     O_R   0.439180 0.500040 0.349020 -0.527973
O8    O     O_R   0.676760 0.500010 0.349010 -0.516675

loop_
_geom_bond_atom_site_label_1
_geom_bond_atom_site_label_2
_ccdc_geom_bond_type
C35   H10   S    
C2    C4    S    
C26   C37   A    
C6    C7    A    
C3    C9    A    
C15   H18   S    
C27   C36   A    
C20   N2    A    
C11   C13   A    
C9    C10   A    
C31   N3    T    
C26   C33   A    
C23   C35   A    
C19   C20   A    
C34   H3    S    
C36   H6    S    
C29   H9    S    
C24   N2    A    
Cu2   N1    S    
C32   C33   A    
C2    C23   A    
C33   C34   A    
Cu2   O8    S    
C26   H5    S    
C7    C8    A    
C5    H13   S    
C11   H11   S    
C13   C14   A    
C12   C32   A    
C2    C28   A    
Cu2   O4    S    
C12   C23   A    
C28   H7    S    
C4    O3    A    
C29   C30   A    
C25   O7    A    
C27   C37   A    
C34   C35   A    
Cu1   N2    S    
C32   C36   A    
C22   C24   A    
C28   C29   A    
Cu1   O7    S    
C21   N1    A    
C37   H1    S    
Cu1   O3    S    
C5    C6    A    
C17   C31   S    
C14   C16   S    
C25   O8    A    
C10   C11   A    
Cu1   O5    S    
C6    H14   S    
C16   O6    A    
C1    O2    A    
C30   H8    S    
C15   C21   A    
Cu2   O2    S    
C20   C21   A    
C1    O1    A    
C17   C18   A    
C18   C19   A    
C22   N1    A    
C15   C17   A    
C24   H4    S    
C3    H12   S    
C4    O4    A    
C16   O5    A    
C22   H17   S    
C8    C14   A    
C7    H15   S    
C12   C30   A    
Cu1   O1    S    
Cu2   O6    S    
C18   H19   S    
C1    C10   S    
C19   H2    S    
C13   H16   S    
C8    C9    A    
C3    C5    A    
C25   C27   S    
Cu1   Cu2   S    
