data_mof_unit_59006.cif
_audit_creation_date              2012-12-11T17:03:19-0500
_audit_creation_method            fapswitch 2.2
_symmetry_space_group_name_H-M    P1
_symmetry_Int_Tables_number       1
_space_group_crystal_system       triclinic
_cell_length_a                    16.622646
_cell_length_b                    7.104568
_cell_length_c                    15.289885
_cell_angle_alpha                 89.999981
_cell_angle_beta                  94.587213
_cell_angle_gamma                 89.999971
_cell_volume                      1799.90119247

loop_
_atom_site_label
_atom_site_type_symbol
_atom_type_description
_atom_site_fract_x
_atom_site_fract_y
_atom_site_fract_z
_atom_type_partial_charge
O1    O     O_R   0.413460 0.494300 0.415980 -0.539772
O2    O     O_R   0.586540 0.994300 0.584020 -0.539772
O3    O     O_R   0.577100 0.822370 0.413730 -0.523507
O4    O     O_R   0.422900 0.322370 0.586270 -0.523510
C1    C     C_R   0.603068 0.655104 0.392598 0.780154
C2    C     C_R   0.396932 0.155104 0.607402 0.780166
O5    O     O_R   0.413490 0.823910 0.405510 -0.531825
O6    O     O_R   0.586510 0.323910 0.594490 -0.531827
O7    O     O_R   0.421770 0.995890 0.575740 -0.536245
O8    O     O_R   0.578230 0.495890 0.424260 -0.536248
C3    C     C_R   0.384721 0.655424 0.384282 0.720492
C4    C     C_R   0.615279 0.155423 0.615718 0.720487
O9    O     O_3   0.502910 0.661350 0.555860 -0.382048
O10   O     O_3   0.497090 0.161350 0.444140 -0.382047
V1    V     V_3+5 0.499460 0.935550 0.489640 1.516542
V2    V     V_3+5 0.500540 0.435550 0.510360 1.516537
C5    C     C_R   0.746329 0.010216 0.679280 0.053391
C6    C     C_R   0.253671 0.510217 0.320720 0.053388
C7    C     C_R   0.686064 0.148469 0.681517 -0.120016
C8    C     C_R   0.313936 0.648470 0.318483 -0.120020
C9    C     C_R   0.697169 0.286404 0.748012 -0.129292
C10   C     C_R   0.302831 0.786404 0.251988 -0.129295
H1    H     H_    0.653815 0.399291 0.751780 0.123450
H2    H     H_    0.346185 0.899291 0.248219 0.123451
C11   C     C_R   0.761444 0.272738 0.814163 -0.128619
C12   C     C_R   0.238556 0.772737 0.185837 -0.128617
H3    H     H_    0.764655 0.371304 0.868044 0.165382
H4    H     H_    0.235345 0.871303 0.131956 0.165381
C13   C     C_R   0.817566 0.124185 0.814987 -0.099913
C14   C     C_R   0.182434 0.624185 0.185013 -0.099913
C15   C     C_R   0.808174 0.996129 0.745966 -0.024944
C16   C     C_R   0.191825 0.496130 0.254034 -0.024944
C17   C     C_3   0.806725 0.785536 0.743372 0.256684
C18   C     C_3   0.193275 0.285536 0.256630 0.256682
C19   C     C_3   0.742225 0.801254 0.665969 0.226727
C20   C     C_3   0.257774 0.301255 0.334032 0.226729
H5    H     H_    0.865486 0.728166 0.726068 0.158319
H6    H     H_    0.134514 0.228168 0.273933 0.158318
H7    H     H_    0.682575 0.738292 0.676344 0.066848
H8    H     H_    0.317425 0.238293 0.323657 0.066850
C21   C     C_1   0.166357 0.120524 0.831712 -0.175419
C22   C     C_1   0.833643 0.620525 0.168288 -0.175420
C23   C     C_1   0.219311 0.128333 0.780728 0.026968
C24   C     C_1   0.780689 0.628333 0.219271 0.026971
C25   C     C_1   0.281803 0.137690 0.720887 0.028448
C26   C     C_1   0.718197 0.637690 0.279113 0.028449
C27   C     C_1   0.334610 0.145662 0.669743 -0.138509
C28   C     C_1   0.665390 0.645662 0.330257 -0.138525
O11   O     O_R   0.921840 0.772560 0.075830 -0.532731
O12   O     O_R   0.078160 0.272560 0.924170 -0.532731
O13   O     O_R   0.086520 0.441250 0.094510 -0.526163
O14   O     O_R   0.913480 0.941250 0.905490 -0.526163
C29   C     C_R   0.114888 0.610286 0.115946 0.694870
C30   C     C_R   0.885112 0.110286 0.884054 0.694872
O15   O     O_R   0.922920 0.442940 0.086290 -0.538980
O16   O     O_R   0.077080 0.942940 0.913710 -0.538980
O17   O     O_R   0.913440 0.271120 0.915960 -0.534489
O18   O     O_R   0.086560 0.771120 0.084040 -0.534489
C31   C     C_R   0.896493 0.611529 0.106579 0.721007
C32   C     C_R   0.103507 0.111529 0.893421 0.721007
O19   O     O_3   0.997130 0.604020 0.944190 -0.367224
O20   O     O_3   0.002870 0.104020 0.055810 -0.367224
V3    V     V_3+5 0.000530 0.329760 0.010360 1.491778
V4    V     V_3+5 0.999470 0.829760 0.989640 1.491779
O21   O     O_3   0.781356 0.691875 0.818998 -0.552893
C33   C     C_3   0.716278 0.775861 0.859247 -0.277175
H9    H     H_    0.671230 0.846900 0.813152 0.107923
H10   H     H_    0.739691 0.875797 0.910865 0.149426
H11   H     H_    0.683652 0.663865 0.892476 0.137542
O22   O     O_3   0.218643 0.191874 0.181004 -0.552892
C34   C     C_3   0.283721 0.275859 0.140754 -0.277174
H12   H     H_    0.328769 0.346899 0.186848 0.107924
H13   H     H_    0.260308 0.375793 0.089135 0.149426
H14   H     H_    0.316348 0.163862 0.107525 0.137541
S1    S     S_3+6 0.778651 0.737502 0.562691 0.014648
O23   O     O_2   0.741152 0.865082 0.492507 -0.336851
O24   O     O_2   0.868916 0.756621 0.565395 -0.311198
O25   O     O_3   0.752521 0.513177 0.539903 -0.501062
H15   H     H_    0.776317 0.484507 0.484064 0.368289
S2    S     S_3+6 0.221349 0.237506 0.437310 0.014643
O26   O     O_2   0.258848 0.365088 0.507494 -0.336845
O27   O     O_2   0.131084 0.256622 0.434606 -0.311208
O28   O     O_3   0.247481 0.013182 0.460101 -0.501065
H16   H     H_    0.223665 0.984498 0.515929 0.368293

loop_
_geom_bond_atom_site_label_1
_geom_bond_atom_site_label_2
_ccdc_geom_bond_type
C33   H10   S    
O15   C31   A    
O1    C3    A    
O2    C4    A    
C2    O7    A    
C17   O21   S    
O5    C3    A    
C19   S1    S    
C10   H2    S    
C7    C9    A    
C33   H11   S    
C13   C30   S    
C5    C7    A    
O14   C30   A    
O15   V3    S    
O16   V4    S    
O22   C34   S    
C18   O22   S    
C18   C20   S    
O5    V1    S    
C33   H9    S    
O6    V2    S    
O11   V4    S    
C11   C13   A    
O12   V3    S    
C21   C23   T    
C22   C24   T    
S2    O28   S    
C14   C29   S    
C24   C26   S    
O17   V3    S    
C25   C27   T    
O18   V4    S    
C1    C28   S    
C26   C28   T    
C3    C8    S    
C2    C27   S    
C20   H8    S    
O13   V3    S    
O4    C2    A    
C20   S2    S    
C34   H13   S    
O25   H15   S    
C17   H5    S    
O16   C32   A    
O13   C29   A    
C16   C18   S    
O4    V2    S    
O19   V4    S    
C19   H7    S    
S1    O23   D    
O20   V3    S    
C23   C25   S    
O28   H16   S    
O6    C4    A    
C15   C17   S    
O1    V2    S    
O2    V1    S    
S1    O24   D    
S2    O27   D    
C8    C10   A    
C12   C14   A    
O9    V1    S    
O14   V4    S    
C5    C15   A    
O10   V2    S    
C6    C16   A    
O3    V1    S    
C9    C11   A    
C18   H6    S    
C21   C32   S    
S2    O26   D    
O3    C1    A    
C22   C31   S    
C34   H14   S    
C29   O18   A    
C11   H3    S    
C12   H4    S    
O11   C31   A    
O12   C32   A    
C9    H1    S    
O7    V1    S    
C34   H12   S    
C13   C15   A    
O8    V2    S    
C14   C16   A    
C4    C7    S    
C17   C19   S    
C6    C8    A    
S1    O25   S    
C1    O8    A    
O21   C33   S    
C10   C12   A    
O9    V2    S    
O10   V1    S    
C5    C19   S    
C6    C20   S    
C30   O17   A    
