data_mof_unit_24769.cif
_audit_creation_date              2012-10-26T21:05:22-0400
_audit_creation_method            fapswitch 2.2
_symmetry_space_group_name_H-M    P1
_symmetry_Int_Tables_number       1
_space_group_crystal_system       triclinic
_cell_length_a                    9.695336
_cell_length_b                    10.813526
_cell_length_c                    13.846102
_cell_angle_alpha                 92.655456
_cell_angle_beta                  85.447007
_cell_angle_gamma                 89.942039
_cell_volume                      1445.48521457

loop_
_atom_site_label
_atom_site_type_symbol
_atom_type_description
_atom_site_fract_x
_atom_site_fract_y
_atom_site_fract_z
_atom_type_partial_charge
Br1   Br    Br    0.201883 0.401066 0.119137 -0.502636
Br2   Br    Br    0.255373 0.259744 0.326030 -0.430300
Br3   Br    Br    0.790976 0.871563 0.424133 -0.494437
Br4   Br    Br    0.185342 0.803220 0.396757 -0.432607
Br5   Br    Br    0.290370 0.246145 0.711348 -0.526780
C1    C     C_R   0.499921 0.738431 0.493585 0.565490
C2    C     C_R   0.623712 0.941988 0.488922 0.135694
C3    C     C_R   0.625526 0.066711 0.522260 0.008664
C4    C     C_R   0.478512 0.505989 0.682468 0.562891
C5    C     C_R   0.499900 0.131886 0.532905 0.001347
C6    C     C_R   0.883788 0.428081 0.324904 0.046829
C7    C     C_R   0.964441 0.466830 0.243602 -0.099374
C8    C     C_R   0.105068 0.442587 0.242288 0.159215
C9    C     C_R   0.158487 0.415480 0.330175 0.226772
C10   C     C_R   0.083845 0.458977 0.417498 0.132203
C11   C     C_R   0.935858 0.462325 0.416189 0.121482
C12   C     C_1   0.470072 0.526735 0.785077 0.009199
C13   C     C_R   0.917219 0.528183 0.581232 -0.010666
C14   C     C_R   0.064242 0.528413 0.581140 0.004949
C15   C     C_R   0.499076 0.264541 0.512733 0.596468
C16   C     C_R   0.521786 0.501302 0.317529 0.575358
C17   C     C_1   0.531977 0.500181 0.214370 0.031713
C18   C     C_2   0.532562 0.486587 0.023983 -0.060573
C19   C     C_2   0.475922 0.573824 0.973204 0.039863
C20   C     C_1   0.470326 0.548315 0.870834 -0.018004
C21   C     C_1   0.535381 0.496015 0.127480 -0.013891
C22   C     C_3   0.426417 0.699214 0.016391 -0.247014
C23   C     C_R   0.237874 0.889632 0.513704 0.212400
C24   C     C_3   0.273147 0.720448 0.004154 -0.388408
C25   C     C_3   0.824396 0.297511 0.310652 -0.268208
C26   C     C_3   0.799451 0.254525 0.206272 -0.423971
C27   C     C_3   0.011294 0.847933 0.611155 -0.254992
C28   C     C_3   0.011844 0.805072 0.714878 -0.462520
C29   C     C_3   0.737144 0.111167 0.587164 -0.244379
C30   C     C_3   0.870873 0.155868 0.534799 -0.393243
C31   C     C_R   0.134292 0.928080 0.585363 0.011895
C32   C     C_R   0.152071 0.038600 0.638940 -0.109194
C33   C     C_R   0.268705 0.111158 0.619746 0.162056
C34   C     C_R   0.377258 0.066106 0.552697 0.003751
C35   C     C_R   0.370660 0.943172 0.515303 -0.022266
C36   C     C_R   0.496948 0.876316 0.490811 0.002694
Cu1   Cu    Cu3+1 0.359340 0.500010 0.500010 1.049747
Cu2   Cu    Cu3+1 0.640660 0.499990 0.499990 0.968165
H1    H     H_    0.919640 0.471238 0.174655 0.150607
H2    H     H_    0.487396 0.772354 0.978875 0.142672
H3    H     H_    0.899144 0.242596 0.161387 0.195336
H4    H     H_    0.746401 0.163522 0.206652 0.175918
H5    H     H_    0.733227 0.321377 0.172970 0.148858
H6    H     H_    0.898037 0.229877 0.336157 0.162329
H7    H     H_    0.725042 0.287947 0.352092 0.210227
H8    H     H_    0.110863 0.757514 0.725113 0.155908
H9    H     H_    0.997970 0.884757 0.768247 0.159097
H10   H     H_    0.924990 0.740321 0.729902 0.133619
H11   H     H_    0.915617 0.899801 0.604336 0.179632
H12   H     H_    0.110128 0.553453 0.647761 0.133305
H13   H     H_    0.009522 0.765894 0.560782 0.214020
H14   H     H_    0.944223 0.183089 0.589247 0.144265
H15   H     H_    0.920547 0.084405 0.483826 0.215685
H16   H     H_    0.851750 0.239932 0.496406 0.174823
H17   H     H_    0.696839 0.188322 0.637623 0.165570
H18   H     H_    0.759257 0.037171 0.636239 0.131140
H19   H     H_    0.570537 0.400547 0.987519 0.134898
H20   H     H_    0.075043 0.068467 0.696226 0.145398
H21   H     H_    0.855985 0.553066 0.647856 0.121812
H22   H     H_    0.253450 0.716934 0.926114 0.148296
H23   H     H_    0.209239 0.649606 0.041786 0.211248
H24   H     H_    0.241428 0.813143 0.036243 0.165953
H25   H     H_    0.443115 0.710972 0.094677 0.174978
N1    N     N_R   0.852210 0.498790 0.499090 -0.231682
N2    N     N_R   0.148080 0.498710 0.499060 -0.219304
O1    O     O_R   0.381190 0.680360 0.500010 -0.484293
O2    O     O_R   0.618760 0.680340 0.500000 -0.452024
O3    O     O_R   0.364420 0.499990 0.637850 -0.479518
O4    O     O_R   0.601990 0.499960 0.637840 -0.522923
O5    O     O_R   0.381240 0.319660 0.500000 -0.427676
O6    O     O_R   0.618810 0.319640 0.499990 -0.543404
O7    O     O_R   0.398010 0.500040 0.362160 -0.457987
O8    O     O_R   0.635580 0.500010 0.362150 -0.502164

loop_
_geom_bond_atom_site_label_1
_geom_bond_atom_site_label_2
_ccdc_geom_bond_type
C4    O4    A    
Cu2   O2    S    
C22   C24   S    
C19   C22   S    
C2    C3    A    
C28   H9    S    
C1    O2    A    
Cu1   O5    S    
C30   H15   S    
C27   C31   S    
C31   C32   A    
C29   C30   S    
Br3   C2    S    
C25   C26   S    
C23   C35   A    
C10   C11   A    
Cu1   N2    S    
C15   O6    A    
C30   H16   S    
C13   C14   A    
C18   C21   S    
C22   H25   S    
Br4   C23   S    
C24   H24   S    
C18   H19   S    
C6    C25   S    
C5    C15   S    
C1    C36   S    
C16   O8    A    
C18   C19   D    
C22   H2    S    
Cu2   O4    S    
C25   H7    S    
Cu2   N1    S    
C26   H4    S    
C8    C9    A    
C29   H17   S    
C4    O3    A    
C27   H11   S    
C32   H20   S    
C28   H10   S    
C1    O1    A    
Br5   C33   S    
C19   C20   S    
C34   C35   A    
C26   H3    S    
C29   H18   S    
C15   O5    A    
C5    C34   A    
Cu2   O8    S    
C32   C33   A    
C6    C11   A    
C3    C29   S    
C24   H22   S    
C4    C12   S    
C35   C36   A    
C25   H6    S    
C26   H5    S    
Br1   C8    S    
Cu1   Cu2   S    
C14   H12   S    
Cu2   O6    S    
C10   N2    A    
Cu1   O3    S    
C11   N1    A    
C6    C7    A    
C28   H8    S    
C30   H14   S    
C12   C20   T    
C27   C28   S    
C7    H1    S    
C13   H21   S    
C33   C34   A    
C13   N1    A    
Cu1   O1    S    
C2    C36   A    
Br2   C9    S    
C24   H23   S    
C7    C8    A    
C23   C31   A    
Cu1   O7    S    
C3    C5    A    
C17   C21   T    
C16   O7    A    
C9    C10   A    
C14   N2    A    
C16   C17   S    
C27   H13   S    
