data_mof_unit_5933.cif
_audit_creation_date              2012-12-10T19:29:16-0500
_audit_creation_method            fapswitch 2.2
_symmetry_space_group_name_H-M    P1
_symmetry_Int_Tables_number       1
_space_group_crystal_system       triclinic
_cell_length_a                    15.860366
_cell_length_b                    17.742005
_cell_length_c                    16.458799
_cell_angle_alpha                 89.537535
_cell_angle_beta                  89.784259
_cell_angle_gamma                 90.260291
_cell_volume                      4631.18655565

loop_
_atom_site_label
_atom_site_type_symbol
_atom_type_description
_atom_site_fract_x
_atom_site_fract_y
_atom_site_fract_z
_atom_type_partial_charge
C1    C     C_R   0.499186 0.355068 0.500472 0.824704
C2    C     C_R   0.501643 0.150233 0.573336 0.020715
C3    C     C_R   0.499306 0.885228 0.490680 0.051791
C4    C     C_R   0.505224 0.113770 0.497500 0.057023
C5    C     C_1   0.503417 0.965779 0.490967 -0.051272
C6    C     C_1   0.505176 0.033257 0.492739 -0.050456
C7    C     C_R   0.566017 0.531367 0.829055 -0.001006
C8    C     C_R   0.452386 0.445446 0.172481 -0.014049
C9    C     C_R   0.565429 0.530580 0.743170 0.024768
C10   C     C_R   0.454993 0.446723 0.258327 0.020851
C11   C     C_R   0.432328 0.470758 0.742177 0.069622
C12   C     C_R   0.498006 0.644646 0.499422 0.823065
C13   C     C_R   0.543337 0.554069 0.256449 0.060096
C14   C     C_R   0.427163 0.471832 0.828372 -0.021575
C15   C     C_R   0.542629 0.556545 0.170489 -0.014902
C16   C     C_R   0.339597 0.499942 0.500175 0.808897
C17   C     C_R   0.660474 0.500114 0.499891 0.829014
C18   C     C_R   0.496279 0.501224 0.872941 0.074948
C19   C     C_R   0.496640 0.501268 0.127027 0.086744
C20   C     C_1   0.495418 0.501348 0.962810 -0.067659
C21   C     C_1   0.495605 0.501391 0.037218 -0.056886
C22   C     C_3   0.972046 0.448411 0.555759 -0.037766
C23   C     C_R   0.520904 0.768595 0.564461 -0.275416
C24   C     C_3   0.028471 0.552499 0.446646 -0.033093
C25   C     C_3   0.028225 0.432338 0.480994 0.518678
C26   C     C_3   0.972252 0.568568 0.521384 0.518053
C27   C     C_1   0.250149 0.500245 0.500807 -0.196125
C28   C     C_1   0.750067 0.500105 0.499716 -0.184037
C29   C     C_3   0.026867 0.518053 0.576863 -0.029886
C30   C     C_3   0.973708 0.482858 0.425505 -0.031430
C31   C     C_3   0.083173 0.501363 0.501957 -0.066189
C32   C     C_3   0.917247 0.499500 0.500378 -0.067718
C33   C     C_1   0.174759 0.500644 0.501562 -0.002036
C34   C     C_R   0.503594 0.233515 0.427059 -0.278266
C35   C     C_1   0.825541 0.499970 0.499897 0.001502
C36   C     C_R   0.522800 0.846852 0.561443 -0.193700
C37   C     C_R   0.505756 0.155336 0.425268 -0.199822
C38   C     C_3   0.007811 0.305490 0.451185 -0.351211
C39   C     C_3   0.992687 0.695399 0.551388 -0.349944
C40   C     C_3   0.349332 0.442619 0.873660 -0.404113
C41   C     C_3   0.271522 0.427029 0.820496 -0.376210
C42   C     C_3   0.194996 0.404532 0.871772 -0.856535
C43   C     C_3   0.590311 0.619145 0.127348 -0.423244
C44   C     C_3   0.530302 0.682358 0.101403 -0.318440
C45   C     C_R   0.494017 0.727462 0.497041 -0.162682
C46   C     C_3   0.578214 0.747297 0.060810 -0.867469
C47   C     C_3   0.932476 0.390095 0.613914 -0.368042
C48   C     C_3   0.998569 0.349589 0.666025 -0.340349
C49   C     C_3   0.961142 0.279816 0.707462 -0.871953
C50   C     C_3   0.068929 0.610778 0.388989 -0.377575
C51   C     C_3   0.003683 0.651933 0.336564 -0.331728
C52   C     C_3   0.042261 0.721516 0.295694 -0.883316
C53   C     C_3   0.936311 0.462363 0.342710 -0.372683
C54   C     C_3   0.004530 0.441812 0.280571 -0.320098
C55   C     C_3   0.965708 0.423067 0.198482 -0.881160
C56   C     C_R   0.498788 0.271713 0.501272 -0.162451
C57   C     C_3   0.064761 0.538694 0.659445 -0.375675
C58   C     C_3   0.996875 0.559117 0.721965 -0.320478
C59   C     C_3   0.036270 0.579517 0.803317 -0.884847
C60   C     C_3   0.348957 0.709671 0.374153 -0.316107
C61   C     C_3   0.402193 0.273683 0.668525 -0.342839
C62   C     C_3   0.449359 0.885365 0.342860 -0.377443
C63   C     C_3   0.521557 0.878022 0.281184 -0.313231
C64   C     C_3   0.499395 0.915403 0.200296 -0.870503
C65   C     C_3   0.505963 0.104870 0.652057 -0.387406
C66   C     C_3   0.596326 0.078532 0.668687 -0.328447
C67   C     C_R   0.465334 0.766032 0.426635 0.456377
C68   C     C_3   0.600582 0.030991 0.746216 -0.865308
C69   C     C_3   0.641144 0.565592 0.871815 -0.421643
C70   C     C_3   0.700658 0.504189 0.903371 -0.320842
C71   C     C_3   0.778702 0.538519 0.942771 -0.866319
C72   C     C_3   0.400587 0.384880 0.131907 -0.419625
C73   C     C_3   0.311400 0.413313 0.114198 -0.324739
C74   C     C_3   0.255660 0.350168 0.081791 -0.863411
C75   C     C_R   0.494584 0.229614 0.574938 0.464286
C76   C     C_R   0.471243 0.845295 0.421940 0.018373
Cu1   Cu    Cu3+1 0.500000 0.499980 0.580420 0.947866
Cu2   Cu    Cu3+1 0.500000 0.500020 0.419580 0.946393
H1    H     H_    0.382115 0.446706 0.706859 0.126477
H2    H     H_    0.007163 0.270358 0.507188 0.183939
H3    H     H_    0.027617 0.268859 0.400339 0.185533
H4    H     H_    0.993172 0.730839 0.495612 0.183896
H5    H     H_    0.057897 0.676168 0.564238 0.140367
H6    H     H_    0.973018 0.731734 0.602531 0.185181
H7    H     H_    0.206802 0.350223 0.903512 0.256551
H8    H     H_    0.180573 0.448749 0.917091 0.255113
H9    H     H_    0.139398 0.397250 0.831731 0.236763
H10   H     H_    0.255522 0.478511 0.784870 0.220987
H11   H     H_    0.284703 0.380190 0.778035 0.203903
H12   H     H_    0.578182 0.596209 0.289811 0.138192
H13   H     H_    0.366573 0.390321 0.907185 0.205465
H14   H     H_    0.330904 0.485672 0.919026 0.209586
H15   H     H_    0.624395 0.771984 0.103766 0.254374
H16   H     H_    0.611984 0.727246 0.005888 0.250540
H17   H     H_    0.533125 0.791894 0.042320 0.244139
H18   H     H_    0.482805 0.660295 0.058084 0.221805
H19   H     H_    0.496491 0.704173 0.155621 0.235392
H20   H     H_    0.639267 0.642903 0.168183 0.187107
H21   H     H_    0.624134 0.596374 0.073762 0.206852
H22   H     H_    0.906769 0.295704 0.746374 0.258760
H23   H     H_    0.544050 0.877662 0.614236 0.153888
H24   H     H_    0.939926 0.238559 0.661337 0.249590
H25   H     H_    0.009720 0.252740 0.746204 0.243543
H26   H     H_    0.053284 0.332466 0.628251 0.242126
H27   H     H_    0.021751 0.387876 0.713967 0.215779
H28   H     H_    0.886350 0.418571 0.654071 0.190821
H29   H     H_    0.896575 0.348660 0.577377 0.193043
H30   H     H_    0.063554 0.762417 0.342158 0.247843
H31   H     H_    0.096811 0.705279 0.257183 0.254731
H32   H     H_    0.994355 0.749193 0.256671 0.245620
H33   H     H_    0.980457 0.613913 0.288366 0.217200
H34   H     H_    0.508350 0.127107 0.367145 0.149815
H35   H     H_    0.948890 0.669418 0.374026 0.242641
H36   H     H_    0.104895 0.651848 0.425953 0.188378
H37   H     H_    0.115188 0.582203 0.349059 0.187957
H38   H     H_    0.921927 0.374283 0.204599 0.255960
H39   H     H_    0.930770 0.472412 0.174147 0.254323
H40   H     H_    0.016405 0.408309 0.154764 0.244693
H41   H     H_    0.049237 0.489428 0.272037 0.216824
H42   H     H_    0.040603 0.392219 0.302398 0.252134
H43   H     H_    0.892114 0.414181 0.350640 0.188563
H44   H     H_    0.898614 0.510617 0.320019 0.193073
H45   H     H_    0.541985 0.740172 0.619176 0.175084
H46   H     H_    0.072372 0.531068 0.827981 0.261223
H47   H     H_    0.079092 0.628844 0.796014 0.255674
H48   H     H_    0.985811 0.594059 0.847365 0.243926
H49   H     H_    0.959695 0.607909 0.699790 0.251478
H50   H     H_    0.953089 0.510997 0.731682 0.218074
H51   H     H_    0.102901 0.490665 0.682017 0.192053
H52   H     H_    0.108738 0.586985 0.651177 0.186928
H53   H     H_    0.324018 0.680282 0.320016 0.189100
H54   H     H_    0.311058 0.761672 0.382682 0.134839
H55   H     H_    0.340169 0.671268 0.427284 0.152351
H56   H     H_    0.505697 0.264109 0.369863 0.175157
H57   H     H_    0.397428 0.297740 0.730309 0.185016
H58   H     H_    0.368528 0.218482 0.669652 0.141694
H59   H     H_    0.370212 0.312928 0.625683 0.163746
H60   H     H_    0.443208 0.887712 0.173389 0.257647
H61   H     H_    0.486282 0.976257 0.209057 0.251070
H62   H     H_    0.553161 0.909863 0.157387 0.243415
H63   H     H_    0.579310 0.905158 0.305763 0.211573
H64   H     H_    0.535432 0.817585 0.270190 0.245040
H65   H     H_    0.390515 0.861224 0.317340 0.211526
H66   H     H_    0.436201 0.946023 0.352609 0.189074
H67   H     H_    0.617998 0.554613 0.709730 0.132948
H68   H     H_    0.579188 0.064296 0.799247 0.257250
H69   H     H_    0.560275 0.979945 0.740531 0.248998
H70   H     H_    0.666609 0.012939 0.756769 0.242633
H71   H     H_    0.620142 0.044332 0.617320 0.221625
H72   H     H_    0.638264 0.128493 0.675225 0.228471
H73   H     H_    0.484543 0.138348 0.704823 0.229718
H74   H     H_    0.462531 0.055644 0.648709 0.188520
H75   H     H_    0.814652 0.572921 0.897697 0.253958
H76   H     H_    0.760302 0.574585 0.994689 0.249470
H77   H     H_    0.820159 0.492817 0.965619 0.243735
H78   H     H_    0.419975 0.404999 0.293104 0.133632
H79   H     H_    0.667612 0.468035 0.948913 0.225591
H80   H     H_    0.721013 0.468064 0.852058 0.219204
H81   H     H_    0.676641 0.603200 0.829303 0.188268
H82   H     H_    0.619314 0.601583 0.922572 0.205452
H83   H     H_    0.284655 0.325064 0.026868 0.252635
H84   H     H_    0.247126 0.305492 0.128810 0.254047
H85   H     H_    0.192794 0.373037 0.065685 0.242837
H86   H     H_    0.282381 0.435418 0.170779 0.218413
H87   H     H_    0.314306 0.459822 0.068645 0.217542
H88   H     H_    0.431535 0.366405 0.074779 0.203068
H89   H     H_    0.942658 0.324707 0.438002 0.143096
H90   H     H_    0.396778 0.334286 0.172173 0.189412
N1    N     N_R   0.499980 0.499970 0.701220 -0.186160
N2    N     N_R   0.500020 0.500030 0.298780 -0.188657
O1    O     O_R   0.499990 0.391240 0.567930 -0.526844
O2    O     O_3   0.932932 0.636800 0.543335 -0.579735
O3    O     O_3   0.434963 0.726588 0.360522 -0.581222
O4    O     O_3   0.488423 0.265835 0.648826 -0.565666
O5    O     O_R   0.500010 0.608760 0.432070 -0.540242
O6    O     O_R   0.500000 0.391270 0.432120 -0.600046
O7    O     O_R   0.500000 0.608730 0.567880 -0.590251
O8    O     O_R   0.379070 0.499980 0.567900 -0.599174
O9    O     O_R   0.620930 0.500020 0.432100 -0.582308
O10   O     O_R   0.379080 0.500010 0.432080 -0.574303
O11   O     O_R   0.620920 0.499990 0.567920 -0.582725
O12   O     O_3   0.067555 0.364121 0.459005 -0.580750

loop_
_geom_bond_atom_site_label_1
_geom_bond_atom_site_label_2
_ccdc_geom_bond_type
C25   C31   S    
C66   C68   S    
C1    O6    A    
C34   C56   A    
C23   C45   A    
C22   C29   S    
C54   H42   S    
C13   H12   S    
C34   C37   A    
C41   C42   S    
C14   C18   A    
C9    N1    A    
C43   H20   S    
C62   H65   S    
C2    C65   S    
C60   H54   S    
C64   H60   S    
C53   C54   S    
C27   C33   T    
C59   H48   S    
C58   H50   S    
C62   C63   S    
C22   C32   S    
Cu2   O10   S    
C3    C36   A    
C57   H51   S    
C19   C21   S    
C1    C56   S    
C43   H21   S    
C39   H6    S    
C66   H72   S    
C73   H86   S    
C53   H44   S    
C55   H39   S    
C74   H85   S    
C11   C14   A    
C55   H38   S    
C34   H56   S    
C48   H26   S    
Cu2   N2    S    
C69   H82   S    
C50   H37   S    
C73   C74   S    
C37   H34   S    
C46   H17   S    
C48   H27   S    
C28   C35   T    
C16   O8    A    
C4    C37   A    
C22   C25   S    
C45   C67   A    
Cu1   O11   S    
C31   C33   S    
C70   C71   S    
C42   H8    S    
C68   H70   S    
C72   C73   S    
C17   O9    A    
C16   C27   S    
C22   C47   S    
C26   O2    S    
C58   H49   S    
C56   C75   A    
C54   H41   S    
C75   O4    S    
Cu2   O6    S    
C60   O3    S    
C72   H90   S    
C62   C76   S    
C60   H53   S    
C47   H28   S    
C44   C46   S    
C24   C50   S    
C38   H89   S    
C30   C53   S    
C8    C72   S    
C8    C19   A    
C51   C52   S    
C32   C35   S    
C57   H52   S    
C66   H71   S    
C73   H87   S    
C10   H78   S    
C49   H24   S    
C74   H84   S    
C26   C32   S    
C25   C30   S    
C23   H45   S    
C58   C59   S    
Cu1   Cu2   S    
C71   H76   S    
C1    O1    A    
Cu1   O7    S    
Cu2   O9    S    
C36   H23   S    
C50   H36   S    
C65   H73   S    
C15   C19   A    
C43   C44   S    
C49   H25   S    
C39   O2    S    
C44   H18   S    
C44   H19   S    
C47   C48   S    
C46   H16   S    
C52   H32   S    
Cu1   O1    S    
C7    C18   A    
C71   H77   S    
C50   C51   S    
C63   H63   S    
C42   H7    S    
C51   H35   S    
C40   H14   S    
C3    C76   A    
C68   H69   S    
C11   H1    S    
C12   O5    A    
C4    C6    S    
C48   C49   S    
C29   C57   S    
C11   N1    A    
C47   H29   S    
C13   C15   A    
C38   H3    S    
Cu2   O5    S    
C10   N2    A    
C68   H68   S    
C25   O12   S    
C61   H57   S    
C64   H62   S    
C59   H46   S    
C7    C9    A    
C41   H10   S    
C54   C55   S    
C40   C41   S    
C51   H33   S    
C41   H11   S    
C17   C28   S    
C72   H88   S    
C8    C10   A    
C61   O4    S    
C39   H4    S    
C24   C26   S    
C12   C45   S    
C3    C5    S    
C7    C69   S    
C74   H83   S    
C13   N2    A    
C67   C76   A    
C23   C36   A    
C59   H47   S    
Cu1   O8    S    
C38   O12   S    
C70   H79   S    
C65   H74   S    
C24   C31   S    
C15   C43   S    
C29   C31   S    
C53   H43   S    
C49   H22   S    
C30   C32   S    
C61   H59   S    
C57   C58   S    
C5    C6    T    
C46   H15   S    
C38   H2    S    
C52   H31   S    
C67   O3    S    
C2    C4    A    
C9    H67   S    
C69   H81   S    
C63   H64   S    
C12   O7    A    
C18   C20   S    
C40   H13   S    
C69   C70   S    
C24   C30   S    
C39   H5    S    
C14   C40   S    
C63   C64   S    
C17   O11   A    
C20   C21   T    
C52   H30   S    
C26   C29   S    
Cu1   N1    S    
C65   C66   S    
C42   H9    S    
C70   H80   S    
C60   H55   S    
C64   H61   S    
C2    C75   A    
C16   O10   A    
C61   H58   S    
C62   H66   S    
C55   H40   S    
C71   H75   S    
