data_mof_unit_17947.cif
_audit_creation_date              2012-12-10T17:16:40-0500
_audit_creation_method            fapswitch 2.2
_symmetry_space_group_name_H-M    P1
_symmetry_Int_Tables_number       1
_space_group_crystal_system       triclinic
_cell_length_a                    10.109356
_cell_length_b                    10.401234
_cell_length_c                    10.580756
_cell_angle_alpha                 89.655411
_cell_angle_beta                  93.797672
_cell_angle_gamma                 82.281772
_cell_volume                      1099.93894014

loop_
_atom_site_label
_atom_site_type_symbol
_atom_type_description
_atom_site_fract_x
_atom_site_fract_y
_atom_site_fract_z
_atom_type_partial_charge
C1    C     C_R   0.445655 0.503305 0.265717 1.004944
C2    C     C_R   0.508239 0.735457 0.529912 0.929496
C3    C     C_R   0.768278 0.101202 0.614643 0.491854
C4    C     C_R   0.319740 0.885368 0.708948 0.480623
C5    C     C_R   0.888773 0.020795 0.599292 -0.260654
C6    C     C_R   0.212006 0.966543 0.755535 -0.261737
C7    C     C_R   0.890525 0.888146 0.588189 -0.205234
C8    C     C_R   0.200163 0.099738 0.738075 -0.246334
C9    C     C_R   0.771821 0.835083 0.590150 -0.140661
C10   C     C_R   0.296087 0.154594 0.676133 -0.102205
C11   C     C_R   0.646897 0.914699 0.586928 0.006562
C12   C     C_R   0.554451 0.487710 0.734611 1.004366
C13   C     C_R   0.407613 0.076564 0.629748 0.007725
C14   C     C_R   0.644779 0.050362 0.593761 0.045033
C15   C     C_R   0.415009 0.939953 0.639370 0.042720
C16   C     C_R   0.523821 0.863422 0.585745 -0.204470
C17   C     C_R   0.518176 0.129269 0.583752 -0.190210
C18   C     C_3   0.695338 0.522778 0.938462 -0.974139
C19   C     C_3   0.308439 0.577178 0.060123 -0.996370
C20   C     C_2   0.419353 0.487475 0.130307 -0.058356
C21   C     C_2   0.581563 0.465142 0.870486 -0.008620
C22   C     C_2   0.502747 0.398260 0.070815 0.342551
C23   C     C_2   0.498485 0.398582 0.932005 0.352677
C24   C     C_2   0.074738 0.484459 0.491672 -0.139587
C25   C     C_2   0.931715 0.493861 0.522778 -0.157922
C26   C     C_R   0.505560 0.261599 0.528229 0.949306
H1    H     H_    0.118161 0.161545 0.776752 0.157436
H2    H     H_    0.120390 0.610060 0.622398 0.160885
H3    H     H_    0.864297 0.241738 0.676202 0.321190
H4    H     H_    0.264415 0.733600 0.788298 0.318209
H5    H     H_    0.353036 0.294339 0.926900 0.332751
H6    H     H_    0.645479 0.253107 0.078846 0.334535
H7    H     H_    0.749815 0.575256 0.871302 0.244583
H8    H     H_    0.656127 0.592888 0.010156 0.261053
H9    H     H_    0.767233 0.444522 0.986099 0.266458
H10   H     H_    0.252355 0.643183 0.126073 0.259006
H11   H     H_    0.351470 0.637748 0.991074 0.271058
H12   H     H_    0.985018 0.825679 0.586406 0.153821
H13   H     H_    0.237081 0.519803 0.009431 0.267716
H14   H     H_    0.982065 0.060288 0.603587 0.153871
H15   H     H_    0.139000 0.926796 0.809232 0.143959
H16   H     H_    0.780752 0.732001 0.602312 0.163067
H17   H     H_    0.284459 0.258727 0.675387 0.223169
H18   H     H_    0.901943 0.540390 0.609503 0.150218
H19   H     H_    0.110577 0.419876 0.417468 0.171283
H20   H     H_    0.875348 0.405908 0.366847 0.181951
N1    N     N_2   0.157300 0.551390 0.551120 -0.184142
N2    N     N_2   0.842700 0.448610 0.448880 -0.171772
O1    O     O_R   0.568940 0.489660 0.307530 -0.561085
O2    O     O_3   0.341967 0.756130 0.744223 -0.777075
O3    O     O_3   0.403273 0.337524 0.865410 -0.801049
O4    O     O_3   0.594971 0.309589 0.139441 -0.765864
O5    O     O_R   0.431060 0.510340 0.692470 -0.554305
O6    O     O_R   0.348880 0.522640 0.340350 -0.616667
O7    O     O_R   0.651120 0.477360 0.659650 -0.616111
O8    O     O_R   0.610030 0.300280 0.483580 -0.545501
O9    O     O_R   0.389970 0.699720 0.516420 -0.568640
O10   O     O_R   0.389970 0.333270 0.516400 -0.645552
O11   O     O_R   0.610030 0.666730 0.483600 -0.634887
O12   O     O_3   0.770520 0.223334 0.664546 -0.756533
Zn1   Zn    Zn3+2 0.646940 0.477980 0.478080 0.984863
Zn2   Zn    Zn3+2 0.353060 0.522020 0.521920 0.966741

loop_
_geom_bond_atom_site_label_1
_geom_bond_atom_site_label_2
_ccdc_geom_bond_type
O10   Zn2   S    
C1    O6    A    
C10   C13   A    
H2    N1    S    
C18   C21   S    
C2    C16   S    
C11   C16   A    
C23   O3    S    
C19   C20   S    
C14   C17   A    
H3    O12   S    
C13   C17   A    
C3    O12   S    
C24   N1    D    
N1    Zn2   S    
C21   C23   D    
H4    O2    S    
C2    O9    A    
O9    Zn2   S    
C9    C11   A    
C25   N2    D    
N2    Zn1   S    
C3    C14   A    
C19   H13   S    
C18   H8    S    
C9    H16   S    
C24   H19   S    
O7    Zn1   S    
C25   H18   S    
C22   O4    S    
C11   C14   A    
C7    H12   S    
C20   C22   D    
C19   H10   S    
C13   C15   A    
C4    C15   A    
C18   H7    S    
H20   N2    S    
O11   Zn1   S    
C12   O7    A    
O1    Zn1   S    
C17   C26   S    
C15   C16   A    
C7    C9    A    
C24   C25   S    
O5    Zn2   S    
C4    C6    A    
C18   H9    S    
C5    H14   S    
H5    O3    S    
C5    C7    A    
C8    H1    S    
O8    Zn1   S    
H6    O4    S    
C1    C20   S    
C6    C8    A    
C19   H11   S    
C10   H17   S    
C22   C23   S    
C2    O11   A    
C1    O1    A    
C12   C21   S    
C26   O10   A    
C8    C10   A    
O6    Zn2   S    
C12   O5    A    
C4    O2    S    
C3    C5    A    
C6    H15   S    
C26   O8    A    
