data_mof_unit_56683.cif
_audit_creation_date              2012-12-10T19:05:16-0500
_audit_creation_method            fapswitch 2.2
_symmetry_space_group_name_H-M    P1
_symmetry_Int_Tables_number       1
_space_group_crystal_system       triclinic
_cell_length_a                    9.624781
_cell_length_b                    10.847639
_cell_length_c                    17.141428
_cell_angle_alpha                 90.703491
_cell_angle_beta                  85.302591
_cell_angle_gamma                 89.845764
_cell_volume                      1783.51243712

loop_
_atom_site_label
_atom_site_type_symbol
_atom_type_description
_atom_site_fract_x
_atom_site_fract_y
_atom_site_fract_z
_atom_type_partial_charge
C1    C     C_R   0.499435 0.737013 0.504007 0.882121
C2    C     C_R   0.378109 0.551951 0.781393 -0.170943
C3    C     C_R   0.461105 0.568711 0.141427 -0.099893
C4    C     C_R   0.453027 0.576017 0.222570 -0.030166
C5    C     C_R   0.629427 0.416691 0.224616 -0.224489
C6    C     C_R   0.638370 0.409057 0.143029 0.457624
C7    C     C_R   0.549904 0.482332 0.101379 0.062826
C8    C     C_2   0.431231 0.442626 0.981673 0.418907
C9    C     C_2   0.548206 0.469133 0.016285 -0.194945
C10   C     C_R   0.534175 0.497879 0.264599 -0.100749
C11   C     C_R   0.386520 0.937656 0.488824 -0.014453
C12   C     C_R   0.481076 0.495322 0.649885 0.860079
C13   C     C_R   0.498262 0.869900 0.512137 -0.151793
C14   C     C_R   0.608580 0.937247 0.543058 0.360916
C15   C     C_R   0.606268 0.066964 0.542489 -0.102422
C16   C     C_R   0.497717 0.130804 0.510224 -0.081387
C17   C     C_R   0.387489 0.061773 0.487303 -0.018975
C18   C     C_3   0.256684 0.071683 0.447841 -0.441387
C19   C     C_3   0.252358 0.929913 0.450708 0.280022
C20   C     C_R   0.938256 0.472458 0.433779 0.096176
C21   C     C_R   0.915270 0.546370 0.561549 0.028776
C22   C     C_R   0.063168 0.549531 0.561110 0.453306
C23   C     C_R   0.499487 0.263130 0.502909 0.859385
C24   C     C_R   0.083193 0.479205 0.432465 0.149886
C25   C     C_3   0.103777 0.379564 0.372010 0.123682
C26   C     C_3   0.944873 0.368767 0.374324 0.183873
C27   C     C_R   0.519484 0.500182 0.349942 0.855689
C28   C     C_R   0.468502 0.476194 0.734364 -0.165856
C29   C     C_R   0.540164 0.378779 0.767774 0.296003
C30   C     C_R   0.519804 0.357919 0.849021 0.352454
C31   C     C_R   0.435607 0.441744 0.896092 -0.106960
C32   C     C_R   0.363160 0.535825 0.861691 -0.144398
Cu1   Cu    Cu3+1 0.359330 0.500020 0.500000 1.065424
Cu2   Cu    Cu3+1 0.640670 0.499980 0.500000 1.081105
H1    H     H_    0.688213 0.117293 0.567853 0.240509
H2    H     H_    0.172987 0.117535 0.486133 0.208439
H3    H     H_    0.276294 0.110034 0.388163 0.233379
H4    H     H_    0.165046 0.893203 0.490115 0.148648
H5    H     H_    0.851963 0.584644 0.611052 0.198500
H6    H     H_    0.381603 0.641032 0.252392 0.249943
H7    H     H_    0.161127 0.299856 0.393392 0.151234
H8    H     H_    0.900738 0.395690 0.319131 0.148182
H9    H     H_    0.693094 0.356329 0.256821 0.195928
H10   H     H_    0.646191 0.480333 0.980828 0.180888
H11   H     H_    0.298070 0.599662 0.897581 0.203849
H12   H     H_    0.395918 0.628758 0.109804 0.194637
H13   H     H_    0.322799 0.626711 0.756228 0.221278
N1    N     N_R   0.852130 0.499070 0.499500 -0.192138
N2    N     N_R   0.148040 0.499110 0.499500 -0.233798
O1    O     O_R   0.381190 0.680360 0.500000 -0.540692
O2    O     O_R   0.618770 0.680320 0.499990 -0.544417
O3    O     O_R   0.367430 0.500040 0.613600 -0.539805
O4    O     O_R   0.605020 0.500000 0.613590 -0.562912
O5    O     O_R   0.381230 0.319680 0.500010 -0.607807
O6    O     O_R   0.618810 0.319640 0.500000 -0.499512
O7    O     O_R   0.394980 0.500000 0.386410 -0.531400
O8    O     O_R   0.632570 0.499960 0.386400 -0.592751
Cl1   Cl    Cl    0.654225 0.282933 0.707477 -0.503615
Cl2   Cl    Cl    0.756092 0.302887 0.095308 -0.403542
Cl3   Cl    Cl    0.748806 0.866275 0.585390 -0.558818
S1    S     S_3+6 0.270342 0.857766 0.356014 0.043394
O9    O     O_2   0.220025 0.727300 0.363801 -0.249923
O10   O     O_2   0.183037 0.924067 0.300917 -0.183819
O11   O     O_3   0.438142 0.857908 0.319731 -0.539736
H14   H     H_    0.462045 0.946066 0.312677 0.372412
Cl4   Cl    Cl    0.128850 0.637409 0.636179 -0.572099
Cl5   Cl    Cl    0.172253 0.433915 0.279079 -0.495564
S2    S     S_3+6 0.891415 0.218828 0.406507 0.019071
O12   O     O_2   0.746253 0.193770 0.384643 -0.279297
O13   O     O_2   0.986803 0.124149 0.365709 -0.243969
O14   O     O_3   0.900722 0.209908 0.503776 -0.543362
H15   H     H_    0.923048 0.122507 0.513411 0.374840
Cl6   Cl    Cl    0.269646 0.414300 0.035014 -0.425281
S3    S     S_3+6 0.596600 0.226348 0.890044 0.106759
O15   O     O_2   0.748821 0.251300 0.896341 -0.201008
O16   O     O_2   0.528247 0.197623 0.969696 -0.212857
O17   O     O_3   0.580074 0.102404 0.831620 -0.447349
H16   H     H_    0.636466 0.037026 0.853873 0.394143

loop_
_geom_bond_atom_site_label_1
_geom_bond_atom_site_label_2
_ccdc_geom_bond_type
C10   C27   S    
C8    C9    D    
C32   H11   S    
C25   Cl5   S    
O17   H16   S    
Cu1   O3    S    
C11   C19   S    
Cu2   O2    S    
S3    O16   D    
C12   C28   S    
C28   C29   A    
C18   H3    S    
C3    C7    A    
C5    C6    A    
C30   S3    S    
Cu1   N2    S    
C15   C16   A    
C24   N2    A    
C2    C32   A    
C18   C19   S    
S1    O10   D    
C22   Cl4   S    
C4    H6    S    
C16   C17   A    
S3    O17   S    
Cu2   O8    S    
C1    O1    A    
C12   O4    A    
C21   N1    A    
Cu1   O7    S    
C5    H9    S    
Cu2   O6    S    
C13   C14   A    
C15   H1    S    
C12   O3    A    
C17   C18   S    
S3    O15   D    
C20   C24   A    
C24   C25   S    
C27   O8    A    
C25   H7    S    
C27   O7    A    
S2    O12   D    
C25   C26   S    
S1    O11   S    
C29   C30   A    
C19   H4    S    
C31   C32   A    
C21   H5    S    
Cu1   Cu2   S    
C1    O2    A    
C20   N1    A    
C22   N2    A    
C16   C23   S    
Cu2   N1    S    
C4    C10   A    
C3    C4    A    
C26   H8    S    
C23   O5    A    
Cu1   O5    S    
C7    C9    S    
C11   C17   A    
C9    H10   S    
C8    C31   S    
C6    Cl2   S    
C23   O6    A    
C6    C7    A    
C2    H13   S    
C14   Cl3   S    
C3    H12   S    
C26   S2    S    
O11   H14   S    
Cu1   O1    S    
O14   H15   S    
C11   C13   A    
C30   C31   A    
C20   C26   S    
C19   S1    S    
S2    O14   S    
C8    Cl6   S    
S1    O9    D    
C5    C10   A    
C1    C13   S    
C29   Cl1   S    
Cu2   O4    S    
S2    O13   D    
C14   C15   A    
C2    C28   A    
C21   C22   A    
C18   H2    S    
