data_mof_unit_39947.cif
_audit_creation_date              2012-12-11T15:50:32-0500
_audit_creation_method            fapswitch 2.2
_symmetry_space_group_name_H-M    P1
_symmetry_Int_Tables_number       1
_space_group_crystal_system       triclinic
_cell_length_a                    18.98868
_cell_length_b                    11.313931
_cell_length_c                    18.667636
_cell_angle_alpha                 90.036135
_cell_angle_beta                  90.779247
_cell_angle_gamma                 90.819746
_cell_volume                      4009.70903561

loop_
_atom_site_label
_atom_site_type_symbol
_atom_type_description
_atom_site_fract_x
_atom_site_fract_y
_atom_site_fract_z
_atom_type_partial_charge
C1    C     C_R   0.290269 0.997906 0.860804 0.554738
C2    C     C_R   0.781260 0.512766 0.938010 0.040772
C3    C     C_R   0.208121 0.493267 0.360291 0.576790
C4    C     C_R   0.468935 0.825368 0.647471 0.563343
C5    C     C_R   0.530895 0.823122 0.353163 0.550059
C6    C     C_R   0.968935 0.325368 0.647471 0.563345
C7    C     C_R   0.030895 0.323122 0.353163 0.550059
C8    C     C_R   0.259584 0.635076 0.645104 0.562761
C9    C     C_R   0.741500 0.632756 0.353222 0.556736
C10   C     C_R   0.759584 0.135076 0.645104 0.562762
C11   C     C_R   0.241500 0.132756 0.353222 0.556736
C12   C     C_3   0.482696 0.917979 0.036833 -0.180621
C13   C     C_R   0.718312 0.013432 0.062219 0.040391
C14   C     C_3   0.520367 0.917605 0.962716 -0.181167
C15   C     C_3   0.982693 0.417984 0.036833 -0.180621
C16   C     C_3   0.020364 0.417606 0.962716 -0.181155
C17   C     C_3   0.430100 0.820993 0.009839 0.009527
C18   C     C_3   0.571255 0.820589 0.989927 0.009732
C19   C     C_3   0.930096 0.320999 0.009839 0.009525
C20   C     C_3   0.071250 0.320590 0.989928 0.009704
C21   C     C_3   0.467707 0.821289 0.936944 -0.019186
C22   C     C_3   0.533600 0.821481 0.062869 -0.019173
C23   C     C_3   0.967703 0.321291 0.936944 -0.019187
C24   C     C_R   0.281247 0.012789 0.938020 0.040744
C25   C     C_3   0.033595 0.321485 0.062870 -0.019172
C26   C     C_R   0.274512 0.466752 0.024242 0.022963
C27   C     C_R   0.723911 0.465729 0.975460 0.023963
C28   C     C_R   0.774513 0.966749 0.024242 0.022967
C29   C     C_R   0.223910 0.965706 0.975470 0.023901
C30   C     C_R   0.286645 0.498606 0.954184 0.034756
C31   C     C_R   0.711869 0.496994 0.045662 0.034011
C32   C     C_R   0.786646 0.998603 0.954183 0.034755
C33   C     C_R   0.709818 0.998771 0.139468 0.552048
C34   C     C_R   0.211871 0.996963 0.045678 0.034010
C35   C     C_R   0.176584 0.599214 0.950034 -0.121204
C36   C     C_R   0.823568 0.598019 0.050734 -0.120501
C37   C     C_R   0.676581 0.099196 0.950029 -0.121218
C38   C     C_R   0.323565 0.098021 0.050742 -0.120502
C39   C     C_R   0.165756 0.571111 0.022000 -0.128927
C40   C     C_R   0.834486 0.570253 0.978758 -0.129992
C41   C     C_R   0.665754 0.071101 0.021997 -0.128940
C42   C     C_R   0.334475 0.070269 0.978764 -0.130001
C43   C     C_3   0.350159 0.446907 0.039849 -0.207799
C44   C     C_R   0.790277 0.497888 0.860797 0.554755
C45   C     C_3   0.647776 0.447980 0.959148 -0.208235
C46   C     C_3   0.850160 0.946903 0.039848 -0.207802
C47   C     C_3   0.147770 0.948052 0.959148 -0.208187
C48   C     C_3   0.364172 0.484937 0.962377 -0.200793
C49   C     C_3   0.634078 0.484810 0.036741 -0.202423
C50   C     C_3   0.864173 0.984937 0.962378 -0.200787
C51   C     C_3   0.134077 0.984884 0.036740 -0.202361
C52   C     C_R   0.241140 0.573670 0.916998 0.058849
C53   C     C_R   0.758268 0.572408 0.083194 0.057633
C54   C     C_R   0.741140 0.073663 0.916996 0.058846
C55   C     C_R   0.209818 0.498771 0.139468 0.552049
C56   C     C_R   0.258268 0.072400 0.083201 0.057627
C57   C     C_R   0.501279 0.831215 0.424835 0.025142
C58   C     C_R   0.493111 0.840153 0.575174 0.022302
C59   C     C_R   0.001279 0.331215 0.424835 0.025142
C60   C     C_R   0.993111 0.340153 0.575174 0.022301
C61   C     C_R   0.441053 0.816673 0.862485 0.539627
C62   C     C_R   0.559682 0.817194 0.137584 0.540391
C63   C     C_R   0.941051 0.316673 0.862485 0.539616
C64   C     C_R   0.059680 0.317194 0.137584 0.540388
C65   C     C_R   0.501259 0.729935 0.467104 0.045469
C66   C     C_3   0.517578 0.726922 0.964310 0.412741
C67   C     C_R   0.502686 0.736976 0.540042 0.051002
C68   C     C_R   0.001259 0.229935 0.467104 0.045469
C69   C     C_R   0.002685 0.236976 0.540042 0.051002
C70   C     C_R   0.482921 0.943768 0.534255 -0.138317
C71   C     C_R   0.489555 0.940004 0.459139 -0.138882
C72   C     C_R   0.982922 0.443768 0.534255 -0.138317
C73   C     C_R   0.989555 0.440004 0.459139 -0.138882
C74   C     C_3   0.555308 0.637498 0.472622 -0.242710
C75   C     C_3   0.560768 0.654226 0.551747 -0.268374
C76   C     C_3   0.055308 0.137498 0.472622 -0.242710
C77   C     C_3   0.482028 0.727293 0.035661 0.413571
C78   C     C_3   0.060768 0.154225 0.551747 -0.268375
C79   C     C_R   0.219462 0.500149 0.437331 -0.024733
C80   C     C_R   0.775879 0.514417 0.562098 0.003229
C81   C     C_R   0.719462 0.000149 0.437331 -0.024734
C82   C     C_R   0.275879 0.014417 0.562098 0.003228
C83   C     C_R   0.171103 0.562726 0.474588 -0.021973
C84   C     C_R   0.826629 0.577429 0.526626 -0.024132
C85   C     C_R   0.671103 0.062726 0.474588 -0.021973
C86   C     C_R   0.326629 0.077429 0.526626 -0.024132
C87   C     C_R   0.180586 0.590386 0.546480 0.027851
C88   C     C_3   0.017572 0.226923 0.964312 0.412729
C89   C     C_R   0.818868 0.601692 0.454955 0.021623
C90   C     C_R   0.680586 0.090386 0.546480 0.027851
C91   C     C_R   0.318868 0.101692 0.454955 0.021623
C92   C     C_R   0.300747 0.523264 0.538199 0.101032
C93   C     C_R   0.703946 0.504059 0.451967 0.061293
C94   C     C_R   0.800747 0.023264 0.538199 0.101032
C95   C     C_R   0.203946 0.004059 0.451967 0.061293
C96   C     C_R   0.287228 0.490561 0.467690 -0.110749
C97   C     C_R   0.711347 0.486195 0.526287 -0.144183
C98   C     C_R   0.787228 0.990561 0.467690 -0.110749
C99   C     C_3   0.982022 0.227298 0.035663 0.413586
C100  C     C_R   0.211347 0.986195 0.526287 -0.144183
C101  C     C_3   0.162123 0.688237 0.455634 0.001445
C102  C     C_3   0.844116 0.702484 0.545870 -0.006107
C103  C     C_3   0.662123 0.188237 0.455634 0.001445
C104  C     C_3   0.344116 0.202484 0.545870 -0.006108
C105  C     C_3   0.159312 0.714027 0.532916 -0.023262
C106  C     C_3   0.839999 0.727126 0.467512 -0.017638
C107  C     C_3   0.659312 0.214027 0.532916 -0.023262
C108  C     C_3   0.339999 0.227126 0.467512 -0.017638
C109  C     C_R   0.259780 0.636458 0.851159 0.542534
C110  C     C_R   0.218312 0.513435 0.062219 0.040393
C111  C     C_R   0.740032 0.635789 0.148784 0.545864
C112  C     C_R   0.759779 0.136455 0.851158 0.542526
C113  C     C_R   0.240032 0.135789 0.148786 0.545860
C114  C     C_R   0.245545 0.570386 0.579500 0.041797
C115  C     C_R   0.757486 0.568134 0.417481 0.044896
C116  C     C_R   0.745545 0.070386 0.579500 0.041796
C117  C     C_R   0.257486 0.068134 0.417481 0.044896
C118  C     C_R   0.289508 0.998120 0.638158 0.578019
C119  C     C_R   0.708121 0.993267 0.360291 0.576790
C120  C     C_R   0.789508 0.498120 0.638158 0.578019
Cr1   Cr    Cr6+3 0.229640 0.835880 0.747370 1.060085
Cr2   Cr    Cr6+3 0.614230 0.677220 0.250660 1.090583
Cr3   Cr    Cr6+3 0.885770 0.177220 0.749340 1.096960
Cr4   Cr    Cr6+3 0.114230 0.177220 0.250660 1.090578
Cr5   Cr    Cr6+3 0.770360 0.835880 0.252630 1.066353
Cr6   Cr    Cr6+3 0.729640 0.335880 0.747370 1.060078
Cr7   Cr    Cr6+3 0.270360 0.335880 0.252630 1.066352
Cr8   Cr    Cr6+3 0.387390 0.989720 0.750850 1.054119
Cr9   Cr    Cr6+3 0.612610 0.989720 0.249150 1.055296
Cr10  Cr    Cr6+3 0.887390 0.489720 0.750850 1.054113
Cr11  Cr    Cr6+3 0.112610 0.489720 0.249150 1.055298
Cr12  Cr    Cr6+3 0.385770 0.677220 0.749340 1.096963
F1    F     F_    0.530420 0.621928 0.929600 -0.627532
F2    F     F_    0.467584 0.622882 0.070792 -0.626782
F3    F     F_    0.030414 0.121928 0.929602 -0.627534
F4    F     F_    0.967576 0.122891 0.070796 -0.626773
H1    H     H_    0.470448 0.026214 0.559945 0.171532
H2    H     H_    0.610196 0.699804 0.569047 0.170929
H3    H     H_    0.027554 0.053415 0.459704 0.224835
H4    H     H_    0.110195 0.199803 0.569047 0.170929
H5    H     H_    0.331330 0.465481 0.435341 0.194840
H6    H     H_    0.666791 0.453086 0.555773 0.171259
H7    H     H_    0.831330 0.965481 0.435341 0.194839
H8    H     H_    0.166791 0.953086 0.555773 0.171259
H9    H     H_    0.110913 0.696300 0.427051 0.209083
H10   H     H_    0.897643 0.712444 0.569690 0.204667
H11   H     H_    0.610913 0.196300 0.427051 0.209083
H12   H     H_    0.488653 0.021097 0.428757 0.178204
H13   H     H_    0.397643 0.212444 0.569690 0.204667
H14   H     H_    0.201636 0.775798 0.548420 0.154079
H15   H     H_    0.794926 0.782275 0.453959 0.144111
H16   H     H_    0.701636 0.275798 0.548420 0.154079
H17   H     H_    0.294926 0.282275 0.453959 0.144111
H18   H     H_    0.469118 0.999275 0.066597 0.152764
H19   H     H_    0.535014 0.998489 0.932520 0.152400
H20   H     H_    0.969116 0.499281 0.066596 0.152759
H21   H     H_    0.035014 0.498488 0.932521 0.152405
H22   H     H_    0.136354 0.649170 0.922448 0.131804
H23   H     H_    0.970449 0.526214 0.559945 0.171532
H24   H     H_    0.864432 0.647882 0.078791 0.133347
H25   H     H_    0.636349 0.149138 0.922439 0.131797
H26   H     H_    0.364428 0.147893 0.078798 0.133354
H27   H     H_    0.117614 0.599785 0.046701 0.134999
H28   H     H_    0.883298 0.598909 0.954431 0.133545
H29   H     H_    0.617612 0.099772 0.046698 0.134995
H30   H     H_    0.383280 0.098942 0.954433 0.133555
H31   H     H_    0.861179 0.852268 0.049618 0.135449
H32   H     H_    0.134273 0.853952 0.948472 0.134192
H33   H     H_    0.361179 0.352274 0.049621 0.135451
H34   H     H_    0.988653 0.521097 0.428757 0.178204
H35   H     H_    0.634320 0.353864 0.948481 0.134181
H36   H     H_    0.369506 0.507380 0.082377 0.255893
H37   H     H_    0.629826 0.509933 0.917230 0.253768
H38   H     H_    0.869508 0.007371 0.082378 0.255894
H39   H     H_    0.129853 0.010032 0.917231 0.253773
H40   H     H_    0.392805 0.570383 0.957400 0.219172
H41   H     H_    0.607205 0.570535 0.042166 0.217700
H42   H     H_    0.892805 0.070385 0.957402 0.219178
H43   H     H_    0.107245 0.070645 0.042169 0.217624
H44   H     H_    0.384220 0.412179 0.928591 0.162248
H45   H     H_    0.104567 0.163082 0.445031 0.169883
H46   H     H_    0.612114 0.411747 0.069774 0.161668
H47   H     H_    0.884223 0.912181 0.928590 0.162251
H48   H     H_    0.112069 0.911845 0.069761 0.161691
H49   H     H_    0.047117 0.074428 0.583224 0.209098
H50   H     H_    0.604568 0.663082 0.445031 0.169883
H51   H     H_    0.547117 0.574428 0.583224 0.209098
H52   H     H_    0.527554 0.553415 0.459704 0.224835
I1    I     I_    0.330004 0.777207 0.052536 -0.365328
I2    I     I_    0.756712 0.780335 0.605762 -0.353248
I3    I     I_    0.764807 0.258193 0.410347 -0.312555
I4    I     I_    0.256712 0.280335 0.605762 -0.353250
I5    I     I_    0.059133 0.749665 0.578024 -0.371342
I6    I     I_    0.936616 0.768312 0.414720 -0.338904
I7    I     I_    0.559133 0.249665 0.578024 -0.371342
I8    I     I_    0.436616 0.268312 0.414720 -0.338904
I9    I     I_    0.670025 0.774819 0.946412 -0.369262
I10   I     I_    0.830000 0.277225 0.052533 -0.365351
I11   I     I_    0.170023 0.274832 0.946409 -0.369347
I12   I     I_    0.404781 0.489268 0.574695 -0.299500
I13   I     I_    0.616874 0.426298 0.387940 -0.289812
I14   I     I_    0.904781 0.989268 0.574695 -0.299499
I15   I     I_    0.116874 0.926298 0.387940 -0.289812
I16   I     I_    0.264807 0.758193 0.410347 -0.312555
O1    O     O_R   0.214300 0.709080 0.827500 -0.528632
O2    O     O_R   0.543340 0.717710 0.330180 -0.484592
O3    O     O_R   0.956660 0.217710 0.669820 -0.473417
O4    O     O_R   0.043340 0.217710 0.330180 -0.484592
O5    O     O_R   0.320590 0.625770 0.672930 -0.464203
O6    O     O_R   0.679410 0.625770 0.327070 -0.484830
O7    O     O_R   0.820590 0.125770 0.672930 -0.464202
O8    O     O_R   0.179410 0.125770 0.327070 -0.484829
O9    O     O_3   0.334270 0.834280 0.749190 -0.351941
O10   O     O_3   0.665730 0.834280 0.250810 -0.357355
O11   O     O_3   0.834270 0.334280 0.749190 -0.351958
O12   O     O_R   0.785700 0.709080 0.172500 -0.527581
O13   O     O_3   0.165730 0.334280 0.250810 -0.357352
O14   O     O_R   0.236190 0.958390 0.823150 -0.478363
O15   O     O_R   0.763810 0.958390 0.176850 -0.477548
O16   O     O_R   0.736190 0.458390 0.823150 -0.478361
O17   O     O_R   0.263810 0.458390 0.176850 -0.477548
O18   O     O_R   0.332090 0.075280 0.831290 -0.488470
O19   O     O_R   0.667910 0.075280 0.168710 -0.487824
O20   O     O_R   0.832090 0.575280 0.831290 -0.488472
O21   O     O_R   0.167910 0.575280 0.168710 -0.487823
O22   O     O_R   0.446280 0.918040 0.826620 -0.517486
O23   O     O_R   0.714300 0.209080 0.827500 -0.528640
O24   O     O_R   0.553720 0.918040 0.173380 -0.513428
O25   O     O_R   0.946280 0.418040 0.826620 -0.517495
O26   O     O_R   0.053720 0.418040 0.173380 -0.513427
O27   O     O_R   0.457080 0.716270 0.831760 -0.419036
O28   O     O_R   0.542920 0.716270 0.168240 -0.413899
O29   O     O_R   0.957080 0.216270 0.831760 -0.419028
O30   O     O_R   0.042920 0.216270 0.168240 -0.413904
O31   O     O_R   0.320980 0.624440 0.823040 -0.508207
O32   O     O_R   0.679020 0.624440 0.176960 -0.505002
O33   O     O_R   0.820980 0.124440 0.823040 -0.508206
O34   O     O_R   0.285700 0.209080 0.172500 -0.527584
O35   O     O_R   0.179020 0.124440 0.176960 -0.505015
O36   O     O_R   0.213880 0.710510 0.665560 -0.514772
O37   O     O_R   0.786120 0.710510 0.334440 -0.512778
O38   O     O_R   0.713880 0.210510 0.665560 -0.514771
O39   O     O_R   0.286120 0.210510 0.334440 -0.512778
O40   O     O_R   0.235800 0.959720 0.673040 -0.482263
O41   O     O_R   0.764200 0.959720 0.326960 -0.477550
O42   O     O_R   0.735800 0.459720 0.673040 -0.482263
O43   O     O_R   0.264200 0.459720 0.326960 -0.477550
O44   O     O_R   0.331670 0.076720 0.669350 -0.466160
O45   O     O_R   0.445900 0.919370 0.676500 -0.520959
O46   O     O_R   0.668330 0.076720 0.330650 -0.463142
O47   O     O_R   0.831670 0.576720 0.669350 -0.466161
O48   O     O_R   0.168330 0.576720 0.330650 -0.463142
O49   O     O_R   0.554100 0.919370 0.323500 -0.518859
O50   O     O_R   0.945900 0.419370 0.676500 -0.520958
O51   O     O_R   0.054100 0.419370 0.323500 -0.518859
O52   O     O_R   0.456660 0.717710 0.669820 -0.473417

loop_
_geom_bond_atom_site_label_1
_geom_bond_atom_site_label_2
_ccdc_geom_bond_type
C38   C56   A    
Cr1   O40   S    
Cr2   O32   S    
C80   C120  S    
C15   C19   S    
C34   C56   A    
C89   C115  A    
C27   C45   S    
Cr3   O11   S    
C98   H7    S    
Cr6   O42   S    
C11   O39   A    
Cr1   O14   S    
Cr2   O2    S    
C35   C39   A    
C50   H47   S    
C10   O38   A    
C120  O47   A    
Cr1   O1    S    
Cr9   O19   S    
C86   C104  S    
C107  I7    S    
C43   H33   S    
Cr8   O44   S    
C103  H11   S    
C106  I6    S    
Cr10  O47   S    
C95   C117  A    
C105  I5    S    
C105  H14   S    
C28   C46   S    
C34   C51   S    
C72   H23   S    
C3    O43   A    
C29   C47   S    
C70   H1    S    
C60   C69   A    
C14   C21   S    
C30   C48   S    
C50   H42   S    
C76   C78   S    
C4    O45   A    
C38   C42   A    
C86   C91   A    
C57   C71   A    
C80   C97   A    
Cr5   O12   S    
C118  O44   A    
C15   C25   S    
C64   O26   A    
C20   C25   S    
C60   C72   A    
C95   I15   S    
C15   C16   S    
C104  I4    S    
C12   C22   S    
C92   C96   A    
C84   C102  S    
C6    O50   A    
Cr12  O31   S    
C93   C115  A    
C5    O49   A    
Cr9   O10   S    
C49   H41   S    
C14   C18   S    
C24   C29   A    
C87   C114  A    
C36   C53   A    
C102  I2    S    
C5    O2    A    
Cr3   O29   S    
C63   O25   A    
Cr5   O41   S    
C25   C99   S    
C39   C110  A    
C108  H17   S    
Cr6   O23   S    
C2    C44   S    
C68   C69   A    
C65   C67   A    
C41   H29   S    
C12   C17   S    
Cr6   O38   S    
C56   C113  S    
C46   H38   S    
C13   C28   A    
Cr5   O37   S    
C2    C27   A    
C44   O20   A    
C90   C116  A    
C108  I8    S    
C10   O7    A    
C93   I13   S    
C43   C48   S    
C59   C73   A    
C21   C61   S    
C85   C103  S    
C8    C114  S    
Cr8   O9    S    
C55   O17   A    
Cr4   O30   S    
C53   C111  S    
C104  C108  S    
C23   C63   S    
C71   H12   S    
C96   H5    S    
C3    C79   S    
C112  O23   A    
Cr4   O4    S    
C4    O52   A    
C69   C78   S    
C120  O42   A    
C31   C49   S    
C51   H43   S    
C45   H35   S    
C43   H36   S    
C7    C59   S    
C46   C50   S    
C118  O40   A    
C26   C43   S    
C74   H52   S    
C8    O36   A    
C101  C105  S    
C97   H6    S    
C74   C75   S    
C27   C31   A    
C80   C84   A    
C9    C115  S    
C77   F2    S    
C6    C60   S    
C28   C32   A    
C26   C110  A    
Cr7   O39   S    
C3    O48   A    
C22   C77   S    
C72   C73   A    
C51   H48   S    
C100  H8    S    
C119  O46   A    
Cr8   O18   S    
Cr4   O35   S    
C94   C116  A    
C95   C100  A    
C58   C70   A    
C47   C51   S    
Cr4   O8    S    
Cr10  O25   S    
C17   I1    S    
C82   C86   A    
C113  O35   A    
C29   C34   A    
C75   H2    S    
C17   C21   S    
C65   C74   S    
Cr2   O10   S    
Cr3   O7    S    
C1    O18   A    
Cr9   O49   S    
C21   C66   S    
Cr1   O9    S    
C104  H13   S    
C89   C106  S    
C19   C23   S    
C20   I11   S    
C13   C33   S    
C45   H37   S    
C11   O8    A    
C22   C62   S    
C66   F1    S    
Cr5   O10   S    
Cr11  O21   S    
C87   C105  S    
C45   C49   S    
C9    O6    A    
C16   C20   S    
C101  H9    S    
C18   I9    S    
C17   C77   S    
C111  O32   A    
C6    O3    A    
Cr3   O3    S    
Cr10  O11   S    
C78   H49   S    
C111  O12   A    
C109  O1    A    
C24   C42   A    
C32   C50   S    
C15   H20   S    
C1    O14   A    
Cr7   O43   S    
C1    C24   S    
Cr2   O6    S    
C94   I14   S    
C107  H16   S    
C109  O31   A    
Cr11  O26   S    
C113  O34   A    
C12   C14   S    
C91   C117  A    
C26   C30   A    
C16   C23   S    
C62   O28   A    
C23   C88   S    
C55   C110  S    
C14   H19   S    
C36   C40   A    
C31   C53   A    
C103  I3    S    
C84   C89   A    
C82   C118  S    
Cr12  O52   S    
C39   H27   S    
C8    O5    A    
C11   C117  S    
Cr12  O27   S    
C93   C97   A    
C48   H44   S    
C70   C71   A    
C10   C116  S    
Cr11  O48   S    
Cr7   O13   S    
C37   H25   S    
C76   H3    S    
C66   C77   S    
C30   C52   A    
Cr9   O46   S    
C19   I10   S    
C19   C99   S    
C106  H15   S    
Cr5   O15   S    
C7    O51   A    
C64   O30   A    
C18   C22   S    
C33   O15   A    
C82   C100  A    
C91   C108  S    
C40   H28   S    
C75   H51   S    
Cr12  O5    S    
Cr8   O45   S    
C88   F3    S    
C12   H18   S    
C7    O4    A    
Cr10  O50   S    
C101  I16   S    
C78   H4    S    
C83   C87   A    
C90   C107  S    
C85   C90   A    
C16   H21   S    
C13   C41   A    
C68   C76   S    
Cr1   O36   S    
C37   C54   A    
C9    O37   A    
Cr7   O17   S    
C61   O22   A    
C32   C54   A    
C5    C57   S    
Cr11  O13   S    
Cr6   O16   S    
C33   O19   A    
Cr10  O20   S    
C119  O41   A    
C35   H22   S    
C79   C96   A    
C81   C119  S    
C102  H10   S    
C79   C83   A    
C47   H32   S    
C55   O21   A    
Cr4   O13   S    
C52   C109  S    
C62   O24   A    
C20   C88   S    
Cr9   O24   S    
C46   H31   S    
C61   O27   A    
C99   F4    S    
C102  C106  S    
Cr11  O51   S    
C57   C65   A    
C37   C41   A    
C18   C66   S    
C83   C101  S    
C47   H39   S    
C44   O16   A    
C88   C99   S    
Cr6   O11   S    
C36   H24   S    
C63   O29   A    
C49   H46   S    
C74   H50   S    
C2    C40   A    
C58   C67   A    
C38   H26   S    
C67   C75   S    
Cr7   O34   S    
Cr8   O22   S    
C112  O33   A    
C81   C98   A    
C4    C58   S    
C35   C52   A    
C94   C98   A    
C54   C112  S    
C59   C68   A    
C103  C107  S    
Cr12  O9    S    
Cr3   O33   S    
C73   H34   S    
C92   I12   S    
C92   C114  A    
Cr2   O28   S    
C25   C64   S    
C81   C85   A    
C76   H45   S    
C42   H30   S    
C48   H40   S    
