data_mof_unit_58754.cif
_audit_creation_date              2012-12-11T17:01:26-0500
_audit_creation_method            fapswitch 2.2
_symmetry_space_group_name_H-M    P1
_symmetry_Int_Tables_number       1
_space_group_crystal_system       triclinic
_cell_length_a                    15.060903
_cell_length_b                    14.868552
_cell_length_c                    14.87547
_cell_angle_alpha                 109.540432
_cell_angle_beta                  109.236787
_cell_angle_gamma                 109.843576
_cell_volume                      2557.6681409

loop_
_atom_site_label
_atom_site_type_symbol
_atom_type_description
_atom_site_fract_x
_atom_site_fract_y
_atom_site_fract_z
_atom_type_partial_charge
C1    C     C_R   0.004240 0.804382 0.098069 -0.185337
C2    C     C_R   0.699330 0.129892 0.698330 0.090602
C3    C     C_R   0.952826 0.501930 0.675063 0.063544
C4    C     C_R   0.674384 0.498792 0.958590 0.079460
C5    C     C_R   0.993723 0.592849 0.298216 -0.164412
C6    C     C_R   0.207115 0.406983 0.904363 -0.156889
C7    C     C_R   0.312736 0.746132 0.220851 -0.135075
C8    C     C_R   0.977907 0.254921 0.068737 -0.147439
C9    C     C_R   0.063763 0.247787 0.971275 -0.129868
C10   C     C_R   0.223843 0.750997 0.315537 -0.127713
C11   C     C_R   0.904261 0.409778 0.209553 -0.148002
C12   C     C_R   0.792990 0.194308 0.701643 -0.164022
C13   C     C_R   0.299659 0.590614 0.995263 -0.097306
C14   C     C_R   0.932981 0.502722 0.301909 0.080087
C15   C     C_R   0.300821 0.497761 0.936481 0.128861
C16   C     C_R   0.325839 0.776322 0.324652 0.081080
C17   C     C_R   0.050683 0.223912 0.050527 0.088320
C18   C     C_3   0.476313 0.379192 0.876959 -0.631165
C19   C     C_3   0.371961 0.375623 0.870715 0.535610
C20   C     C_3   0.588457 0.545890 0.069002 0.314427
C21   C     C_3   0.550406 0.569144 0.898255 -0.419017
C22   C     C_3   0.574916 0.499572 0.950791 0.175128
C23   C     C_R   0.024960 0.593037 0.779293 -0.115184
C24   C     C_3   0.397205 0.496584 0.936484 0.007084
C25   C     C_3   0.489925 0.559323 0.060185 0.219134
C26   C     C_3   0.440285 0.560686 0.882069 -0.448442
C27   C     C_R   0.621570 0.968139 0.517264 0.132450
C28   C     C_R   0.621414 0.012316 0.616324 0.002228
C29   C     C_R   0.534460 0.945167 0.624202 0.025774
C30   C     C_R   0.438408 0.855602 0.526891 -0.269219
C31   C     C_R   0.431025 0.832561 0.424324 0.024398
C32   C     C_R   0.527961 0.879640 0.422706 0.189486
C33   C     C_3   0.553662 0.925175 0.352757 -0.518363
C34   C     C_R   0.685629 0.406450 0.937928 -0.176670
C35   C     C_3   0.656178 0.021768 0.456282 -0.517590
C36   C     C_R   0.949308 0.607680 0.480984 0.132506
C37   C     C_R   0.898239 0.507560 0.383200 0.035469
C38   C     C_R   0.829543 0.410085 0.375797 -0.214567
C39   C     C_R   0.835651 0.410064 0.471792 -0.192337
C40   C     C_R   0.911409 0.507085 0.574643 0.031901
C41   C     C_R   0.958765 0.607002 0.576036 0.111066
C42   C     C_3   0.072279 0.706307 0.645201 -0.171733
C43   C     C_3   0.060025 0.708559 0.541065 -0.592572
C44   C     C_R   0.058074 0.037503 0.164347 0.127103
C45   C     C_R   0.936866 0.408254 0.684402 -0.123089
C46   C     C_R   0.103885 0.987017 0.112262 0.008424
C47   C     C_R   0.173301 0.047302 0.084484 -0.259066
C48   C     C_R   0.170078 0.138045 0.077604 0.029464
C49   C     C_R   0.096588 0.168319 0.100248 0.017373
C50   C     C_R   0.053352 0.126158 0.157176 0.115477
C51   C     C_3   0.942863 0.087419 0.147461 -0.584942
C52   C     C_3   0.948674 0.990983 0.156347 -0.174190
C53   C     C_R   0.777288 0.591920 0.026274 -0.070938
C54   C     C_R   0.699879 0.195304 0.790330 -0.130416
C55   C     C_R   0.094537 0.806037 0.006385 -0.143800
C56   C     C_R   0.065723 0.869470 0.070020 0.098299
H1    H     H_    0.985725 0.831878 0.162776 0.120554
H2    H     H_    0.175178 0.321164 0.848734 0.115760
H3    H     H_    0.372935 0.748807 0.196568 0.122587
H4    H     H_    0.953191 0.254166 0.128650 0.117169
H5    H     H_    0.111833 0.233785 0.934569 0.097182
H6    H     H_    0.204178 0.762633 0.380640 0.095123
H7    H     H_    0.843988 0.325429 0.177768 0.085799
H8    H     H_    0.356487 0.675512 0.024446 0.068392
H9    H     H_    0.489175 0.325675 0.911053 0.119514
H10   H     H_    0.466852 0.343763 0.793265 0.214313
H11   H     H_    0.828109 0.165248 0.653973 0.105549
H12   H     H_    0.344257 0.328953 0.910278 -0.077791
H13   H     H_    0.590249 0.483241 0.093529 0.004351
H14   H     H_    0.616556 0.657284 0.952218 0.180133
H15   H     H_    0.547080 0.538963 0.817281 0.180389
H16   H     H_    0.380667 0.518229 0.792799 0.229854
H17   H     H_    0.452224 0.645340 0.919313 0.147059
H18   H     H_    0.519615 0.648416 0.086370 0.147307
H19   H     H_    0.051821 0.678579 0.803712 0.107162
H20   H     H_    0.367522 0.812448 0.531705 0.130638
H21   H     H_    0.570138 0.872788 0.294673 0.200844
H22   H     H_    0.495752 0.949918 0.315629 0.195431
H23   H     H_    0.731333 0.024515 0.457632 0.190524
H24   H     H_    0.656276 0.101016 0.477620 0.199814
H25   H     H_    0.781790 0.331755 0.299611 0.124344
H26   H     H_    0.791536 0.331967 0.466131 0.125442
H27   H     H_    0.079495 0.779797 0.707302 0.138107
H28   H     H_    0.055003 0.781343 0.540723 0.183503
H29   H     H_    0.623775 0.320151 0.889577 0.107307
H30   H     H_    0.118576 0.693711 0.517270 0.197303
H31   H     H_    0.219978 0.017379 0.054998 0.125938
H32   H     H_    0.944132 0.146109 0.218514 0.192054
H33   H     H_    0.877277 0.059955 0.065124 0.194767
H34   H     H_    0.885151 0.909314 0.081187 0.153302
H35   H     H_    0.884766 0.322673 0.619658 0.093792
H36   H     H_    0.798609 0.677619 0.059617 0.137586
H37   H     H_    0.647351 0.169595 0.822180 0.101217
H38   H     H_    0.155346 0.835491 0.984024 0.084332
H39   H     H_    0.012250 0.676654 0.344206 0.113054
N1    N     N_R   0.995640 0.706130 0.053910 -0.040763
N2    N     N_R   0.153680 0.443190 0.946090 -0.045188
N3    N     N_R   0.208920 0.706140 0.152110 -0.043377
N4    N     N_R   0.947120 0.293870 0.002870 -0.040549
N5    N     N_R   0.004360 0.293870 0.946090 -0.041903
N6    N     N_R   0.151690 0.706140 0.208890 -0.039387
N7    N     N_R   0.945990 0.443210 0.152110 -0.036904
N8    N     N_R   0.210060 0.556810 0.002870 -0.039493
N9    N     N_R   0.848310 0.293860 0.791110 -0.038823
N10   N     N_R   0.054010 0.556790 0.847890 -0.044727
N11   N     N_R   0.789940 0.443190 0.997130 -0.041266
N12   N     N_R   0.997630 0.443170 0.791110 -0.039621
N13   N     N_R   0.846320 0.556810 0.053910 -0.049620
N14   N     N_R   0.791080 0.293860 0.847890 -0.039911
N15   N     N_R   0.052880 0.706130 0.997130 -0.040189
N16   N     N_R   0.002370 0.556830 0.208890 -0.036472
Ni1   Ni    Ni4+2 0.999010 0.630300 0.130220 0.207551
Ni2   Ni    Ni4+2 0.000990 0.369700 0.869780 0.212377
Ni3   Ni    Ni4+2 0.130280 0.630280 0.000000 0.209278
Ni4   Ni    Ni4+2 0.869720 0.369720 0.000000 0.205161
O1    O     O_3   0.290724 0.324377 0.758727 -0.622224
C57   C     C_3   0.238267 0.207647 0.707877 0.286467
H40   H     H_    0.196770 0.177337 0.749881 0.064676
H41   H     H_    0.297339 0.178565 0.708368 0.086903
C58   C     C_3   0.152448 0.156904 0.588770 -0.925590
H42   H     H_    0.191405 0.184076 0.543791 0.258281
H43   H     H_    0.110537 0.065259 0.547853 0.211321
H44   H     H_    0.091137 0.183087 0.585595 0.253289
O2    O     O_3   0.459997 0.550624 0.139615 -0.636588
C59   C     C_3   0.417241 0.444978 0.129084 0.289848
H45   H     H_    0.446345 0.392583 0.090747 0.045899
H46   H     H_    0.327153 0.400723 0.079983 0.125338
C60   C     C_3   0.448996 0.460804 0.243949 -0.896383
H47   H     H_    0.418262 0.510706 0.283699 0.265498
H48   H     H_    0.414037 0.380047 0.240097 0.212481
H49   H     H_    0.539107 0.504429 0.295127 0.238526
O3    O     O_3   0.684540 0.651253 0.145334 -0.651898
C61   C     C_3   0.737626 0.659811 0.248349 0.308280
H50   H     H_    0.763157 0.596717 0.239772 0.090686
H51   H     H_    0.683366 0.649450 0.284416 0.129377
C62   C     C_3   0.839520 0.773451 0.326667 -0.957821
H52   H     H_    0.817197 0.838753 0.338021 0.261064
H53   H     H_    0.882039 0.780957 0.407864 0.212647
H54   H     H_    0.895584 0.785269 0.292886 0.253273
N17   N     N_3   0.539491 0.970606 0.728011 -0.224393
H55   H     H_    0.528276 0.901746 0.737583 0.106575
H56   H     H_    0.474426 0.982728 0.725426 0.090640
N18   N     N_3   0.157151 0.681247 0.690812 -0.206921
H57   H     H_    0.147065 0.611898 0.629175 0.140232
H58   H     H_    0.232576 0.748423 0.719747 0.108654
N19   N     N_3   0.232017 0.188941 0.035875 -0.233408
H59   H     H_    0.203371 0.129326 0.955439 0.084774
H60   H     H_    0.312749 0.210610 0.082324 0.095624
N20   N     N_3   0.956384 0.993903 0.258213 -0.213672
H61   H     H_    0.881385 0.977861 0.253652 0.132770
H62   H     H_    0.015363 0.072869 0.326212 0.134505

loop_
_geom_bond_atom_site_label_1
_geom_bond_atom_site_label_2
_ccdc_geom_bond_type
C21   C26   S    
C7    N3    A    
C4    C53   A    
C26   H16   S    
C41   C42   S    
C6    H2    S    
C52   H34   S    
N16   Ni1   S    
C55   C56   A    
C2    C12   A    
C60   H47   S    
N7    N16   A    
C31   C32   A    
C16   C31   S    
N1    Ni1   S    
C29   C30   A    
C21   H15   S    
C9    H5    S    
C36   C37   A    
C1    C56   A    
N17   H56   S    
C12   N9    A    
C11   H7    S    
C57   H41   S    
N4    Ni4   S    
C38   C39   A    
C11   C14   A    
C33   H22   S    
N3    Ni3   S    
C20   C25   S    
N18   H57   S    
C23   N10   A    
C35   H24   S    
C26   H17   S    
C30   H20   S    
O1    C57   S    
C25   H18   S    
N12   Ni2   S    
C54   H37   S    
N7    Ni4   S    
C6    C15   A    
C3    C23   A    
N4    N5    A    
C58   H43   S    
O3    C61   S    
C48   N19   S    
C61   C62   S    
C13   N8    A    
N15   Ni3   S    
C58   H44   S    
C44   C52   S    
C21   C22   S    
C43   H28   S    
C36   C41   A    
C10   H6    S    
C20   O3    S    
C55   H38   S    
C7    H3    S    
C5    H39   S    
C44   C46   A    
N19   H60   S    
C12   H11   S    
C4    C34   A    
C42   H27   S    
C51   C52   S    
C34   N11   A    
C6    N2    A    
N10   Ni3   S    
N8    Ni3   S    
C24   C25   S    
C62   H53   S    
C2    C54   A    
C57   C58   S    
C17   C49   S    
C39   C40   A    
C52   N20   S    
C5    N16   A    
C27   C35   S    
N1    N15   A    
C3    C45   A    
N13   Ni1   S    
C54   N14   A    
C18   H9    S    
C34   H29   S    
C62   H54   S    
C37   C38   A    
C1    H1    S    
N10   N12   A    
C59   C60   S    
C4    C22   S    
C47   C48   A    
C30   C31   A    
C53   H36   S    
C50   C51   S    
C19   H12   S    
C15   C24   S    
N17   H55   S    
N6    Ni1   S    
C5    C14   A    
N2    N8    A    
C9    C17   A    
C40   C41   A    
C20   C22   S    
C3    C40   S    
C9    N5    A    
C13   C15   A    
C55   N15   A    
C61   H50   S    
C20   H13   S    
C42   C43   S    
N2    Ni2   S    
C60   H49   S    
C27   C28   A    
C58   H42   S    
C59   H46   S    
N19   H59   S    
C44   C50   A    
N18   H58   S    
C29   N17   S    
C46   C47   A    
C28   C29   A    
C27   C32   A    
C18   C22   S    
C43   H30   S    
C8    N4    A    
C10   N6    A    
C7    C16   A    
N5    Ni2   S    
C24   C26   S    
C39   H26   S    
C23   H19   S    
C62   H52   S    
C60   H48   S    
C51   H32   S    
C18   H10   S    
N3    N6    A    
N11   Ni4   S    
C8    C17   A    
C21   H14   S    
C32   C33   S    
N20   H62   S    
C19   C24   S    
C38   H25   S    
C10   C16   A    
N20   H61   S    
C8    H4    S    
C14   C37   S    
C53   N13   A    
C33   H21   S    
C59   H45   S    
C13   H8    S    
N11   N13   A    
C19   O1    S    
C1    N1    A    
C48   C49   A    
C35   H23   S    
C33   C35   S    
C11   N7    A    
C45   H35   S    
C25   O2    S    
N14   Ni4   S    
N9    Ni2   S    
C49   C50   A    
C46   C56   S    
C42   N18   S    
C61   H51   S    
C18   C19   S    
N9    N14   A    
C36   C43   S    
C2    C28   S    
C57   H40   S    
C51   H33   S    
C45   N12   A    
C47   H31   S    
O2    C59   S    
