data_mof_unit_43288.cif
_audit_creation_date              2012-12-10T17:27:57-0500
_audit_creation_method            fapswitch 2.2
_symmetry_space_group_name_H-M    P1
_symmetry_Int_Tables_number       1
_space_group_crystal_system       triclinic
_cell_length_a                    10.699231
_cell_length_b                    11.988506
_cell_length_c                    12.860385
_cell_angle_alpha                 94.19331
_cell_angle_beta                  90.610885
_cell_angle_gamma                 86.082268
_cell_volume                      1641.28631188

loop_
_atom_site_label
_atom_site_type_symbol
_atom_type_description
_atom_site_fract_x
_atom_site_fract_y
_atom_site_fract_z
_atom_type_partial_charge
C1    C     C_R   0.498452 0.522730 0.700353 0.990353
C2    C     C_R   0.418522 0.622702 0.861891 0.248751
C3    C     C_R   0.569022 0.459400 0.867915 0.425523
C4    C     C_R   0.738834 0.497320 0.485636 0.890135
C5    C     C_R   0.547625 0.455904 0.974297 -0.171967
C6    C     C_R   0.472491 0.544758 0.025793 -0.131167
C7    C     C_R   0.455026 0.545433 0.131774 -0.255210
C8    C     C_R   0.585253 0.371393 0.139338 0.316423
C9    C     C_R   0.598383 0.365755 0.030435 0.479840
C10   C     C_R   0.368855 0.954920 0.416706 -0.418546
C11   C     C_R   0.384669 0.836852 0.419338 0.619018
C12   C     C_R   0.944709 0.390316 0.478189 -0.013967
C13   C     C_R   0.554810 0.857880 0.539394 0.557776
C14   C     C_R   0.550747 0.975757 0.529571 -0.195790
C15   C     C_R   0.454126 0.024628 0.468258 -0.209635
C16   C     C_R   0.503542 0.477078 0.299553 0.951566
C17   C     C_R   0.444035 0.142970 0.462422 0.586430
C18   C     C_R   0.620095 0.162624 0.574366 -0.221819
C19   C     C_R   0.638619 0.045303 0.580347 0.458175
C20   C     C_R   0.259390 0.500284 0.505971 0.911728
C21   C     C_R   0.900022 0.282756 0.454059 -0.244469
C22   C     C_R   0.966205 0.186000 0.486625 0.472824
C23   C     C_R   0.872047 0.491829 0.466032 -0.191196
C24   C     C_R   0.075010 0.197594 0.545550 -0.149616
C25   C     C_R   0.124398 0.302162 0.561646 -0.191144
C26   C     C_R   0.066194 0.397303 0.516933 0.088714
C27   C     C_3   0.888872 0.786162 0.468689 -0.117597
C28   C     C_3   0.575287 0.189998 0.958891 -0.305497
C29   C     C_3   0.767164 0.429439 0.805487 -0.234549
C30   C     C_3   0.794506 0.060728 0.709163 -0.271998
C31   C     C_3   0.234735 0.807018 0.286460 -0.336685
C32   C     C_3   0.581589 0.828530 0.711074 -0.214624
C33   C     C_3   0.423599 0.812499 0.033209 -0.386637
C34   C     C_R   0.929132 0.592394 0.455356 0.499153
C35   C     C_R   0.057273 0.592588 0.471260 -0.327318
C36   C     C_R   0.125028 0.498078 0.505499 -0.167453
C37   C     C_R   0.512773 0.461802 0.188115 -0.177637
C38   C     C_R   0.497693 0.537796 0.812019 -0.322642
C39   C     C_R   0.414680 0.631726 0.970855 0.473327
H1    H     H_    0.685089 0.219069 0.610227 0.191099
H2    H     H_    0.811123 0.849364 0.454884 0.220596
H3    H     H_    0.505778 0.215941 0.898829 0.182778
H4    H     H_    0.526306 0.169845 0.030485 0.152752
H5    H     H_    0.627199 0.111669 0.927934 0.170946
H6    H     H_    0.284581 0.740553 0.847993 0.369788
H7    H     H_    0.756922 0.502511 0.756711 0.125825
H8    H     H_    0.833975 0.366045 0.765355 0.175928
H9    H     H_    0.808164 0.454572 0.882906 0.164182
H10   H     H_    0.349963 0.148876 0.333479 0.314489
H11   H     H_    0.719215 0.101166 0.760805 0.161677
H12   H     H_    0.289364 0.992218 0.376566 0.180899
H13   H     H_    0.854338 0.124295 0.681158 0.182329
H14   H     H_    0.854748 0.004985 0.756800 0.185776
H15   H     H_    0.293680 0.850655 0.233952 0.175583
H16   H     H_    0.154740 0.863085 0.317602 0.172664
H17   H     H_    0.194837 0.736823 0.239067 0.218777
H18   H     H_    0.626628 0.767541 0.763062 0.171448
H19   H     H_    0.478870 0.819214 0.711528 0.186713
H20   H     H_    0.599469 0.913602 0.745055 0.149150
H21   H     H_    0.847208 0.086300 0.422615 0.329303
H22   H     H_    0.700940 0.240050 0.156191 0.361915
H23   H     H_    0.815837 0.273095 0.407821 0.184021
H24   H     H_    0.366984 0.887265 0.066501 0.189743
H25   H     H_    0.459049 0.834139 0.956572 0.164064
H26   H     H_    0.503309 0.795377 0.087342 0.184993
H27   H     H_    0.123582 0.124864 0.576489 0.157359
H28   H     H_    0.207617 0.306970 0.609647 0.171562
H29   H     H_    0.104450 0.666132 0.454820 0.211972
H30   H     H_    0.397271 0.612686 0.171888 0.238324
H31   H     H_    0.974262 0.817201 0.435659 0.149648
H32   H     H_    0.898433 0.780740 0.554559 0.187046
N1    N     N_R   0.523130 0.207800 0.519340 -0.138206
N2    N     N_R   0.476870 0.792180 0.480660 -0.178447
O1    O     O_R   0.506170 0.421690 0.658830 -0.602006
O2    O     O_3   0.661477 0.272918 0.980070 -0.579682
O3    O     O_3   0.343157 0.692190 0.802495 -0.780477
O4    O     O_3   0.652083 0.380864 0.816356 -0.551879
O5    O     O_3   0.357640 0.196109 0.399315 -0.727580
O6    O     O_3   0.746408 0.995193 0.624179 -0.574465
O7    O     O_3   0.305600 0.762328 0.368563 -0.585457
O8    O     O_3   0.633976 0.807525 0.610407 -0.556056
O9    O     O_3   0.925443 0.080155 0.464458 -0.777686
O10   O     O_3   0.643844 0.292029 0.199702 -0.770544
O11   O     O_3   0.347058 0.720925 0.023020 -0.622154
O12   O     O_R   0.491330 0.609320 0.646410 -0.579202
O13   O     O_R   0.690660 0.406170 0.506210 -0.649836
O14   O     O_R   0.675810 0.593790 0.493790 -0.540770
O15   O     O_R   0.508670 0.390680 0.353590 -0.540059
O16   O     O_R   0.493830 0.578310 0.341170 -0.609746
O17   O     O_R   0.324190 0.406210 0.506210 -0.591635
O18   O     O_R   0.309340 0.593830 0.493790 -0.577556
O19   O     O_3   0.859900 0.683212 0.416602 -0.614634
Zn1   Zn    Zn3+2 0.509910 0.374720 0.508290 1.004366
Zn2   Zn    Zn3+2 0.490090 0.625280 0.491710 1.047795

loop_
_geom_bond_atom_site_label_1
_geom_bond_atom_site_label_2
_ccdc_geom_bond_type
C8    O10   S    
C35   C36   A    
C25   H28   S    
C32   H19   S    
C33   H26   S    
C31   O7    S    
C4    O14   A    
C32   O8    S    
C12   C23   A    
C29   H8    S    
H6    O3    S    
C1    O1    A    
C22   O9    S    
C39   O11   S    
C34   C35   A    
N2    Zn2   S    
C10   C15   A    
C5    C6    A    
C4    O13   A    
O14   Zn2   S    
C13   O8    S    
H10   O5    S    
C18   C19   A    
O16   Zn2   S    
C27   H2    S    
C18   H1    S    
H21   O9    S    
C2    C39   A    
C3    C38   A    
C8    C9    A    
C31   H17   S    
C24   H27   S    
C16   C37   S    
C30   H11   S    
C16   O16   A    
C21   C22   A    
C18   N1    A    
O1    Zn1   S    
C32   H18   S    
C10   H12   S    
C20   O18   A    
C1    O12   A    
C30   H14   S    
C29   H9    S    
C24   C25   A    
C11   N2    A    
C4    C23   S    
C25   C26   A    
C20   O17   A    
C12   C21   A    
C28   H5    S    
C27   H32   S    
C12   C26   A    
C5    C9    A    
O13   Zn1   S    
O12   Zn2   S    
C2    C38   A    
C11   O7    S    
C33   H24   S    
C23   C34   A    
C7    C37   A    
C27   O19   S    
C19   O6    S    
C21   H23   S    
C27   H31   S    
C1    C38   S    
N1    Zn1   S    
C26   C36   A    
C13   N2    A    
H22   O10   S    
C22   C24   A    
C8    C37   A    
C30   O6    S    
C3    O4    S    
C2    O3    S    
O17   Zn1   S    
C15   C17   A    
C30   H13   S    
O15   Zn1   S    
C14   C15   A    
C14   C19   A    
C3    C5    A    
C7    H30   S    
C6    C7    A    
C28   H4    S    
C29   H7    S    
O18   Zn2   S    
C35   H29   S    
C33   H25   S    
C28   H3    S    
C17   O5    S    
C31   H15   S    
C33   O11   S    
C34   O19   S    
C10   C11   A    
C20   C36   S    
C29   O4    S    
C17   N1    A    
C16   O15   A    
C6    C39   A    
C9    O2    S    
C32   H20   S    
C31   H16   S    
C13   C14   A    
C28   O2    S    
