data_mof_unit_16068.cif
_audit_creation_date              2012-12-10T21:18:21-0500
_audit_creation_method            fapswitch 2.2
_symmetry_space_group_name_H-M    P1
_symmetry_Int_Tables_number       1
_space_group_crystal_system       triclinic
_cell_length_a                    17.496809
_cell_length_b                    16.864675
_cell_length_c                    10.509616
_cell_angle_alpha                 90.789972
_cell_angle_beta                  92.503641
_cell_angle_gamma                 90.345275
_cell_volume                      3097.83355129

loop_
_atom_site_label
_atom_site_type_symbol
_atom_type_description
_atom_site_fract_x
_atom_site_fract_y
_atom_site_fract_z
_atom_type_partial_charge
C1    C     C_R   0.353538 0.499655 0.502733 0.965599
C2    C     C_R   0.647204 0.500063 0.496032 0.913973
C3    C     C_1   0.968631 0.490723 0.567203 -0.006126
C4    C     C_1   0.036564 0.492854 0.570670 -0.005182
C5    C     C_R   0.433977 0.832187 0.462864 0.101730
C6    C     C_R   0.564253 0.168497 0.547112 0.037884
C7    C     C_R   0.563686 0.833676 0.547249 0.095905
C8    C     C_R   0.432980 0.167230 0.466793 0.049674
C9    C     C_R   0.438375 0.748387 0.449126 0.447215
C10   C     C_R   0.561150 0.253261 0.555177 0.472814
C11   C     C_R   0.559990 0.749793 0.556537 0.418162
C12   C     C_R   0.437962 0.250907 0.450143 0.449107
C13   C     C_R   0.498712 0.876294 0.505646 -0.160185
C14   C     C_R   0.498199 0.124802 0.508362 -0.127309
C15   C     C_1   0.498271 0.964098 0.507315 0.200988
C16   C     C_1   0.497988 0.036932 0.508179 0.212773
C17   C     C_R   0.499811 0.499499 0.256884 0.829124
C18   C     C_R   0.501014 0.500513 0.742984 0.859405
C19   C     C_3   0.433573 0.526786 0.036851 -0.188475
C20   C     C_3   0.569006 0.473309 0.962295 -0.193696
C21   C     C_3   0.490691 0.574938 0.961009 -0.151921
C22   C     C_3   0.511826 0.425258 0.038575 -0.152663
C23   C     C_3   0.444531 0.453294 0.951164 -0.155817
C24   C     C_3   0.557993 0.546810 0.048528 -0.178064
C25   C     C_3   0.501606 0.501358 0.877729 0.034148
C26   C     C_3   0.500681 0.498764 0.121917 0.040487
C27   C     C_R   0.851198 0.563711 0.561717 -0.253722
C28   C     C_R   0.164965 0.453737 0.640216 -0.246894
C29   C     C_R   0.144715 0.542593 0.462334 -0.261408
C30   C     C_R   0.849658 0.424601 0.502342 -0.321418
C31   C     C_R   0.773778 0.568817 0.530002 0.412313
C32   C     C_R   0.243160 0.453251 0.620549 0.402110
C33   C     C_R   0.222592 0.541482 0.439266 0.466468
C34   C     C_R   0.770108 0.427025 0.474550 0.462258
C35   C     C_R   0.731410 0.499142 0.497993 -0.282731
C36   C     C_R   0.271987 0.498453 0.521053 -0.251100
C37   C     C_R   0.888192 0.491726 0.550458 0.023675
C38   C     C_R   0.116528 0.497663 0.560377 0.010479
H1    H     H_    0.398117 0.415809 0.906684 0.170422
H2    H     H_    0.604014 0.584066 0.094722 0.132382
H3    H     H_    0.377683 0.547980 0.067706 0.126848
H4    H     H_    0.624099 0.451868 0.926647 0.130734
H5    H     H_    0.481328 0.635768 0.925803 0.134139
H6    H     H_    0.521550 0.364786 0.074296 0.162789
H7    H     H_    0.883015 0.616832 0.590565 0.166162
H8    H     H_    0.142142 0.420154 0.717185 0.157825
H9    H     H_    0.105884 0.577223 0.402574 0.155622
H10   H     H_    0.883064 0.372288 0.484092 0.152275
N1    N     N_R   0.500000 0.707230 0.500000 -0.215511
N2    N     N_R   0.500000 0.292770 0.500000 -0.183813
O1    O     O_R   0.389110 0.566570 0.499990 -0.546096
O2    O     O_R   0.610890 0.433430 0.500010 -0.517108
O3    O     O_R   0.610890 0.566570 0.500010 -0.570188
O4    O     O_R   0.389110 0.433430 0.499990 -0.583965
O5    O     O_R   0.499980 0.566530 0.313950 -0.653973
O6    O     O_R   0.500020 0.433470 0.686050 -0.621208
O7    O     O_R   0.500020 0.566530 0.686050 -0.647359
O8    O     O_R   0.499980 0.433470 0.313950 -0.608887
Zn1   Zn    Zn3+2 0.500000 0.588860 0.500000 0.990697
Zn2   Zn    Zn3+2 0.500000 0.411140 0.500000 1.013265
O9    O     O_3   0.740326 0.642610 0.531616 -0.576478
C39   C     C_3   0.738202 0.674388 0.407214 0.181982
H11   H     H_    0.681823 0.703222 0.390604 0.188032
H12   H     H_    0.742626 0.629062 0.329221 0.078189
C40   C     C_3   0.801056 0.737194 0.397329 -0.358268
H13   H     H_    0.797299 0.781004 0.476763 0.275332
H14   H     H_    0.857989 0.708445 0.405168 0.206962
C41   C     C_3   0.793525 0.780529 0.270950 -0.912401
H15   H     H_    0.797524 0.737908 0.189998 0.257092
H16   H     H_    0.840324 0.824989 0.266038 0.280768
H17   H     H_    0.737862 0.811810 0.262752 0.275182
O10   O     O_3   0.292096 0.413888 0.704820 -0.663835
C42   C     C_3   0.294899 0.332291 0.671423 0.151146
H18   H     H_    0.356177 0.315672 0.669006 0.182684
H19   H     H_    0.268289 0.316948 0.575465 0.163456
C43   C     C_3   0.257708 0.282814 0.772919 -0.446443
H20   H     H_    0.283946 0.298700 0.867762 0.230513
H21   H     H_    0.195604 0.295723 0.773652 0.225620
C44   C     C_3   0.268346 0.194278 0.748537 -0.843394
H22   H     H_    0.240049 0.176446 0.655827 0.297837
H23   H     H_    0.242112 0.160170 0.825204 0.264374
H24   H     H_    0.330182 0.179693 0.747820 0.270901
O11   O     O_3   0.251746 0.583017 0.339059 -0.613587
C45   C     C_3   0.222553 0.552022 0.220423 0.058609
H25   H     H_    0.242318 0.591903 0.145227 0.170440
H26   H     H_    0.159000 0.552957 0.212269 0.138650
C46   C     C_3   0.252280 0.468077 0.193801 -0.427434
H27   H     H_    0.315359 0.467018 0.210455 0.219807
H28   H     H_    0.226812 0.425466 0.259935 0.217341
C47   C     C_3   0.231567 0.440999 0.057438 -0.922804
H29   H     H_    0.168498 0.440664 0.040019 0.266417
H30   H     H_    0.252975 0.380004 0.042478 0.253149
H31   H     H_    0.257979 0.480738 0.988087 0.278766
O12   O     O_3   0.728630 0.365712 0.411908 -0.617194
C48   C     C_3   0.761219 0.289416 0.421931 0.172515
H32   H     H_    0.713173 0.246363 0.424013 0.213495
H33   H     H_    0.795168 0.280405 0.512589 0.127777
C49   C     C_3   0.805758 0.269521 0.303348 -0.432337
H34   H     H_    0.765986 0.270419 0.217914 0.236445
H35   H     H_    0.851204 0.314422 0.289876 0.223132
C50   C     C_3   0.842094 0.187727 0.313352 -0.873615
H36   H     H_    0.883369 0.186012 0.396627 0.266755
H37   H     H_    0.873176 0.174527 0.225731 0.265475
H38   H     H_    0.797355 0.141520 0.323753 0.288679
Br1   Br    Br    0.338193 0.884926 0.428973 -0.426225
Br2   Br    Br    0.658284 0.111538 0.577929 -0.519771
Br3   Br    Br    0.658519 0.888477 0.587761 -0.471822
Br4   Br    Br    0.337763 0.111141 0.434532 -0.502900
O13   O     O_3   0.378259 0.708136 0.387940 -0.550507
C51   C     C_3   0.393142 0.698238 0.257080 0.183683
H39   H     H_    0.376489 0.636781 0.230065 0.185150
H40   H     H_    0.454649 0.705257 0.234311 0.095520
C52   C     C_3   0.344316 0.754773 0.175254 -0.352074
H41   H     H_    0.283559 0.750333 0.201307 0.269859
H42   H     H_    0.364829 0.816453 0.192370 0.254081
C53   C     C_3   0.349667 0.736563 0.033375 -0.968871
H43   H     H_    0.409682 0.743375 0.004960 0.260978
H44   H     H_    0.313569 0.778842 0.977837 0.291571
H45   H     H_    0.328966 0.675539 0.010277 0.257681
O14   O     O_3   0.621863 0.298858 0.604927 -0.595374
C54   C     C_3   0.647211 0.280897 0.731543 0.120103
H46   H     H_    0.678551 0.334366 0.769073 0.147471
H47   H     H_    0.690931 0.233856 0.732103 0.186627
C55   C     C_3   0.584368 0.262397 0.825415 -0.416515
H48   H     H_    0.543074 0.311979 0.827895 0.239679
H49   H     H_    0.552747 0.207396 0.796317 0.228730
C56   C     C_3   0.620185 0.250059 0.958910 -0.933296
H50   H     H_    0.661678 0.200482 0.957814 0.283426
H51   H     H_    0.575355 0.235023 0.025923 0.268259
H52   H     H_    0.650215 0.304810 0.994138 0.254584
O15   O     O_3   0.618896 0.710861 0.620021 -0.555934
C57   C     C_3   0.602337 0.701623 0.749818 0.184481
H53   H     H_    0.620540 0.641006 0.777403 0.172292
H54   H     H_    0.540292 0.706666 0.768964 0.095537
C58   C     C_3   0.647754 0.761528 0.834373 -0.327843
H55   H     H_    0.707862 0.764560 0.804486 0.272001
H56   H     H_    0.621471 0.820951 0.824258 0.247734
C59   C     C_3   0.647817 0.739215 0.974533 -1.008082
H57   H     H_    0.588319 0.733545 0.006244 0.262406
H58   H     H_    0.677702 0.786150 0.033057 0.285711
H59   H     H_    0.678511 0.682470 0.989672 0.262295
O16   O     O_3   0.378895 0.293032 0.391508 -0.623985
C60   C     C_3   0.360635 0.269567 0.262824 0.123612
H60   H     H_    0.341494 0.323858 0.212837 0.160777
H61   H     H_    0.310156 0.229416 0.258970 0.188658
C61   C     C_3   0.425613 0.233018 0.186196 -0.407851
H62   H     H_    0.478449 0.269192 0.200509 0.218214
H63   H     H_    0.438159 0.171979 0.218607 0.246100
C62   C     C_3   0.402582 0.227491 0.044576 -0.953128
H64   H     H_    0.347362 0.195097 0.030025 0.281712
H65   H     H_    0.446639 0.194885 0.992501 0.276806
H66   H     H_    0.396858 0.287678 0.004561 0.254074

loop_
_geom_bond_atom_site_label_1
_geom_bond_atom_site_label_2
_ccdc_geom_bond_type
C2    C35   S    
C58   C59   S    
C46   H27   S    
C50   H36   S    
O5    Zn1   S    
C60   C61   S    
C42   H18   S    
C31   O9    S    
C48   H32   S    
C45   C46   S    
O3    Zn1   S    
C48   C49   S    
C62   H64   S    
C58   H55   S    
C32   O10   S    
C5    Br1   S    
C7    C11   A    
C28   H8    S    
C29   H9    S    
C17   C26   S    
C32   C36   A    
C30   H10   S    
C19   C21   S    
C24   C26   S    
C52   H41   S    
C62   H65   S    
O7    Zn1   S    
C20   C25   S    
O8    Zn2   S    
C15   C16   T    
C29   C33   A    
C33   C36   A    
C53   H43   S    
C60   H61   S    
C34   C35   A    
C19   C26   S    
C51   H39   S    
C54   C55   S    
C39   H12   S    
O2    Zn2   S    
C21   H5    S    
C22   H6    S    
C20   C24   S    
C12   O16   S    
C57   H53   S    
C40   H14   S    
C29   C38   A    
C43   C44   S    
C14   C16   S    
C17   O5    A    
C5    C13   A    
C18   O6    A    
C17   O8    A    
C52   C53   S    
C27   H7    S    
C50   H37   S    
C42   H19   S    
O12   C48   S    
C18   C25   S    
C8    Br4   S    
C61   H63   S    
C9    O13   S    
C30   C34   A    
C27   C31   A    
C28   C32   A    
C9    N1    A    
C45   H25   S    
C62   H66   S    
C44   H23   S    
C41   H15   S    
O4    Zn2   S    
C59   H59   S    
O6    Zn2   S    
C30   C37   A    
C19   C23   S    
C1    O4    A    
C56   H51   S    
C5    C9    A    
C39   H11   S    
C11   N1    A    
C6    C14   A    
C61   C62   S    
C1    O1    A    
C18   O7    A    
C47   H30   S    
O11   C45   S    
C28   C38   A    
C8    C12   A    
C40   C41   S    
C6    Br2   S    
C43   H20   S    
C33   O11   S    
C51   C52   S    
C54   H46   S    
C2    O2    A    
C55   C56   S    
C41   H16   S    
C20   C22   S    
C40   H13   S    
C50   H38   S    
C49   H35   S    
C13   C15   S    
C42   C43   S    
C7    Br3   S    
C46   C47   S    
O1    Zn1   S    
C3    C4    T    
C10   N2    A    
O14   C54   S    
C47   H31   S    
C55   H49   S    
C61   H62   S    
C58   H56   S    
C21   C25   S    
C8    C14   A    
C39   C40   S    
O16   C60   S    
C34   O12   S    
C43   H21   S    
O10   C42   S    
C2    O3    A    
C11   O15   S    
C6    C10   A    
C44   H24   S    
C20   H4    S    
C48   H33   S    
C41   H17   S    
C56   H50   S    
C59   H58   S    
C49   C50   S    
N1    Zn1   S    
C53   H45   S    
N2    Zn2   S    
C46   H28   S    
C60   H60   S    
C56   H52   S    
O13   C51   S    
C47   H29   S    
C27   C37   A    
C57   C58   S    
C23   H1    S    
C24   H2    S    
C53   H44   S    
C31   C35   A    
C23   C25   S    
O9    C39   S    
C51   H40   S    
C54   H47   S    
C10   O14   S    
C59   H57   S    
C44   H22   S    
C19   H3    S    
C7    C13   A    
C3    C37   S    
C57   H54   S    
C49   H34   S    
C22   C26   S    
C21   C24   S    
C22   C23   S    
C45   H26   S    
C4    C38   S    
C12   N2    A    
O15   C57   S    
C1    C36   S    
C55   H48   S    
C52   H42   S    
