data_mof_unit_23705.cif
_audit_creation_date              2012-12-10T17:00:00-0500
_audit_creation_method            fapswitch 2.2
_symmetry_space_group_name_H-M    P1
_symmetry_Int_Tables_number       1
_space_group_crystal_system       triclinic
_cell_length_a                    14.943275
_cell_length_b                    15.188481
_cell_length_c                    10.046166
_cell_angle_alpha                 91.399367
_cell_angle_beta                  85.308882
_cell_angle_gamma                 89.728724
_cell_volume                      2271.76669898

loop_
_atom_site_label
_atom_site_type_symbol
_atom_type_description
_atom_site_fract_x
_atom_site_fract_y
_atom_site_fract_z
_atom_type_partial_charge
C1    C     C_R   0.375296 0.887078 0.503655 0.862388
C2    C     C_R   0.375465 0.113818 0.506075 0.852551
C3    C     C_R   0.875296 0.387078 0.503654 0.862388
C4    C     C_R   0.875466 0.613818 0.506075 0.852552
C5    C     C_R   0.619726 0.117903 0.496860 0.956518
C6    C     C_R   0.620291 0.882497 0.494633 0.963527
C7    C     C_R   0.119725 0.617903 0.496860 0.956517
C8    C     C_R   0.120291 0.382497 0.494633 0.963526
C9    C     C_2   0.674699 0.740451 0.419021 0.551467
C10   C     C_2   0.685844 0.248219 0.402794 0.536571
C11   C     C_2   0.174699 0.240451 0.419021 0.551466
C12   C     C_2   0.185843 0.748220 0.402796 0.536568
C13   C     C_2   0.689158 0.817981 0.478644 -0.189108
C14   C     C_2   0.689135 0.181389 0.486570 -0.218911
C15   C     C_2   0.189158 0.317981 0.478644 -0.189110
C16   C     C_2   0.189135 0.681389 0.486570 -0.218911
C17   C     C_2   0.246278 0.175303 0.416121 -0.444959
C18   C     C_2   0.258297 0.811259 0.400941 -0.440419
C19   C     C_2   0.746278 0.675303 0.416121 -0.444958
C20   C     C_2   0.758298 0.311257 0.400940 -0.440419
C21   C     C_2   0.291147 0.161367 0.524397 0.241740
C22   C     C_2   0.290146 0.842298 0.514087 0.238386
C23   C     C_2   0.791147 0.661368 0.524397 0.241739
C24   C     C_2   0.790146 0.342298 0.514086 0.238387
C25   C     C_2   0.571087 0.010589 0.916998 -0.139374
C26   C     C_2   0.071087 0.510589 0.916998 -0.139374
C27   C     C_2   0.572167 0.991083 0.062612 0.452015
C28   C     C_2   0.072167 0.491083 0.062612 0.452016
H1    H     H_    0.752824 0.834042 0.517583 0.130166
H2    H     H_    0.743987 0.173506 0.549762 0.143522
H3    H     H_    0.252824 0.334042 0.517584 0.130167
H4    H     H_    0.243987 0.673506 0.549761 0.143522
H5    H     H_    0.267913 0.145679 0.319192 0.178073
H6    H     H_    0.291881 0.823976 0.303316 0.187104
H7    H     H_    0.767914 0.645679 0.319192 0.178074
H8    H     H_    0.791883 0.323974 0.303315 0.187106
H9    H     H_    0.633681 0.026347 0.860652 0.230383
H10   H     H_    0.133681 0.526347 0.860652 0.230383
H11   H     H_    0.444387 0.977216 0.904575 0.183555
H12   H     H_    0.944387 0.477216 0.904575 0.183561
H13   H     H_    0.445245 0.027066 0.111480 0.130367
H14   H     H_    0.945245 0.527066 0.111480 0.130370
N1    N     N_2   0.501330 1.000000 0.852150 -0.196961
N2    N     N_2   0.001330 0.500000 0.852150 -0.196958
N3    N     N_2   0.501360 0.000000 0.147810 -0.234602
N4    N     N_2   0.001360 0.500000 0.147810 -0.234601
O1    O     O_R   0.409520 0.909540 0.613040 -0.544983
O2    O     O_R   0.409520 0.090460 0.613040 -0.530503
O3    O     O_R   0.909520 0.409540 0.613040 -0.544978
O4    O     O_R   0.909520 0.590460 0.613040 -0.530498
O5    O     O_R   0.409560 0.909540 0.386900 -0.636758
O6    O     O_R   0.409560 0.090460 0.386900 -0.643132
O7    O     O_R   0.909560 0.409540 0.386900 -0.636759
O8    O     O_R   0.909560 0.590460 0.386900 -0.643132
O9    O     O_R   0.590440 0.090460 0.613100 -0.614032
O10   O     O_R   0.590440 0.909540 0.613100 -0.592369
O11   O     O_R   0.090440 0.590460 0.613100 -0.614032
O12   O     O_R   0.090440 0.409540 0.613100 -0.592370
O13   O     O_R   0.590480 0.090460 0.386960 -0.533811
O14   O     O_R   0.590480 0.909540 0.386960 -0.521432
O15   O     O_R   0.090480 0.590460 0.386960 -0.533812
O16   O     O_R   0.090480 0.409540 0.386960 -0.521432
Zn1   Zn    Zn3+2 0.499970 0.000000 0.650990 1.089476
Zn2   Zn    Zn3+2 0.999970 0.500000 0.650990 1.089483
Zn3   Zn    Zn3+2 0.500030 0.000000 0.349010 1.069361
Zn4   Zn    Zn3+2 0.000030 0.500000 0.349010 1.069362
O17   O     O_3   0.595390 0.723512 0.361514 -0.708334
H15   H     H_    0.598735 0.662480 0.323922 0.352389
O18   O     O_3   0.617845 0.255500 0.318086 -0.714656
H16   H     H_    0.628443 0.309475 0.265584 0.349065
O19   O     O_3   0.095390 0.223512 0.361514 -0.708333
H17   H     H_    0.098735 0.162480 0.323921 0.352390
O20   O     O_3   0.117843 0.755501 0.318088 -0.714657
H18   H     H_    0.128441 0.809476 0.265587 0.349066
S1    S     S_3+6 0.246459 0.189375 0.692218 0.072287
O21   O     O_2   0.284407 0.276067 0.735049 -0.280666
O22   O     O_2   0.145701 0.195824 0.700224 -0.256979
O23   O     O_3   0.275201 0.113161 0.799789 -0.491668
H19   H     H_    0.250477 0.135472 0.888822 0.382661
S2    S     S_3+6 0.227216 0.842545 0.673767 0.048194
O24   O     O_2   0.128300 0.833588 0.659171 -0.266167
O25   O     O_2   0.258782 0.767961 0.754144 -0.293872
O26   O     O_3   0.244327 0.937523 0.756544 -0.487158
H20   H     H_    0.212332 0.930815 0.846000 0.388323
S3    S     S_3+6 0.746459 0.689376 0.692218 0.072283
O27   O     O_2   0.784406 0.776067 0.735049 -0.280653
O28   O     O_2   0.645701 0.695822 0.700224 -0.256993
O29   O     O_3   0.775203 0.613162 0.799790 -0.491671
H21   H     H_    0.750463 0.635466 0.888819 0.382662
S4    S     S_3+6 0.727214 0.342547 0.673765 0.048190
O30   O     O_2   0.628299 0.333590 0.659166 -0.266185
O31   O     O_2   0.758778 0.267963 0.754145 -0.293856
O32   O     O_3   0.744326 0.437525 0.756540 -0.487168
H22   H     H_    0.712307 0.430828 0.845983 0.388328
S5    S     S_3+6 0.675828 0.949834 0.109223 0.077956
O33   O     O_2   0.708490 0.002961 0.223208 -0.294814
O34   O     O_2   0.663991 0.855439 0.147960 -0.265363
O35   O     O_3   0.754090 0.953408 0.979174 -0.529733
H23   H     H_    0.807174 0.922712 0.009363 0.402715
S6    S     S_3+6 0.175828 0.449834 0.109223 0.077954
O36   O     O_2   0.208490 0.502961 0.223208 -0.294814
O37   O     O_2   0.163991 0.355439 0.147960 -0.265364
O38   O     O_3   0.254090 0.453408 0.979174 -0.529735
H24   H     H_    0.307174 0.422711 0.009362 0.402714

loop_
_geom_bond_atom_site_label_1
_geom_bond_atom_site_label_2
_ccdc_geom_bond_type
O32   H22   S    
O4    Zn2   S    
O20   H18   S    
C27   S5    S    
S5    O33   D    
C25   N1    D    
C3    O3    A    
S5    O35   S    
N1    Zn1   S    
S3    O27   D    
N2    Zn2   S    
C28   N4    D    
O11   Zn2   S    
C13   H1    S    
N4    Zn4   S    
O1    Zn1   S    
C11   O19   S    
H14   N4    S    
C9    C13   D    
C7    O15   A    
C25   H9    S    
C11   C15   D    
O15   Zn4   S    
C9    C19   S    
C12   C16   D    
C10   C20   S    
O9    Zn1   S    
C8    O12   A    
C28   S6    S    
S3    O28   D    
C1    C22   S    
O3    Zn2   S    
C12   O20   S    
C3    C24   S    
C17   H5    S    
C14   H2    S    
S2    O26   S    
C18   H6    S    
O12   Zn2   S    
C5    O13   A    
C26   N2    D    
O17   H15   S    
C6    O14   A    
S2    O25   D    
C10   C14   D    
C4    C23   S    
O16   Zn4   S    
O23   H19   S    
C1    O1    A    
O2    Zn1   S    
H11   N1    S    
C2    O2    A    
S6    O38   S    
C17   C21   D    
C4    O4    A    
C19   C23   D    
S1    O21   D    
C9    O17   S    
S1    O22   D    
S4    O31   D    
O26   H20   S    
C2    C21   S    
S6    O37   D    
O10   Zn1   S    
O7    Zn4   S    
C1    O5    A    
C5    C14   S    
C2    O6    A    
C7    C16   S    
O14   Zn3   S    
C8    C15   S    
N3    Zn3   S    
C16   H4    S    
S4    O32   S    
S3    O29   S    
C11   C17   S    
C4    O8    A    
C18   C22   D    
C5    O9    A    
C26   H10   S    
C6    O10   A    
S2    O24   D    
C24   S4    S    
S5    O34   D    
C15   H3    S    
O8    Zn4   S    
C25   C27   S    
C21   S1    S    
C26   C28   S    
C22   S2    S    
O19   H17   S    
C19   H7    S    
O13   Zn3   S    
C6    C13   S    
C3    O7    A    
C27   N3    D    
S4    O30   D    
S6    O36   D    
C7    O11   A    
O18   H16   S    
S1    O23   S    
O5    Zn3   S    
C20   H8    S    
C10   O18   S    
H12   N2    S    
O29   H21   S    
O35   H23   S    
C23   S3    S    
C12   C18   S    
O38   H24   S    
H13   N3    S    
C20   C24   D    
O6    Zn3   S    
C8    O16   A    
