data_mof_unit_65797.cif
_audit_creation_date              2012-12-10T17:25:58-0500
_audit_creation_method            fapswitch 2.2
_symmetry_space_group_name_H-M    P1
_symmetry_Int_Tables_number       1
_space_group_crystal_system       triclinic
_cell_length_a                    36.665154
_cell_length_b                    29.384979
_cell_length_c                    21.63941
_cell_angle_alpha                 90.042598
_cell_angle_beta                  126.739981
_cell_angle_gamma                 89.953571
_cell_volume                      18683.1868107

loop_
_atom_site_label
_atom_site_type_symbol
_atom_type_description
_atom_site_fract_x
_atom_site_fract_y
_atom_site_fract_z
_atom_type_partial_charge
C1    C     C_R   0.914443 0.000015 0.914474 0.825706
C2    C     C_R   0.085555 0.999995 0.085458 0.846738
C3    C     C_R   0.414445 0.500011 0.914562 0.832079
C4    C     C_R   0.585556 0.499992 0.085513 0.842453
C5    C     C_1   0.820932 0.000092 0.821466 -0.013465
C6    C     C_1   0.179067 0.000027 0.178484 -0.016005
C7    C     C_1   0.320931 0.500042 0.821525 -0.008427
C8    C     C_1   0.679072 0.499993 0.178689 -0.005924
C9    C     C_1   0.770681 0.000108 0.771462 -0.001107
C10   C     C_1   0.229318 0.000048 0.228521 0.000302
C11   C     C_1   0.270678 0.500044 0.771503 -0.000973
C12   C     C_1   0.729326 0.500002 0.228729 -0.000362
C13   C     C_1   0.728287 0.000099 0.729187 -0.001053
C14   C     C_1   0.271713 0.000050 0.270810 0.001559
C15   C     C_1   0.228284 0.500039 0.729214 0.000408
C16   C     C_1   0.771721 0.500006 0.270980 -0.000205
C17   C     C_1   0.678024 0.000071 0.678935 -0.001860
C18   C     C_1   0.321976 0.000039 0.321067 -0.000529
C19   C     C_1   0.178022 0.500027 0.678948 -0.000713
C20   C     C_1   0.821981 0.500007 0.321163 -0.000939
C21   C     C_1   0.635624 0.000041 0.636387 -0.190352
C22   C     C_1   0.364376 0.000025 0.363614 -0.189526
C23   C     C_1   0.135623 0.500015 0.636391 -0.189739
C24   C     C_1   0.864379 0.500005 0.363651 -0.189904
C25   C     C_R   0.000057 0.914466 0.500125 0.791735
C26   C     C_R   0.999983 0.085543 0.500086 0.758059
C27   C     C_R   0.499999 0.414465 0.500531 0.803893
C28   C     C_R   0.500002 0.585542 0.499902 0.815696
C29   C     C_R   0.000405 0.005327 0.621150 0.899270
C30   C     C_R   0.999667 0.002493 0.378552 0.854621
C31   C     C_R   0.500284 0.499611 0.621455 0.963913
C32   C     C_R   0.499605 0.503817 0.378543 0.887630
C33   C     C_R   0.499974 0.084481 0.500005 0.795905
C34   C     C_R   0.500004 0.915515 0.499971 0.796062
C35   C     C_R   0.000026 0.584481 0.500045 0.796006
C36   C     C_R   0.000003 0.415514 0.499997 0.795922
C37   C     C_R   0.584473 0.000009 0.584733 0.795902
C38   C     C_R   0.415527 0.000007 0.415267 0.796086
C39   C     C_R   0.084472 0.500003 0.584733 0.796014
C40   C     C_R   0.915528 0.500003 0.415273 0.795880
C41   C     C_1   0.000245 0.863322 0.500069 -0.243723
C42   C     C_1   0.999972 0.136655 0.500596 -0.238126
C43   C     C_1   0.499930 0.363319 0.500412 -0.249054
C44   C     C_1   0.500024 0.636655 0.499426 -0.225247
C45   C     C_R   0.997903 0.999993 0.876962 0.949323
C46   C     C_R   0.999932 0.999953 0.120908 0.940787
C47   C     C_R   0.496363 0.500015 0.875549 0.960341
C48   C     C_R   0.504750 0.500025 0.125482 0.943361
C49   C     C_1   0.000439 0.820940 0.500286 -0.018323
C50   C     C_1   0.000007 0.179030 0.500759 -0.027222
C51   C     C_1   0.499806 0.320937 0.500469 -0.019397
C52   C     C_1   0.500023 0.679035 0.499162 -0.016197
C53   C     C_1   0.000427 0.770692 0.500309 -0.004400
C54   C     C_1   0.000031 0.229273 0.500680 -0.005431
C55   C     C_1   0.499748 0.270691 0.500446 -0.008665
C56   C     C_1   0.500016 0.729280 0.499211 0.000130
C57   C     C_1   0.499765 0.228301 0.500317 0.000534
C58   C     C_1   0.500016 0.771675 0.499394 -0.001942
C59   C     C_1   0.000343 0.728301 0.500301 0.003916
C60   C     C_1   0.000028 0.271668 0.500502 0.002756
C61   C     C_1   0.499831 0.178037 0.500151 -0.000491
C62   C     C_1   0.500013 0.821946 0.499657 -0.001594
C63   C     C_1   0.000222 0.678037 0.500247 -0.000658
C64   C     C_1   0.000018 0.321941 0.500241 -0.001015
C65   C     C_1   0.499900 0.135636 0.500044 -0.190372
C66   C     C_1   0.500009 0.864352 0.499850 -0.190120
C67   C     C_1   0.000123 0.635636 0.500170 -0.190092
C68   C     C_1   0.000010 0.364348 0.500059 -0.190198
C69   C     C_3   0.000557 0.951642 0.782238 0.283797
C70   C     C_3   0.047023 0.017868 0.260174 0.296064
C71   C     C_3   0.988761 0.951635 0.204386 0.300097
C72   C     C_3   0.958166 0.031687 0.744586 0.247880
C73   C     C_3   0.481065 0.452639 0.764952 0.288900
C74   C     C_3   0.537305 0.538784 0.250991 0.291327
C75   C     C_3   0.517630 0.453250 0.234744 0.279167
C76   C     C_3   0.470632 0.542729 0.755422 0.254438
C77   C     C_3   0.998434 0.953331 0.708427 0.153948
C78   C     C_3   0.048455 0.010530 0.332110 0.140117
C79   C     C_3   0.985646 0.952981 0.273210 0.126833
C80   C     C_3   0.956828 0.028078 0.671926 0.112340
C81   C     C_3   0.478855 0.452984 0.691044 0.121784
C82   C     C_3   0.539253 0.534487 0.324609 0.117176
C83   C     C_3   0.509852 0.453993 0.298084 0.142976
C84   C     C_3   0.467692 0.537795 0.681403 0.102447
C85   C     C_3   0.042586 0.024973 0.833527 -0.656208
C86   C     C_3   0.963070 0.034222 0.173654 -0.657036
C87   C     C_3   0.547171 0.506325 0.837495 -0.720453
C88   C     C_3   0.455225 0.511986 0.164032 -0.636983
C89   C     C_3   0.998079 0.000942 0.808930 -0.218864
C90   C     C_3   0.000077 0.000254 0.189313 -0.190353
C91   C     C_3   0.496975 0.500211 0.807962 -0.204377
C92   C     C_3   0.504522 0.500794 0.193721 -0.175849
C93   C     C_3   0.001645 0.004850 0.691012 -0.246270
C94   C     C_3   0.998430 0.002413 0.308791 -0.263361
C95   C     C_3   0.500731 0.499043 0.690449 -0.223723
C96   C     C_3   0.498765 0.504071 0.308877 -0.240998
C97   C     C_3   0.048080 0.025766 0.766529 0.867693
C98   C     C_3   0.960797 0.037185 0.243838 0.876435
C99   C     C_3   0.551500 0.502259 0.769149 0.881894
C100  C     C_3   0.450413 0.518259 0.230986 0.888826
C101  C     C_1   0.863319 0.000058 0.863609 -0.210533
C102  C     C_1   0.136681 0.000001 0.136315 -0.212235
C103  C     C_1   0.363319 0.500033 0.863681 -0.212512
C104  C     C_1   0.636683 0.499984 0.136477 -0.200047
Cu1   Cu    Cu3+1 1.000000 0.957500 0.000000 0.975492
Cu2   Cu    Cu3+1 1.000000 0.042500 0.000000 0.928521
Cu3   Cu    Cu3+1 0.500000 0.457500 0.000000 0.944774
Cu4   Cu    Cu3+1 0.500000 0.542500 0.000000 0.939304
Cu5   Cu    Cu3+1 0.957500 1.000000 0.457520 0.950667
Cu6   Cu    Cu3+1 0.042500 1.000000 0.542480 0.964206
Cu7   Cu    Cu3+1 0.457500 0.500000 0.457520 0.950173
Cu8   Cu    Cu3+1 0.542500 0.500000 0.542480 0.977623
Cu9   Cu    Cu3+1 0.499970 0.000000 0.437500 0.957079
Cu10  Cu    Cu3+1 0.500030 1.000000 0.562500 0.957976
Cu11  Cu    Cu3+1 0.999970 0.500000 0.437500 0.957280
Cu12  Cu    Cu3+1 0.000030 0.500000 0.562500 0.958378
H1    H     H_    0.035849 0.940128 0.828677 0.167335
H2    H     H_    0.048816 0.054887 0.250903 0.081411
H3    H     H_    0.954698 0.941980 0.150736 0.095227
H4    H     H_    0.966367 0.067059 0.767482 0.115175
H5    H     H_    0.509873 0.429503 0.805327 0.171676
H6    H     H_    0.522642 0.571657 0.220605 0.092016
H7    H     H_    0.494136 0.427235 0.190747 0.129048
H8    H     H_    0.491059 0.573201 0.788812 0.115314
H9    H     H_    0.965044 0.939552 0.659111 0.069230
H10   H     H_    0.065638 0.976963 0.354558 0.197578
H11   H     H_    0.011446 0.928361 0.317420 0.109295
H12   H     H_    0.929382 0.002952 0.635264 0.171198
H13   H     H_    0.442549 0.452027 0.639502 0.080136
H14   H     H_    0.570091 0.513174 0.363513 0.200841
H15   H     H_    0.542613 0.443461 0.353498 0.115759
H16   H     H_    0.432891 0.524202 0.638411 0.168048
H17   H     H_    0.071116 0.009546 0.888018 0.157029
H18   H     H_    0.971239 0.068630 0.163329 0.214060
H19   H     H_    0.931226 0.026465 0.116719 0.155391
H20   H     H_    0.042660 0.060592 0.851367 0.202750
H21   H     H_    0.569056 0.482903 0.886388 0.147537
H22   H     H_    0.443777 0.543573 0.128601 0.192033
H23   H     H_    0.433736 0.484520 0.123419 0.167591
H24   H     H_    0.559156 0.540476 0.864600 0.191015
O1    O     O_R   0.938020 0.964110 0.938040 -0.581469
O2    O     O_R   0.061980 0.035890 0.061960 -0.578032
O3    O     O_R   0.061980 0.964110 0.061960 -0.555558
O4    O     O_R   0.938020 0.035890 0.938040 -0.570040
O5    O     O_R   0.438020 0.464110 0.938040 -0.564264
O6    O     O_R   0.561980 0.535890 0.061960 -0.569314
O7    O     O_R   0.561980 0.464110 0.061960 -0.583707
O8    O     O_R   0.438020 0.535890 0.938040 -0.565992
O9    O     O_R   0.999990 0.964110 0.908840 -0.554773
O10   O     O_R   0.000010 0.035890 0.091160 -0.611031
O11   O     O_R   0.000010 0.964110 0.091160 -0.556907
O12   O     O_R   0.999990 0.035890 0.908840 -0.604203
O13   O     O_R   0.499990 0.464110 0.908840 -0.571110
O14   O     O_R   0.500010 0.535890 0.091160 -0.594248
O15   O     O_R   0.500010 0.464110 0.091160 -0.613716
O16   O     O_R   0.499990 0.535890 0.908840 -0.593203
O17   O     O_R   0.964100 0.938030 0.464100 -0.583020
O18   O     O_R   0.035900 0.061970 0.535900 -0.590861
O19   O     O_R   0.035900 0.938030 0.535900 -0.553469
O20   O     O_R   0.964100 0.061970 0.464100 -0.567321
O21   O     O_R   0.464100 0.438030 0.464100 -0.574684
O22   O     O_R   0.535900 0.561970 0.535900 -0.562865
O23   O     O_R   0.535900 0.438030 0.535900 -0.562762
O24   O     O_R   0.464100 0.561970 0.464100 -0.579719
O25   O     O_R   0.964110 1.000000 0.555280 -0.577399
O26   O     O_R   0.035890 1.000000 0.444720 -0.561056
O27   O     O_R   0.464110 0.500000 0.555280 -0.605794
O28   O     O_R   0.535890 0.500000 0.444720 -0.583891
O29   O     O_R   0.035850 1.000000 0.627010 -0.549149
O30   O     O_R   0.964150 0.000000 0.372990 -0.556629
O31   O     O_R   0.535850 0.500000 0.627010 -0.538885
O32   O     O_R   0.464150 0.500000 0.372990 -0.562570
O33   O     O_R   0.499940 0.061950 0.447200 -0.557549
O34   O     O_R   0.500060 0.938050 0.552800 -0.557418
O35   O     O_R   0.500060 0.061950 0.552800 -0.557144
O36   O     O_R   0.499940 0.938050 0.447200 -0.557333
O37   O     O_R   0.999940 0.561950 0.447200 -0.557435
O38   O     O_R   0.000060 0.438050 0.552800 -0.557248
O39   O     O_R   0.000060 0.561950 0.552800 -0.557146
O40   O     O_R   0.999940 0.438050 0.447200 -0.557399
O41   O     O_R   0.561950 0.000000 0.509180 -0.557440
O42   O     O_R   0.438050 1.000000 0.490820 -0.556917
O43   O     O_R   0.061950 0.500000 0.509180 -0.557167
O44   O     O_R   0.938050 0.500000 0.490820 -0.556766
O45   O     O_R   0.561950 1.000000 0.614710 -0.557438
O46   O     O_R   0.438050 1.000000 0.385290 -0.557509
O47   O     O_R   0.061950 0.500000 0.614710 -0.557410
O48   O     O_R   0.938050 0.500000 0.385290 -0.557834
O49   O     O_3   0.974187 0.916261 0.782846 -0.595878
C105  C     C_3   0.926777 0.923145 0.734343 -0.217136
H25   H     H_    0.913902 0.940996 0.679907 0.153334
H26   H     H_    0.916197 0.940479 0.766832 0.220283
H27   H     H_    0.910112 0.889294 0.717741 0.153141
O50   O     O_3   0.082735 0.993007 0.267407 -0.531063
C106  C     C_3   0.120255 0.021475 0.292912 -0.283961
H28   H     H_    0.132867 0.038395 0.348365 0.184556
H29   H     H_    0.111334 0.047231 0.248226 0.143989
H30   H     H_    0.148334 0.000322 0.302649 0.192565
O51   O     O_3   0.023533 0.920564 0.221692 -0.532554
C107  C     C_3   0.004916 0.878718 0.183234 -0.273697
H31   H     H_    0.986118 0.882778 0.119977 0.167215
H32   H     H_    0.982136 0.863955 0.195610 0.131611
H33   H     H_    0.033125 0.854327 0.203820 0.187569
O52   O     O_3   0.916070 0.018247 0.728407 -0.611596
C108  C     C_3   0.886224 0.055598 0.704455 -0.325902
H34   H     H_    0.879681 0.072308 0.652653 0.200442
H35   H     H_    0.899646 0.080582 0.752113 0.163067
H36   H     H_    0.853169 0.042979 0.688789 0.188813
O53   O     O_3   0.444185 0.429733 0.756915 -0.595403
C109  C     C_3   0.402657 0.453577 0.715164 -0.231955
H37   H     H_    0.396185 0.473483 0.666153 0.157584
H38   H     H_    0.400414 0.474941 0.755042 0.208919
H39   H     H_    0.374735 0.428316 0.690121 0.160634
O54   O     O_3   0.581078 0.532048 0.268749 -0.536826
C110  C     C_3   0.606778 0.572526 0.295644 -0.285058
H40   H     H_    0.615817 0.582170 0.352853 0.190845
H41   H     H_    0.588914 0.600790 0.253437 0.137714
H42   H     H_    0.639089 0.566357 0.303235 0.187572
O55   O     O_3   0.564371 0.443602 0.270335 -0.555768
C111  C     C_3   0.570315 0.405193 0.237915 -0.288150
H43   H     H_    0.564648 0.414303 0.183120 0.198766
H44   H     H_    0.548294 0.376063 0.228818 0.120631
H45   H     H_    0.606105 0.393595 0.278366 0.186810
O56   O     O_3   0.426665 0.546238 0.737629 -0.608651
C112  C     C_3   0.411908 0.591918 0.725091 -0.312941
H46   H     H_    0.411260 0.607643 0.677778 0.199143
H47   H     H_    0.433530 0.612209 0.778956 0.160682
H48   H     H_    0.376665 0.592621 0.707708 0.185597
O57   O     O_3   0.035332 0.927650 0.720888 -0.571819
C113  C     C_3   0.021081 0.887759 0.675253 0.110983
H49   H     H_    0.048765 0.878206 0.670837 0.174380
H50   H     H_    0.990179 0.893321 0.615199 0.110393
C114  C     C_3   0.013758 0.848402 0.713132 -0.364104
H51   H     H_    0.043821 0.845304 0.774495 0.237158
H52   H     H_    0.983209 0.855169 0.710800 0.249900
C115  C     C_3   0.006622 0.803478 0.671870 -0.909347
H53   H     H_    0.976085 0.805603 0.610797 0.261232
H54   H     H_    0.001394 0.775714 0.700610 0.261358
H55   H     H_    0.036892 0.795138 0.673940 0.262612
O58   O     O_3   0.080531 0.038469 0.396390 -0.604633
C116  C     C_3   0.067334 0.083888 0.392309 0.118597
H56   H     H_    0.043359 0.085167 0.407271 0.168824
H57   H     H_    0.053001 0.099563 0.335466 0.162269
C117  C     C_3   0.109150 0.111525 0.453300 -0.357260
H58   H     H_    0.125326 0.095775 0.510928 0.235772
H59   H     H_    0.134206 0.111305 0.440198 0.213154
C118  C     C_3   0.096396 0.160624 0.455680 -0.919334
H60   H     H_    0.080559 0.177301 0.398897 0.257540
H61   H     H_    0.127457 0.179874 0.500196 0.261309
H62   H     H_    0.072176 0.161596 0.470531 0.260863
O59   O     O_3   0.940985 0.940305 0.246312 -0.626668
C119  C     C_3   0.939632 0.907263 0.292452 0.134789
H63   H     H_    0.910903 0.916594 0.294239 0.183553
H64   H     H_    0.970563 0.906726 0.353213 0.106986
C120  C     C_3   0.931124 0.859906 0.256559 -0.405270
H65   H     H_    0.908996 0.862631 0.192611 0.231988
H66   H     H_    0.964173 0.844689 0.276220 0.205592
C121  C     C_3   0.908218 0.828277 0.279790 -0.891727
H67   H     H_    0.929043 0.825426 0.343405 0.266232
H68   H     H_    0.904384 0.793877 0.255294 0.257544
H69   H     H_    0.873919 0.841370 0.257318 0.252051
O60   O     O_3   0.938545 0.066499 0.621663 -0.609586
C122  C     C_3   0.964541 0.106730 0.650256 0.101250
H70   H     H_    0.986444 0.107837 0.630996 0.164017
H71   H     H_    0.985236 0.110461 0.713591 0.164010
C123  C     C_3   0.932429 0.147528 0.614251 -0.358309
H72   H     H_    0.910970 0.144773 0.550339 0.237476
H73   H     H_    0.909738 0.147613 0.632352 0.209222
C124  C     C_3   0.958832 0.192233 0.638841 -0.916361
H74   H     H_    0.979919 0.196173 0.702487 0.253158
H75   H     H_    0.934610 0.221175 0.611630 0.262297
H76   H     H_    0.981262 0.193152 0.620276 0.262847
O61   O     O_3   0.503417 0.414820 0.692660 -0.586611
C125  C     C_3   0.475862 0.384348 0.630726 0.075070
H77   H     H_    0.499217 0.362595 0.627010 0.174142
H78   H     H_    0.453450 0.402314 0.574450 0.129820
C126  C     C_3   0.448120 0.353412 0.645375 -0.343479
H79   H     H_    0.470990 0.337927 0.703648 0.240396
H80   H     H_    0.421682 0.373638 0.642848 0.238733
C127  C     C_3   0.424689 0.315630 0.585153 -0.917407
H81   H     H_    0.401515 0.330425 0.526430 0.257640
H82   H     H_    0.404393 0.294131 0.596501 0.260957
H83   H     H_    0.450358 0.293813 0.587808 0.263574
O62   O     O_3   0.551405 0.573969 0.371828 -0.616604
C128  C     C_3   0.525559 0.613906 0.336097 0.091776
H84   H     H_    0.505455 0.620099 0.358074 0.161946
H85   H     H_    0.502318 0.613224 0.272601 0.166435
C129  C     C_3   0.557573 0.654528 0.361157 -0.367326
H86   H     H_    0.582471 0.654973 0.425081 0.240232
H87   H     H_    0.576576 0.651494 0.336310 0.202054
C130  C     C_3   0.531272 0.699357 0.334376 -0.917812
H88   H     H_    0.506376 0.699901 0.270512 0.252927
H89   H     H_    0.555348 0.728130 0.352798 0.261740
H90   H     H_    0.512895 0.703937 0.360206 0.262433
O63   O     O_3   0.473497 0.423913 0.276273 -0.589658
C131  C     C_3   0.487594 0.387162 0.328210 0.110533
H91   H     H_    0.456777 0.373445 0.320128 0.175821
H92   H     H_    0.511131 0.398171 0.389372 0.117514
C132  C     C_3   0.509312 0.349345 0.311379 -0.410361
H93   H     H_    0.486922 0.341210 0.248780 0.227155
H94   H     H_    0.542744 0.361132 0.327706 0.223285
C133  C     C_3   0.517053 0.306327 0.357175 -0.881702
H95   H     H_    0.540952 0.313404 0.419972 0.263482
H96   H     H_    0.532130 0.279515 0.342620 0.254951
H97   H     H_    0.484314 0.293538 0.342863 0.259991
O64   O     O_3   0.464505 0.579204 0.643999 -0.617166
C134  C     C_3   0.503520 0.607068 0.683193 0.110254
H98   H     H_    0.524764 0.597731 0.664196 0.189425
H99   H     H_    0.523795 0.605197 0.746762 0.156557
C135  C     C_3   0.488524 0.656486 0.659944 -0.371118
H100  H     H_    0.467202 0.659594 0.596122 0.239726
H101  H     H_    0.467654 0.666948 0.679230 0.211306
C136  C     C_3   0.529384 0.688272 0.695732 -0.906489
H102  H     H_    0.550509 0.686655 0.759661 0.251297
H103  H     H_    0.517336 0.723782 0.677163 0.262803
H104  H     H_    0.550556 0.678655 0.676701 0.261755
O65   O     O_3   0.085499 0.998808 0.781543 -0.581574
C137  C     C_3   0.125713 0.994496 0.858456 0.088124
H105  H     H_    0.150672 0.975830 0.854676 0.164167
H106  H     H_    0.120331 0.971221 0.892674 0.134124
C138  C     C_3   0.148633 0.039723 0.900052 -0.405347
H107  H     H_    0.162049 0.056844 0.871733 0.213933
H108  H     H_    0.124516 0.063174 0.898711 0.247520
C139  C     C_3   0.188283 0.031306 0.984331 -0.907566
H109  H     H_    0.175875 0.015364 0.015147 0.259084
H110  H     H_    0.204829 0.064172 0.012790 0.261133
H111  H     H_    0.213946 0.008684 0.988443 0.257862
O66   O     O_3   0.973999 0.082915 0.271255 -0.693493
C140  C     C_3   0.952840 0.104073 0.301476 0.074857
H112  H     H_    0.979288 0.123795 0.353050 0.129508
H113  H     H_    0.938518 0.080227 0.321515 0.196512
C141  C     C_3   0.917060 0.138351 0.243737 -0.330717
H114  H     H_    0.932726 0.162503 0.226321 0.220779
H115  H     H_    0.888984 0.120453 0.191673 0.222578
C142  C     C_3   0.897488 0.165066 0.278272 -0.907044
H116  H     H_    0.881724 0.141548 0.296289 0.260708
H117  H     H_    0.871018 0.188982 0.234521 0.254431
H118  H     H_    0.924685 0.185033 0.328967 0.264516
O67   O     O_3   0.916608 0.027945 0.226199 -0.597059
C143  C     C_3   0.880805 0.009749 0.153273 0.135565
H119  H     H_    0.858051 0.990744 0.162041 0.167353
H120  H     H_    0.891918 0.983611 0.130900 0.155382
C144  C     C_3   0.851970 0.047279 0.094130 -0.434792
H121  H     H_    0.832808 0.065671 0.111294 0.220795
H122  H     H_    0.873873 0.072208 0.091907 0.226454
C145  C     C_3   0.818114 0.027382 0.013646 -0.899925
H123  H     H_    0.836471 0.009972 0.994060 0.253140
H124  H     H_    0.797113 0.055147 0.972403 0.264185
H125  H     H_    0.795233 0.002683 0.013758 0.256490
O68   O     O_3   0.053996 0.072677 0.756870 -0.693206
C146  C     C_3   0.076313 0.082386 0.722909 0.066448
H126  H     H_    0.051579 0.080979 0.659823 0.153179
H127  H     H_    0.105035 0.059364 0.740935 0.193505
C147  C     C_3   0.094595 0.131012 0.744175 -0.389886
H128  H     H_    0.065949 0.154987 0.723450 0.227441
H129  H     H_    0.119014 0.134127 0.807920 0.225063
C148  C     C_3   0.118556 0.144125 0.708466 -0.895744
H130  H     H_    0.148157 0.121405 0.730141 0.250149
H131  H     H_    0.130934 0.179734 0.724348 0.258663
H132  H     H_    0.094713 0.141626 0.644637 0.268072
O69   O     O_3   0.575321 0.463206 0.769153 -0.578435
C149  C     C_3   0.604745 0.439419 0.839346 0.045288
H133  H     H_    0.584579 0.418821 0.852040 0.158330
H134  H     H_    0.628039 0.462785 0.887920 0.124568
C150  C     C_3   0.633707 0.406655 0.830495 -0.306751
H135  H     H_    0.611086 0.382741 0.782207 0.239293
H136  H     H_    0.653853 0.426203 0.816504 0.207583
C151  C     C_3   0.666127 0.379433 0.904194 -0.930181
H137  H     H_    0.689638 0.402664 0.952957 0.256906
H138  H     H_    0.686594 0.355980 0.895811 0.259148
H139  H     H_    0.646660 0.358970 0.918560 0.258944
O70   O     O_3   0.440525 0.565359 0.230770 -0.690388
C152  C     C_3   0.421460 0.576965 0.269631 0.068854
H140  H     H_    0.448402 0.578823 0.332287 0.148962
H141  H     H_    0.395001 0.552926 0.259092 0.191815
C153  C     C_3   0.399916 0.624189 0.242879 -0.399404
H142  H     H_    0.426073 0.649241 0.254621 0.224247
H143  H     H_    0.372568 0.623635 0.179704 0.225746
C154  C     C_3   0.379786 0.639445 0.284119 -0.891951
H144  H     H_    0.352810 0.615427 0.271875 0.251917
H145  H     H_    0.364550 0.673814 0.263501 0.258578
H146  H     H_    0.406730 0.641074 0.347341 0.265152
O71   O     O_3   0.415580 0.489946 0.222532 -0.581627
C155  C     C_3   0.374022 0.483135 0.147588 0.090386
H147  H     H_    0.350734 0.465472 0.156509 0.158556
H148  H     H_    0.378213 0.458116 0.113919 0.144118
C156  C     C_3   0.348954 0.526499 0.100984 -0.403674
H149  H     H_    0.337475 0.546160 0.130258 0.215660
H150  H     H_    0.370949 0.548508 0.094563 0.246893
C157  C     C_3   0.307046 0.514421 0.020184 -0.912062
H151  H     H_    0.317236 0.495759 0.988024 0.259956
H152  H     H_    0.289063 0.546065 0.988138 0.262503
H153  H     H_    0.283303 0.493012 0.023487 0.256948
O72   O     O_3   0.571231 0.543087 0.765718 -0.675384
C158  C     C_3   0.619387 0.544613 0.810236 0.087890
H154  H     H_    0.627360 0.569013 0.780655 0.160408
H155  H     H_    0.635513 0.512416 0.811506 0.167009
C159  C     C_3   0.640999 0.563094 0.891559 -0.411624
H156  H     H_    0.623895 0.595394 0.887562 0.225716
H157  H     H_    0.636941 0.538367 0.925689 0.209789
C160  C     C_3   0.691749 0.572012 0.934280 -0.902121
H158  H     H_    0.697260 0.597854 0.903182 0.255146
H159  H     H_    0.709578 0.540024 0.939511 0.253871
H160  H     H_    0.706489 0.584993 0.993070 0.260834

loop_
_geom_bond_atom_site_label_1
_geom_bond_atom_site_label_2
_ccdc_geom_bond_type
C120  H66   S    
C35   O37   A    
C148  H130  S    
C87   C91   S    
C130  H88   S    
Cu7   O21   S    
C156  C157  S    
C76   O56   S    
O62   C128  S    
Cu12  O38   S    
C81   C95   S    
C95   C99   S    
C22   C38   S    
C112  H48   S    
C117  H58   S    
C125  H77   S    
C74   C92   S    
C9    C13   T    
C11   C15   T    
C86   H18   S    
C37   O45   A    
C12   C16   T    
C139  H109  S    
C25   O19   A    
C141  C142  S    
C26   O20   A    
C153  C154  S    
C106  H30   S    
C32   O32   A    
O51   C107  S    
C74   O54   S    
C79   O59   S    
C41   C49   T    
C151  H137  S    
Cu2   O2    S    
Cu4   O6    S    
Cu1   O11   S    
C5    C101  T    
Cu2   O12   S    
C129  C130  S    
C122  H70   S    
C143  H119  S    
C86   C90   S    
C152  C153  S    
C25   C41   S    
C142  H117  S    
C157  H152  S    
C47   O13   A    
C28   C44   S    
C17   C21   T    
C19   C23   T    
C110  H40   S    
C83   H15   S    
O57   C113  S    
C34   O34   A    
C81   H13   S    
C75   O55   S    
C16   C20   S    
C37   O41   A    
C97   O65   S    
O64   C134  S    
C80   O60   S    
C141  H114  S    
C113  H50   S    
C8    C104  T    
C73   C91   S    
Cu11  O37   S    
C131  H91   S    
C48   O15   A    
C31   O27   A    
C148  H132  S    
C73   H5    S    
C55   C57   T    
C110  H42   S    
Cu7   O27   S    
O71   C155  S    
C1    C101  S    
C77   H9    S    
C118  H62   S    
C3    C103  S    
C122  H71   S    
C79   H11   S    
C137  C138  S    
C59   C63   S    
C155  H148  S    
C36   C68   S    
C57   C61   S    
C77   O57   S    
C117  C118  S    
C71   H3    S    
C60   C64   S    
C127  H81   S    
C128  H85   S    
C150  H135  S    
C78   C94   S    
C139  H111  S    
C49   C53   S    
C4    C104  S    
C26   O18   A    
C51   C55   S    
C6    C102  T    
O68   C146  S    
C85   C97   S    
O72   C158  S    
C142  H116  S    
Cu6   O29   S    
C61   C65   T    
Cu10  O34   S    
C30   C94   S    
C138  H107  S    
C29   O29   A    
C80   C93   S    
C151  H139  S    
Cu3   O15   S    
C119  H63   S    
Cu4   O8    S    
C105  H25   S    
Cu2   O10   S    
C69   C77   S    
Cu7   Cu8   S    
C143  C144  S    
C87   H24   S    
C82   O62   S    
C34   C66   S    
C71   C79   S    
C160  H158  S    
C146  C147  S    
O70   C152  S    
Cu10  O45   S    
C64   C68   T    
C73   O53   S    
C130  H89   S    
Cu7   O32   S    
C154  H144  S    
C136  H103  S    
Cu8   O31   S    
C149  H133  S    
C2    C102  S    
Cu11  Cu12  S    
C115  H53   S    
C116  H56   S    
C137  H106  S    
C27   O23   A    
C131  C132  S    
Cu9   O41   S    
Cu3   Cu4   S    
C114  H51   S    
C44   C52   T    
C46   O11   A    
C7    C103  T    
C126  H79   S    
C140  H113  S    
C113  H49   S    
C69   C89   S    
C111  H43   S    
C153  H143  S    
O61   C125  S    
C108  H35   S    
C35   O39   A    
Cu12  O47   S    
C133  H96   S    
C62   C66   T    
C76   H8    S    
C36   O38   A    
C97   O68   S    
C79   C94   S    
C10   C14   T    
C150  C151  S    
C154  H146  S    
C80   H12   S    
C38   O46   A    
C84   H16   S    
C106  H28   S    
C84   C95   S    
C129  H87   S    
C5    C9    S    
C100  O71   S    
C114  H52   S    
C145  H124  S    
C35   C67   S    
C8    C12   S    
C138  C139  S    
C72   H4    S    
O53   C109  S    
Cu3   O13   S    
C123  H73   S    
C42   C50   T    
C119  C120  S    
C107  H32   S    
C3    O5    A    
C109  H38   S    
C144  H122  S    
C2    O2    A    
C159  H157  S    
C124  H76   S    
C93   C97   S    
C160  H160  S    
C26   C42   S    
C145  H125  S    
C48   O14   A    
C32   C96   S    
C18   C22   T    
Cu7   O24   S    
O66   C140  S    
C156  H150  S    
C123  C124  S    
O60   C122  S    
C40   O48   A    
C109  H39   S    
C38   O42   A    
C115  H55   S    
C13   C17   S    
C134  C135  S    
C121  H67   S    
C72   C80   S    
C1    O4    A    
C27   O21   A    
C84   O64   S    
C71   C90   S    
C31   O31   A    
C70   H2    S    
C83   C96   S    
C96   C100  S    
O58   C116  S    
C112  H47   S    
C56   C58   T    
C125  H78   S    
C99   O69   S    
C132  C133  S    
C76   C91   S    
C86   H19   S    
Cu4   O14   S    
O52   C108  S    
C139  H110  S    
C147  H128  S    
C48   C92   S    
C126  C127  S    
C135  C136  S    
C111  H45   S    
C106  H29   S    
C58   C62   S    
C125  C126  S    
C36   O40   A    
C127  H83   S    
O56   C112  S    
C76   C84   S    
C151  H138  S    
O59   C119  S    
Cu5   O30   S    
C15   C19   S    
C50   C54   S    
C143  H120  S    
C152  H141  S    
C158  C159  S    
C47   O16   A    
C94   C98   S    
C29   O25   A    
C30   O30   A    
C105  H27   S    
C75   C83   S    
C146  H126  S    
C45   C89   S    
Cu11  O40   S    
Cu6   O18   S    
C72   O52   S    
C131  H92   S    
O50   C106  S    
C120  C121  S    
Cu5   O17   S    
C148  H131  S    
C124  H74   S    
C74   C82   S    
C135  H101  S    
C118  H61   S    
C28   O22   A    
C134  H98   S    
O63   C131  S    
C124  H75   S    
C85   C89   S    
Cu10  O42   S    
C4    O7    A    
C132  H93   S    
C128  H84   S    
Cu3   O7    S    
C98   O67   S    
O67   C143  S    
Cu4   O16   S    
C70   O50   S    
C88   C100  S    
Cu5   O25   S    
C73   C81   S    
Cu9   O36   S    
Cu10  O35   S    
C74   H6    S    
C78   H10   S    
O55   C111  S    
Cu1   O9    S    
C119  H64   S    
Cu9   Cu10  S    
Cu8   O23   S    
C135  H100  S    
C105  H26   S    
C47   C91   S    
C141  H115  S    
C6    C10   S    
C142  H118  S    
Cu11  O43   S    
C158  H154  S    
C146  H127  S    
C99   O72   S    
C71   O51   S    
C157  H151  S    
C46   C90   S    
Cu1   Cu2   S    
C45   O12   A    
C116  C117  S    
C150  H136  S    
Cu5   Cu6   S    
C29   C93   S    
C43   C51   T    
C136  H102  S    
C149  H134  S    
C31   C95   S    
C77   C93   S    
C115  H54   S    
C81   O61   S    
O49   C105  S    
C86   C98   S    
C1    O1    A    
C27   C43   S    
C21   C37   S    
Cu12  O39   S    
C39   O43   A    
C85   H17   S    
C40   O44   A    
C149  C150  S    
C122  C123  S    
C144  H121  S    
C72   C89   S    
C70   C78   S    
C158  H155  S    
C140  H112  S    
C14   C18   S    
C155  H147  S    
C157  H153  S    
C111  H44   S    
C53   C59   T    
C33   C65   S    
C54   C60   T    
C108  H34   S    
C7    C11   S    
C133  H97   S    
C75   H7    S    
C127  H82   S    
C128  C129  S    
C110  H41   S    
Cu1   O1    S    
Cu3   O5    S    
C154  H145  S    
Cu8   O28   S    
Cu12  O44   S    
C113  C114  S    
C83   O63   S    
C88   C92   S    
C117  H59   S    
C107  H31   S    
C138  H108  S    
C98   O66   S    
C82   H14   S    
C33   O33   A    
C39   O47   A    
C3    O8    A    
C2    O3    A    
C159  C160  S    
C70   C90   S    
C87   H21   S    
C160  H159  S    
C87   C99   S    
C63   C67   T    
C82   C96   S    
C20   C24   T    
C130  H90   S    
C30   O26   A    
C69   O49   S    
O54   C110  S    
C136  H104  S    
C85   H20   S    
C116  H57   S    
C121  H68   S    
C88   H23   S    
C137  H105  S    
C114  C115  S    
C100  O70   S    
C4    O6    A    
C112  H46   S    
C132  H94   S    
C75   C92   S    
C46   O10   A    
C147  H129  S    
C126  H80   S    
C25   O17   A    
C140  C141  S    
C121  H69   S    
C120  H65   S    
C155  C156  S    
C153  H142  S    
C28   O24   A    
Cu9   O33   S    
C108  H36   S    
C133  H95   S    
C78   O58   S    
Cu1   O3    S    
C118  H60   S    
Cu2   O4    S    
C147  C148  S    
Cu8   O22   S    
O69   C149  S    
C88   H22   S    
C129  H86   S    
C32   O28   A    
C134  H99   S    
C152  H140  S    
Cu11  O48   S    
Cu6   O26   S    
C145  H123  S    
C107  H33   S    
C23   C39   S    
Cu9   O46   S    
C69   H1    S    
C24   C40   S    
C45   O9    A    
O65   C137  S    
C33   O35   A    
C34   O36   A    
C123  H72   S    
C52   C56   S    
C109  H37   S    
C144  C145  S    
C159  H156  S    
Cu5   O20   S    
Cu6   O19   S    
C156  H149  S    
