data_mof_unit_24497.cif
_audit_creation_date              2012-10-26T20:48:41-0400
_audit_creation_method            fapswitch 2.2
_symmetry_space_group_name_H-M    P1
_symmetry_Int_Tables_number       1
_space_group_crystal_system       triclinic
_cell_length_a                    15.120594
_cell_length_b                    13.907956
_cell_length_c                    9.118782
_cell_angle_alpha                 89.89271
_cell_angle_beta                  89.588233
_cell_angle_gamma                 89.83674
_cell_volume                      1917.58785453

loop_
_atom_site_label
_atom_site_type_symbol
_atom_type_description
_atom_site_fract_x
_atom_site_fract_y
_atom_site_fract_z
_atom_type_partial_charge
C1    C     C_R   0.329814 0.500054 0.499563 0.551379
C2    C     C_R   0.577726 0.893609 0.470203 0.218401
C3    C     C_R   0.500045 0.500051 0.220560 0.544099
C4    C     C_R   0.499987 0.499943 0.779439 0.544059
C5    C     C_R   0.499997 0.055342 0.499809 -0.064523
C6    C     C_R   0.499948 0.946475 0.499781 -0.057610
C7    C     C_1   0.500038 0.500059 0.065452 -0.032870
C8    C     C_1   0.500020 0.499911 0.934547 -0.032908
C9    C     C_R   0.094039 0.585757 0.477228 0.234615
C10   C     C_R   0.903736 0.437383 0.404471 0.249756
C11   C     C_R   0.902867 0.559706 0.597402 0.249359
C12   C     C_R   0.669717 0.499859 0.500000 0.547466
C13   C     C_R   0.095111 0.412303 0.521636 0.239976
C14   C     C_R   0.186091 0.585655 0.479381 -0.122320
C15   C     C_R   0.811749 0.436006 0.409118 -0.120306
C16   C     C_R   0.810949 0.562181 0.592027 -0.100063
C17   C     C_R   0.187170 0.413330 0.518051 -0.125533
C18   C     C_R   0.233058 0.499794 0.498982 -0.081646
C19   C     C_R   0.765571 0.499433 0.500270 -0.058860
C20   C     C_R   0.047724 0.498804 0.500039 0.040904
C21   C     C_R   0.950301 0.498402 0.500946 0.042163
C22   C     C_3   0.032692 0.691053 0.315772 -0.006606
C23   C     C_R   0.555716 0.209233 0.590163 0.463316
C24   C     C_3   0.991952 0.790692 0.301441 -0.342457
C25   C     C_3   0.973387 0.422798 0.183607 -0.002490
C26   C     C_3   0.017107 0.351728 0.079461 -0.351448
C27   C     C_3   0.970570 0.573359 0.818286 -0.002663
C28   C     C_3   0.016232 0.643231 0.920535 -0.352023
C29   C     C_3   0.038869 0.304615 0.685337 -0.014297
C30   C     C_3   0.005856 0.201926 0.701277 -0.341635
C31   C     C_3   0.570730 0.033170 0.814462 0.015666
C32   C     C_3   0.636380 0.985740 0.917036 -0.346888
C33   C     C_3   0.325240 0.963045 0.690777 0.016166
C34   C     C_R   0.424671 0.792420 0.534252 0.450967
C35   C     C_3   0.232275 0.004151 0.705505 -0.345245
C36   C     C_3   0.429198 0.035038 0.184888 0.016435
C37   C     C_3   0.363821 0.987087 0.083073 -0.348413
C38   C     C_3   0.675115 0.960188 0.307743 0.012703
C39   C     C_3   0.769269 0.997097 0.291584 -0.336898
C40   C     C_R   0.444260 0.209846 0.409778 0.459031
C41   C     C_R   0.575459 0.792087 0.466374 0.453616
C42   C     C_R   0.556011 0.107822 0.594169 0.222456
C43   C     C_R   0.422211 0.893967 0.529749 0.218243
C44   C     C_R   0.443973 0.108455 0.405593 0.222267
Cu1   Cu    Cu3+1 0.500000 0.596430 0.500000 1.088487
Cu2   Cu    Cu3+1 0.500000 0.403570 0.500000 1.098566
F1    F     F_    0.611270 0.258126 0.678884 -0.586193
F2    F     F_    0.349876 0.746887 0.576323 -0.618960
F3    F     F_    0.388664 0.259324 0.321159 -0.589456
F4    F     F_    0.650922 0.746336 0.426930 -0.603659
H1    H     H_    0.220421 0.653129 0.464134 0.215812
H2    H     H_    0.022888 0.479109 0.208836 0.113558
H3    H     H_    0.915576 0.455961 0.127460 0.110997
H4    H     H_    0.968153 0.297657 0.042793 0.152360
H5    H     H_    0.043686 0.390669 0.982649 0.061600
H6    H     H_    0.072649 0.314479 0.135125 0.192943
H7    H     H_    0.018457 0.514979 0.792600 0.111542
H8    H     H_    0.911837 0.542756 0.876042 0.112012
H9    H     H_    0.968960 0.699778 0.956714 0.153737
H10   H     H_    0.041142 0.603978 0.017802 0.059874
H11   H     H_    0.073157 0.677485 0.863406 0.188052
H12   H     H_    0.776351 0.387276 0.338001 0.147951
H13   H     H_    0.987618 0.353508 0.731833 0.118553
H14   H     H_    0.101320 0.311197 0.748859 0.114184
H15   H     H_    0.055627 0.150981 0.655811 0.157775
H16   H     H_    0.994685 0.184864 0.818937 0.094182
H17   H     H_    0.942625 0.193218 0.641523 0.188815
H18   H     H_    0.518649 0.979425 0.790493 0.097504
H19   H     H_    0.540658 0.096234 0.871500 0.134602
H20   H     H_    0.686538 0.038855 0.952399 0.162902
H21   H     H_    0.600678 0.957619 0.014539 0.053974
H22   H     H_    0.670018 0.924866 0.860799 0.185690
H23   H     H_    0.774939 0.611277 0.662914 0.163371
H24   H     H_    0.372448 0.018670 0.728756 0.094835
H25   H     H_    0.329829 0.897992 0.761890 0.156638
H26   H     H_    0.218215 0.022490 0.821777 0.082785
H27   H     H_    0.226041 0.070284 0.637804 0.173353
H28   H     H_    0.183056 0.950489 0.668299 0.181763
H29   H     H_    0.482165 0.981837 0.208398 0.096455
H30   H     H_    0.458143 0.098530 0.127493 0.136936
H31   H     H_    0.312591 0.039636 0.048593 0.162971
H32   H     H_    0.399457 0.959809 0.984952 0.054298
H33   H     H_    0.331486 0.925571 0.139613 0.181422
H34   H     H_    0.222447 0.346030 0.531819 0.177920
H35   H     H_    0.629497 0.017402 0.268594 0.097222
H36   H     H_    0.668508 0.894826 0.238156 0.153725
H37   H     H_    0.777682 0.063543 0.357388 0.181836
H38   H     H_    0.783724 0.013641 0.174738 0.087831
H39   H     H_    0.816796 0.941692 0.330159 0.169343
H40   H     H_    0.984383 0.638177 0.272790 0.113322
H41   H     H_    0.094561 0.688992 0.248584 0.119780
H42   H     H_    0.038476 0.845739 0.343151 0.171293
H43   H     H_    0.977557 0.806307 0.184581 0.087066
H44   H     H_    0.929287 0.794439 0.365541 0.186923
N1    N     N_R   0.500000 0.258690 0.500000 -0.281865
N2    N     N_R   0.500000 0.741310 0.500000 -0.270871
O1    O     O_R   0.371460 0.581430 0.500010 -0.439182
O2    O     O_3   0.946919 0.373768 0.311995 -0.503573
O3    O     O_3   0.945305 0.622837 0.690122 -0.500700
O4    O     O_3   0.052297 0.324995 0.535380 -0.502103
O5    O     O_3   0.615240 0.061505 0.685082 -0.473751
O6    O     O_3   0.341451 0.940274 0.542535 -0.479546
O7    O     O_3   0.384767 0.062740 0.314636 -0.473866
O8    O     O_3   0.658353 0.939615 0.456676 -0.478001
O9    O     O_R   0.628540 0.418570 0.499990 -0.464412
O10   O     O_R   0.628540 0.581430 0.499990 -0.430909
O11   O     O_R   0.371460 0.418570 0.500010 -0.470270
O12   O     O_R   0.500000 0.581420 0.288390 -0.496702
O13   O     O_R   0.500000 0.418580 0.711610 -0.457187
O14   O     O_R   0.500000 0.581420 0.711610 -0.495002
O15   O     O_R   0.500000 0.418580 0.288390 -0.456621
O16   O     O_3   0.050188 0.672744 0.464811 -0.499275

loop_
_geom_bond_atom_site_label_1
_geom_bond_atom_site_label_2
_ccdc_geom_bond_type
C4    O13   A    
C29   H13   S    
C14   C18   A    
C39   H37   S    
C4    C8    S    
C26   H5    S    
C7    C8    T    
C32   H22   S    
Cu1   Cu2   S    
C15   C19   A    
C27   O3    S    
C1    C18   S    
C23   C42   A    
C38   H36   S    
C36   O7    S    
C5    C6    S    
C31   O5    S    
C36   C37   S    
C25   H3    S    
C3    C7    S    
C10   C15   A    
C12   O9    A    
C41   N2    A    
C2    C41   A    
C40   F3    S    
Cu2   O9    S    
C26   H4    S    
C11   O3    S    
C35   H27   S    
C10   O2    S    
C38   O8    S    
C33   H25   S    
Cu2   N1    S    
C14   H1    S    
C3    O15   A    
C22   H41   S    
C30   H17   S    
C29   O4    S    
Cu1   O12   S    
C28   H11   S    
C9    O16   S    
C29   H14   S    
Cu2   O15   S    
C37   H31   S    
C2    C6    A    
C39   H38   S    
C24   H42   S    
C44   O7    S    
C32   H21   S    
C28   H10   S    
C10   C21   A    
C31   H18   S    
C35   H26   S    
C23   F1    S    
C38   H35   S    
C16   H23   S    
C36   H30   S    
C1    O1    A    
Cu1   O14   S    
C32   H20   S    
C25   C26   S    
C11   C21   A    
C33   O6    S    
C9    C14   A    
C29   C30   S    
C24   H44   S    
C11   C16   A    
C33   H24   S    
C9    C20   A    
C31   C32   S    
C2    O8    S    
Cu2   O11   S    
C17   C18   A    
C22   H40   S    
C30   H16   S    
C1    O11   A    
C31   H19   S    
C5    C44   A    
C22   O16   S    
C6    C43   A    
C27   H7    S    
C22   C24   S    
C37   H32   S    
C34   F2    S    
C40   N1    A    
C42   O5    S    
C41   F4    S    
Cu1   O10   S    
C5    C42   A    
C28   H9    S    
C4    O14   A    
C13   C20   A    
C34   C43   A    
C34   N2    A    
C36   H29   S    
C26   H6    S    
C3    O12   A    
C35   H28   S    
C13   C17   A    
C17   H34   S    
C13   O4    S    
C25   H2    S    
Cu1   O1    S    
C24   H43   S    
C12   O10   A    
C38   C39   S    
C27   H8    S    
C16   C19   A    
C12   C19   S    
C33   C35   S    
C15   H12   S    
C23   N1    A    
C43   O6    S    
C30   H15   S    
C25   O2    S    
C40   C44   A    
C20   C21   S    
Cu2   O13   S    
C27   C28   S    
C37   H33   S    
Cu1   N2    S    
C39   H39   S    
