data_mof_unit_27045.cif
_audit_creation_date              2012-12-11T14:39:29-0500
_audit_creation_method            fapswitch 2.2
_symmetry_space_group_name_H-M    P1
_symmetry_Int_Tables_number       1
_space_group_crystal_system       monoclinic
_cell_length_a                    7.212833
_cell_length_b                    13.809304
_cell_length_c                    16.613242
_cell_angle_alpha                 90.0
_cell_angle_beta                  97.05927
_cell_angle_gamma                 90.0
_cell_volume                      1642.20500191

loop_
_atom_site_label
_atom_site_type_symbol
_atom_type_description
_atom_site_fract_x
_atom_site_fract_y
_atom_site_fract_z
_atom_type_partial_charge
O1    O     O_R   0.525340 0.338340 0.164530 -0.542749
O2    O     O_R   0.474660 0.661660 0.835470 -0.542749
O3    O     O_R   0.974660 0.838340 0.835470 -0.542749
O4    O     O_R   0.025340 0.161660 0.164530 -0.542749
O5    O     O_R   0.253520 0.352000 0.336710 -0.541121
O6    O     O_R   0.746480 0.648000 0.663290 -0.541120
O7    O     O_R   0.246480 0.852000 0.663290 -0.541121
O8    O     O_R   0.753520 0.148000 0.336710 -0.541121
O9    O     O_R   0.083330 0.168380 0.337300 -0.534654
O10   O     O_R   0.916670 0.831620 0.662700 -0.534654
O11   O     O_R   0.416670 0.668380 0.662700 -0.534654
O12   O     O_R   0.583330 0.331620 0.337300 -0.534654
C1    C     C_R   0.432098 0.373579 0.360250 0.711676
C2    C     C_R   0.567902 0.626421 0.639750 0.711676
C3    C     C_R   0.067902 0.873579 0.639750 0.711676
C4    C     C_R   0.932098 0.126421 0.360250 0.711676
O13   O     O_R   0.195840 0.349670 0.165140 -0.543973
O14   O     O_R   0.804160 0.650330 0.834860 -0.543973
O15   O     O_R   0.304160 0.849670 0.834860 -0.543973
O16   O     O_R   0.695840 0.150330 0.165140 -0.543973
C5    C     C_R   0.356674 0.370399 0.136502 0.745324
C6    C     C_R   0.643326 0.629601 0.863498 0.745324
C7    C     C_R   0.143326 0.870399 0.863498 0.745324
C8    C     C_R   0.856674 0.129601 0.136502 0.745324
O17   O     O_3   0.387830 0.193120 0.250910 -0.376727
O18   O     O_3   0.612170 0.806880 0.749090 -0.376727
O19   O     O_3   0.112170 0.693120 0.749090 -0.376727
O20   O     O_3   0.887830 0.306880 0.250910 -0.376727
V1    V     V_3+5 0.113010 0.264540 0.250910 1.384509
V2    V     V_3+5 0.886990 0.735460 0.749090 1.384509
V3    V     V_3+5 0.386990 0.764540 0.749090 1.384509
V4    V     V_3+5 0.613010 0.235460 0.250910 1.384510
H1    H     H_    0.003497 0.770661 0.281349 0.118077
H2    H     H_    0.996502 0.229339 0.718651 0.118077
H3    H     H_    0.496503 0.270661 0.718651 0.118077
H4    H     H_    0.503498 0.729339 0.281349 0.118077
C9    C     C_R   0.949934 0.202731 0.516609 -0.137545
C10   C     C_R   0.050067 0.797269 0.483391 -0.137545
C11   C     C_R   0.550067 0.702731 0.483391 -0.137545
C12   C     C_R   0.449933 0.297268 0.516609 -0.137545
C13   C     C_R   0.957618 0.246712 0.591507 -0.145212
C14   C     C_R   0.042382 0.753288 0.408493 -0.145212
C15   C     C_R   0.542382 0.746712 0.408493 -0.145212
C16   C     C_R   0.457618 0.253288 0.591507 -0.145212
C17   C     C_R   0.991257 0.192018 0.661035 -0.100634
C18   C     C_R   0.008742 0.807982 0.338965 -0.100633
C19   C     C_R   0.508743 0.692018 0.338965 -0.100633
C20   C     C_R   0.491258 0.307982 0.661035 -0.100633
C21   C     C_R   0.017846 0.091472 0.657418 0.145201
C22   C     C_R   0.982153 0.908528 0.342582 0.145201
C23   C     C_R   0.482153 0.591472 0.342582 0.145201
C24   C     C_R   0.517847 0.408528 0.657418 0.145201
C25   C     C_R   0.009559 0.043020 0.579907 0.040558
C26   C     C_R   0.990441 0.956980 0.420093 0.040557
C27   C     C_R   0.490441 0.543020 0.420093 0.040557
C28   C     C_R   0.509559 0.456980 0.579907 0.040558
C29   C     C_R   0.975333 0.101241 0.508583 0.021992
C30   C     C_R   0.024667 0.898759 0.491417 0.021992
C31   C     C_R   0.524667 0.601241 0.491417 0.021992
C32   C     C_R   0.475333 0.398759 0.508583 0.021992
C33   C     C_R   0.033677 0.940696 0.570052 -0.153649
C34   C     C_R   0.966323 0.059304 0.429948 -0.153649
C35   C     C_R   0.466323 0.440696 0.429948 -0.153649
C36   C     C_R   0.533677 0.559304 0.570052 -0.153650
H5    H     H_    0.923330 0.250598 0.464980 0.126809
H6    H     H_    0.076672 0.749402 0.535019 0.126809
H7    H     H_    0.576671 0.750598 0.535019 0.126809
H8    H     H_    0.423328 0.249402 0.464980 0.126809
H9    H     H_    0.937271 0.324185 0.595647 0.134691
H10   H     H_    0.062730 0.675815 0.404353 0.134692
H11   H     H_    0.562730 0.824185 0.404353 0.134692
H12   H     H_    0.437270 0.175815 0.595647 0.134692
H13   H     H_    0.138842 0.065343 0.057121 0.158109
H14   H     H_    0.861158 0.934657 0.942879 0.158109
H15   H     H_    0.361158 0.565343 0.942879 0.158109
H16   H     H_    0.638842 0.434657 0.057121 0.158109
C37   C     C_2   0.150576 0.940245 0.931874 -0.330782
C38   C     C_2   0.849424 0.059755 0.068126 -0.330782
C39   C     C_2   0.349424 0.440244 0.068126 -0.330782
C40   C     C_2   0.650576 0.559755 0.931874 -0.330782
C41   C     C_2   0.996097 0.965419 0.965703 -0.131989
C42   C     C_2   0.003903 0.034581 0.034297 -0.131989
C43   C     C_2   0.503903 0.465419 0.034297 -0.131989
C44   C     C_2   0.496097 0.534581 0.965703 -0.131989
H17   H     H_    0.715003 0.028808 0.044744 0.127214
H18   H     H_    0.284997 0.971192 0.955256 0.127215
H19   H     H_    0.784997 0.528808 0.955256 0.127215
H20   H     H_    0.215003 0.471192 0.044744 0.127215
C45   C     C_3   0.054046 0.041947 0.738286 -0.798103
H21   H     H_    0.939650 0.990235 0.744782 0.219418
H22   H     H_    0.193309 0.007102 0.744360 0.205697
H23   H     H_    0.056709 0.093076 0.790074 0.197862
C46   C     C_3   0.945950 0.958053 0.261714 -0.798104
H24   H     H_    0.806688 0.992898 0.255640 0.205698
H25   H     H_    0.060347 0.009764 0.255217 0.219417
H26   H     H_    0.943287 0.906924 0.209926 0.197862
C47   C     C_3   0.445952 0.541947 0.261714 -0.798104
H27   H     H_    0.306689 0.507102 0.255640 0.205698
H28   H     H_    0.443288 0.593076 0.209926 0.197862
H29   H     H_    0.560348 0.490236 0.255218 0.219418
C48   C     C_3   0.554050 0.458053 0.738286 -0.798104
H30   H     H_    0.693312 0.492898 0.744360 0.205698
H31   H     H_    0.439653 0.509764 0.744782 0.219417
H32   H     H_    0.556713 0.406924 0.790074 0.197862

loop_
_geom_bond_atom_site_label_1
_geom_bond_atom_site_label_2
_ccdc_geom_bond_type
C23   C47   S    
O1    C5    A    
C46   H24   S    
C12   C32   A    
C27   C31   A    
O13   V1    S    
O3    C7    A    
C40   C44   D    
O15   V3    S    
C47   H27   S    
C29   C34   A    
C31   C36   A    
C22   C26   A    
C32   C35   A    
O20   V1    S    
O9    C4    A    
C10   C14   A    
C40   H19   S    
O10   C3    A    
O16   V4    S    
O4    C8    A    
O11   C2    A    
H15   C44   S    
C14   H10   S    
H4    C19   S    
C14   C18   A    
O10   V2    S    
C10   C30   A    
C25   C33   A    
O16   C8    A    
C9    H5    S    
O2    C6    A    
C28   C36   A    
O14   V2    S    
C37   C41   D    
C45   H22   S    
O5    C1    A    
O4    V1    S    
O9    V1    S    
C30   C33   A    
O7    C3    A    
O11   V3    S    
O18   V3    S    
O8    C4    A    
O12   V4    S    
O19   V2    S    
H1    C18   S    
C4    C34   S    
H3    C20   S    
H16   C43   S    
C39   H20   S    
C47   H28   S    
C41   C42   S    
O5    V1    S    
C24   C48   S    
O7    V3    S    
O8    V4    S    
C48   H30   S    
C10   H6    S    
C25   C29   A    
C19   C23   A    
C26   C34   A    
O1    V4    S    
O13   C5    A    
C28   C32   A    
C27   C35   A    
O2    V3    S    
O3    V2    S    
O15   C7    A    
O6    C2    A    
C38   C42   D    
C43   C44   S    
C1    C35   S    
C17   C21   A    
C11   C31   A    
C5    C39   S    
C3    C33   S    
H2    C17   S    
C7    C37   S    
C45   H23   S    
C2    C36   S    
C38   H17   S    
C8    C38   S    
O6    V2    S    
C37   H18   S    
C48   H32   S    
H14   C41   S    
H13   C42   S    
C47   H29   S    
C13   H9    S    
C26   C30   A    
C15   H11   S    
O14   C6    A    
C11   H7    S    
C21   C45   S    
C11   C15   A    
C22   C46   S    
C46   H26   S    
C18   C22   A    
C6    C40   S    
C39   C43   D    
C46   H25   S    
O17   V4    S    
C21   C25   A    
C16   H12   S    
C23   C27   A    
C9    C13   A    
C16   C20   A    
C12   C16   A    
O12   C1    A    
C48   H31   S    
C12   H8    S    
C13   C17   A    
C45   H21   S    
C20   C24   A    
C15   C19   A    
C9    C29   A    
C24   C28   A    
