data_mof_unit_48433.cif
_audit_creation_date              2012-12-10T20:31:07-0500
_audit_creation_method            fapswitch 2.2
_symmetry_space_group_name_H-M    P1
_symmetry_Int_Tables_number       1
_space_group_crystal_system       triclinic
_cell_length_a                    14.969051
_cell_length_b                    10.651475
_cell_length_c                    9.914624
_cell_angle_alpha                 89.660507
_cell_angle_beta                  89.943434
_cell_angle_gamma                 91.197309
_cell_volume                      1580.43829931

loop_
_atom_site_label
_atom_site_type_symbol
_atom_type_description
_atom_site_fract_x
_atom_site_fract_y
_atom_site_fract_z
_atom_type_partial_charge
C1    C     C_R   0.504679 0.260676 0.500496 0.870225
C2    C     C_R   0.184920 0.446446 0.600850 -0.279294
C3    C     C_R   0.231156 0.510772 0.498916 -0.085425
C4    C     C_R   0.327018 0.504379 0.499903 0.987237
C5    C     C_R   0.185616 0.576010 0.395908 -0.016569
C6    C     C_R   0.481083 0.063220 0.613218 0.163647
C7    C     C_R   0.517724 0.129319 0.504355 -0.197252
C8    C     C_R   0.567578 0.066022 0.405199 -0.046839
C9    C     C_R   0.562127 0.935099 0.404540 -0.174205
C10   C     C_R   0.510724 0.871794 0.502337 -0.133183
C11   C     C_R   0.478092 0.935661 0.612639 0.132408
C12   C     C_R   0.906802 0.538940 0.380187 0.121582
C13   C     C_3   0.387642 0.928926 0.676390 -0.452036
C14   C     C_3   0.390982 0.071396 0.677457 -0.475764
C15   C     C_R   0.449632 0.413701 0.071936 0.084225
C16   C     C_R   0.501248 0.739756 0.499899 0.925167
C17   C     C_R   0.555121 0.579715 0.071100 0.001648
C18   C     C_R   0.559436 0.573159 0.926949 -0.020615
C19   C     C_R   0.448345 0.415465 0.929801 0.188261
C20   C     C_3   0.349151 0.400974 0.925043 -0.553820
C21   C     C_3   0.350470 0.398928 0.078653 -0.187765
C22   C     C_R   0.673182 0.499534 0.499829 0.851412
C23   C     C_R   0.953805 0.395459 0.715757 -0.197580
C24   C     C_R   0.814539 0.540438 0.383779 -0.233580
C25   C     C_R   0.768979 0.497196 0.498371 -0.072654
C26   C     C_R   0.814719 0.449152 0.609248 -0.216332
C27   C     C_R   0.907202 0.445183 0.606329 0.111302
C28   C     C_R   0.953672 0.492246 0.491925 0.069478
C29   C     C_2   0.604617 0.681867 0.141420 0.482314
C30   C     C_2   0.631873 0.641398 0.853633 0.538245
C31   C     C_2   0.322043 0.274938 0.139445 0.504889
C32   C     C_2   0.227202 0.689296 0.328237 0.422823
C33   C     C_2   0.086741 0.599070 0.125769 0.358417
C34   C     C_R   0.046491 0.393930 0.712890 -0.189330
C35   C     C_2   0.624951 0.133011 0.304381 0.437090
C36   C     C_R   0.092891 0.445176 0.602163 0.131327
C37   C     C_R   0.046802 0.494785 0.490527 0.032833
C38   C     C_R   0.093593 0.549759 0.379560 0.024486
C39   C     C_R   0.045263 0.580901 0.260615 -0.025697
C40   C     C_R   0.952228 0.580072 0.264881 -0.283316
H1    H     H_    0.778272 0.576557 0.297762 0.159828
H2    H     H_    0.340722 0.114749 0.610073 0.210988
H3    H     H_    0.632641 0.668549 0.239796 0.088347
H4    H     H_    0.619028 0.693981 0.763046 0.101100
H5    H     H_    0.316612 0.485491 0.882940 0.237939
H6    H     H_    0.327618 0.310935 0.877732 0.178619
H7    H     H_    0.778380 0.413677 0.696703 0.177201
H8    H     H_    0.350537 0.188336 0.103540 0.054353
H9    H     H_    0.918645 0.358103 0.803287 0.164638
H10   H     H_    0.188929 0.745791 0.259069 0.082371
H11   H     H_    0.052085 0.651389 0.048210 0.082883
H12   H     H_    0.394849 0.111119 0.780755 0.203734
H13   H     H_    0.643635 0.231008 0.317807 0.080014
H14   H     H_    0.318563 0.481420 0.125137 0.246045
H15   H     H_    0.081970 0.355272 0.798339 0.168630
H16   H     H_    0.220776 0.399680 0.681131 0.159703
H17   H     H_    0.914818 0.607347 0.176044 0.162602
H18   H     H_    0.596917 0.882922 0.328395 0.211451
H19   H     H_    0.335600 0.888942 0.608089 0.226626
H20   H     H_    0.389393 0.886423 0.779007 0.214847
N1    N     N_R   0.499390 0.499140 0.142800 -0.161907
N2    N     N_R   0.499390 0.499180 0.857150 -0.155468
O1    O     O_R   0.500010 0.316790 0.614690 -0.605321
O2    O     O_2   0.708655 0.638490 0.894901 -0.587661
O3    O     O_2   0.266784 0.270846 0.230024 -0.549026
O4    O     O_2   0.302181 0.727808 0.356264 -0.585983
O5    O     O_2   0.157229 0.550244 0.097312 -0.586425
O6    O     O_2   0.653595 0.078610 0.205777 -0.527283
O7    O     O_R   0.500000 0.316760 0.385350 -0.630655
O8    O     O_R   0.367850 0.499990 0.614680 -0.639518
O9    O     O_R   0.367840 0.499950 0.385340 -0.567769
O10   O     O_R   0.500000 0.683240 0.614650 -0.658523
O11   O     O_R   0.499990 0.683210 0.385310 -0.608301
O12   O     O_R   0.632160 0.500050 0.614660 -0.639201
O13   O     O_R   0.632150 0.500010 0.385320 -0.669783
O14   O     O_2   0.613334 0.785629 0.089367 -0.553194
Zn1   Zn    Zn3+2 0.500010 0.500020 0.653130 0.944019
Zn2   Zn    Zn3+2 0.499990 0.499980 0.346870 0.972320

loop_
_geom_bond_atom_site_label_1
_geom_bond_atom_site_label_2
_ccdc_geom_bond_type
C30   O2    D    
C35   H13   S    
C17   C29   S    
N2    Zn1   S    
C19   C20   S    
C16   O10   A    
C4    O8    A    
C7    C8    A    
C29   O14   D    
C15   C19   A    
C21   C31   S    
C26   C27   A    
C33   C39   S    
C12   C28   A    
C28   C37   A    
C36   C37   A    
C37   C38   A    
C21   H14   S    
C23   H9    S    
C19   N2    A    
C9    H18   S    
C17   N1    A    
C14   H12   S    
C8    C9    A    
C22   C25   S    
O11   Zn2   S    
C18   C30   S    
C23   C27   A    
C9    C10   A    
C20   H5    S    
C14   H2    S    
C5    C32   S    
C34   H15   S    
C5    C38   A    
C29   H3    S    
O8    Zn1   S    
C24   H1    S    
C30   H4    S    
O7    Zn2   S    
C22   O13   A    
C1    O1    A    
C16   O11   A    
C24   C25   A    
C39   C40   A    
C13   H20   S    
C18   N2    A    
C25   C26   A    
O12   Zn1   S    
C1    O7    A    
C8    C35   S    
C12   C40   A    
O10   Zn1   S    
C6    C14   S    
N1    Zn2   S    
C23   C34   A    
C17   C18   A    
C15   N1    A    
C32   H10   S    
C26   H7    S    
C31   H8    S    
C22   O12   A    
C3    C4    S    
C6    C11   A    
C33   O5    D    
C32   O4    D    
O1    Zn1   S    
C2    C36   A    
C31   O3    D    
C40   H17   S    
C1    C7    S    
C3    C5    A    
C6    C7    A    
C13   H19   S    
C33   H11   S    
C12   C24   A    
C2    C3    A    
C10   C16   S    
C11   C13   S    
C38   C39   A    
C35   O6    D    
C34   C36   A    
O9    Zn2   S    
O13   Zn2   S    
C10   C11   A    
C15   C21   S    
C20   C21   S    
C27   C28   A    
C2    H16   S    
C13   C14   S    
C4    O9    A    
C20   H6    S    
