data_mof_unit_63022.cif
_audit_creation_date              2012-12-10T20:50:05-0500
_audit_creation_method            fapswitch 2.2
_symmetry_space_group_name_H-M    P1
_symmetry_Int_Tables_number       1
_space_group_crystal_system       triclinic
_cell_length_a                    19.19304
_cell_length_b                    19.2278
_cell_length_c                    19.202933
_cell_angle_alpha                 94.688664
_cell_angle_beta                  90.360528
_cell_angle_gamma                 85.326728
_cell_volume                      7039.45303229

loop_
_atom_site_label
_atom_site_type_symbol
_atom_type_description
_atom_site_fract_x
_atom_site_fract_y
_atom_site_fract_z
_atom_type_partial_charge
Br1   Br    Br    0.337904 0.555826 0.089366 -0.449029
Br2   Br    Br    0.471335 0.756374 0.357837 -0.453939
C1    C     C_R   0.492438 0.492797 0.310704 0.520862
C2    C     C_R   0.122068 0.569789 0.479612 -0.100522
C3    C     C_R   0.512661 0.507086 0.765670 0.029602
C4    C     C_R   0.507607 0.506999 0.689282 0.507993
C5    C     C_R   0.462480 0.475685 0.802563 -0.146800
C6    C     C_R   0.467807 0.473397 0.874593 -0.078713
C7    C     C_R   0.523807 0.502515 0.911273 0.228204
C8    C     C_R   0.574383 0.532927 0.874294 -0.106667
C9    C     C_R   0.568621 0.535905 0.802048 -0.147189
C10   C     C_R   0.542058 0.465554 0.120212 -0.123114
C11   C     C_R   0.545533 0.463787 0.192632 -0.157983
C12   C     C_R   0.913002 0.471392 0.501323 0.215383
C13   C     C_R   0.480828 0.493832 0.088500 0.240380
C14   C     C_R   0.488377 0.490912 0.234272 0.003002
C15   C     C_R   0.427102 0.518018 0.202539 -0.100367
C16   C     C_R   0.493203 0.689779 0.507261 0.538458
C17   C     C_R   0.422948 0.518639 0.130144 0.182199
C18   C     C_R   0.508847 0.233389 0.488079 0.029246
C19   C     C_R   0.475689 0.200551 0.539859 -0.150744
C20   C     C_R   0.475695 0.127984 0.535843 -0.089536
C21   C     C_R   0.508929 0.086774 0.479545 0.227670
C22   C     C_R   0.541492 0.119666 0.427722 -0.105851
C23   C     C_R   0.877323 0.423386 0.458972 -0.152372
C24   C     C_R   0.542034 0.192399 0.432081 -0.145213
C25   C     C_R   0.482473 0.875507 0.454441 -0.053172
C26   C     C_R   0.481536 0.802775 0.449395 0.132647
C27   C     C_R   0.493014 0.912685 0.519503 0.193086
C28   C     C_R   0.507210 0.310135 0.492019 0.509216
C29   C     C_R   0.491259 0.766312 0.510019 0.041323
C30   C     C_R   0.501089 0.803690 0.574710 -0.173805
C31   C     C_R   0.501090 0.876307 0.579401 -0.116783
C32   C     C_R   0.310652 0.508122 0.507702 0.506739
C33   C     C_R   0.689432 0.491824 0.492574 0.515592
C34   C     C_R   0.804523 0.430488 0.454878 -0.163903
C35   C     C_R   0.766326 0.485588 0.493824 -0.018255
C36   C     C_R   0.801981 0.533076 0.537288 -0.121828
C37   C     C_R   0.874615 0.525348 0.543022 0.298837
C38   C     C_3   0.927728 0.541948 0.649627 0.022367
C39   C     C_3   0.869007 0.554510 0.704037 -0.284437
C40   C     C_3   0.892398 0.527796 0.773806 -0.472738
C41   C     C_R   0.126467 0.459655 0.533196 -0.101889
C42   C     C_R   0.199267 0.457800 0.535652 -0.148782
C43   C     C_R   0.087403 0.515577 0.504201 0.219672
C44   C     C_R   0.233939 0.511296 0.508827 0.029985
C45   C     C_R   0.194733 0.567464 0.481129 -0.139938
H1    H     H_    0.228406 0.414071 0.557454 0.137907
H2    H     H_    0.100886 0.417794 0.554239 0.132836
H3    H     H_    0.567588 0.216528 0.391220 0.141069
H4    H     H_    0.508350 0.776607 0.621861 0.138052
H5    H     H_    0.448998 0.104423 0.576315 0.141173
H6    H     H_    0.508503 0.904358 0.629798 0.134929
H7    H     H_    0.449565 0.230929 0.583526 0.139837
H8    H     H_    0.906190 0.381023 0.428134 0.137075
H9    H     H_    0.778183 0.392662 0.421604 0.151669
H10   H     H_    0.220223 0.609730 0.460688 0.149918
H11   H     H_    0.092565 0.613552 0.458226 0.138248
H12   H     H_    0.586874 0.444478 0.089043 0.143682
H13   H     H_    0.773529 0.575669 0.568231 0.152219
H14   H     H_    0.593219 0.442448 0.216112 0.145608
H15   H     H_    0.974111 0.567657 0.670651 0.167440
H16   H     H_    0.944395 0.484894 0.641210 0.129545
H17   H     H_    0.853062 0.611481 0.711925 0.184219
H18   H     H_    0.822967 0.526987 0.685080 0.154324
H19   H     H_    0.907652 0.470659 0.767263 0.153284
H20   H     H_    0.848709 0.537364 0.811905 0.156450
H21   H     H_    0.937472 0.555613 0.794891 0.159073
H22   H     H_    0.618003 0.554956 0.901693 0.126129
H23   H     H_    0.608415 0.559746 0.774597 0.135505
H24   H     H_    0.382201 0.538497 0.233933 0.171729
H25   H     H_    0.428489 0.448267 0.901383 0.153934
H26   H     H_    0.419013 0.452733 0.775751 0.141764
H27   H     H_    0.475054 0.902783 0.407471 0.170296
H28   H     H_    0.566728 0.088707 0.383907 0.130480
N1    N     N_2   0.987020 0.463647 0.501974 -0.259829
N2    N     N_2   0.013410 0.520712 0.501158 -0.179039
N3    N     N_2   0.531175 0.501178 0.984764 -0.245423
N4    N     N_2   0.474826 0.495940 0.015137 -0.194406
N5    N     N_2   0.509026 0.012723 0.472195 -0.240098
N6    N     N_2   0.494410 0.986516 0.527052 -0.244270
O1    O     O_3   0.500000 0.500000 0.500000 -0.443161
O2    O     O_R   0.340900 0.545940 0.467290 -0.543010
O3    O     O_R   0.655960 0.450920 0.450930 -0.540067
O4    O     O_R   0.347180 0.467040 0.545670 -0.545230
O5    O     O_R   0.655970 0.536100 0.536110 -0.547402
O6    O     O_3   0.907456 0.572823 0.587375 -0.544126
O7    O     O_R   0.536480 0.656330 0.545680 -0.547684
O8    O     O_R   0.545300 0.340270 0.450920 -0.546757
O9    O     O_R   0.451550 0.536740 0.347440 -0.520091
O10   O     O_R   0.466670 0.466660 0.655960 -0.545721
O11   O     O_R   0.536460 0.451300 0.340640 -0.544082
O12   O     O_R   0.545320 0.545300 0.655970 -0.548310
O13   O     O_R   0.451560 0.656600 0.467300 -0.492453
O14   O     O_R   0.466660 0.346810 0.536100 -0.546200
Zn1   Zn    Zn3+2 0.558430 0.558420 0.558430 0.942619
Zn2   Zn    Zn3+2 0.437090 0.558800 0.446440 0.989167
Zn3   Zn    Zn3+2 0.446060 0.446060 0.558420 0.934167
Zn4   Zn    Zn3+2 0.558420 0.436720 0.436720 0.944122

loop_
_geom_bond_atom_site_label_1
_geom_bond_atom_site_label_2
_ccdc_geom_bond_type
O7    Zn1   S    
C25   C27   A    
O1    Zn4   S    
C37   O6    S    
O14   Zn3   S    
C5    C6    A    
C5    H26   S    
C18   C28   S    
C13   C17   A    
C35   C36   A    
C38   H16   S    
O8    Zn4   S    
C1    O9    A    
C38   O6    S    
C34   C35   A    
C33   C35   S    
C22   C24   A    
C3    C9    A    
C24   H3    S    
C36   C37   A    
C33   O5    A    
C14   C15   A    
C4    O10   A    
C27   C31   A    
C38   H15   S    
C39   C40   S    
O4    Zn3   S    
C12   C37   A    
C10   H12   S    
C13   N4    S    
C6    C7    A    
C21   C22   A    
C32   C44   S    
C21   N5    S    
C25   H27   S    
C7    C8    A    
O9    Zn2   S    
O10   Zn3   S    
C19   C20   A    
C40   H21   S    
O1    Zn3   S    
C28   O8    A    
C42   C44   A    
C2    C43   A    
C31   H6    S    
Br1   C17   S    
O1    Zn1   S    
N1    N2    D    
C3    C5    A    
N3    N4    D    
C41   H2    S    
C39   H18   S    
O13   Zn2   S    
C16   O7    A    
C1    O11   A    
C32   O4    A    
C12   N1    S    
C41   C42   A    
C30   H4    S    
C27   N6    S    
C28   O14   A    
C34   H9    S    
C45   H10   S    
C29   C30   A    
C10   C13   A    
C4    O12   A    
C10   C11   A    
C41   C43   A    
O5    Zn1   S    
C36   H13   S    
C38   C39   S    
C15   H24   S    
O12   Zn1   S    
C6    H25   S    
C40   H20   S    
C16   O13   A    
O1    Zn2   S    
C32   O2    A    
C20   H5    S    
C44   C45   A    
O3    Zn4   S    
C26   C29   A    
C23   H8    S    
N5    N6    D    
Br2   C26   S    
C33   O3    A    
C22   H28   S    
C19   H7    S    
C30   C31   A    
C3    C4    S    
C18   C24   A    
C15   C17   A    
C7    N3    S    
C12   C23   A    
C8    C9    A    
C23   C34   A    
C9    H23   S    
C8    H22   S    
C11   H14   S    
C18   C19   A    
O2    Zn2   S    
C11   C14   A    
C2    H11   S    
C25   C26   A    
C40   H19   S    
C20   C21   A    
C43   N2    S    
C16   C29   S    
C39   H17   S    
C1    C14   S    
C42   H1    S    
O11   Zn4   S    
C2    C45   A    
