data_mof_unit_55513.cif
_audit_creation_date              2012-12-10T17:02:18-0500
_audit_creation_method            fapswitch 2.2
_symmetry_space_group_name_H-M    P1
_symmetry_Int_Tables_number       1
_space_group_crystal_system       triclinic
_cell_length_a                    10.677642
_cell_length_b                    10.685794
_cell_length_c                    10.078206
_cell_angle_alpha                 89.020098
_cell_angle_beta                  89.677122
_cell_angle_gamma                 89.615529
_cell_volume                      1149.70248182

loop_
_atom_site_label
_atom_site_type_symbol
_atom_type_description
_atom_site_fract_x
_atom_site_fract_y
_atom_site_fract_z
_atom_type_partial_charge
C1    C     C_R   0.487664 0.263137 0.501355 0.892022
C2    C     C_2   0.446662 0.134944 0.509629 0.204911
C3    C     C_2   0.497341 0.598360 0.927849 0.389132
C4    C     C_R   0.260520 0.502304 0.500275 0.879605
C5    C     C_2   0.536514 0.592159 0.070221 0.105927
C6    C     C_R   0.501761 0.737005 0.498099 0.905987
C7    C     C_R   0.739087 0.503687 0.499832 0.875418
C8    C     C_R   0.127928 0.702118 0.632717 -0.125262
C9    C     C_R   0.063027 0.795159 0.702101 0.179841
C10   C     C_R   0.931252 0.792126 0.707972 0.226490
C11   C     C_R   0.867985 0.699574 0.638849 -0.157392
C12   C     C_R   0.064224 0.604535 0.568581 0.018505
C13   C     C_R   0.933314 0.604875 0.569937 0.030292
C14   C     C_3   0.128739 0.305362 0.366205 -0.829476
C15   C     C_3   0.609113 0.699910 0.123827 -0.647141
C16   C     C_3   0.138388 0.896099 0.766083 -0.736343
C17   C     C_3   0.856482 0.885479 0.786966 -0.783533
C18   C     C_3   0.431172 0.109456 0.259636 -0.786870
C19   C     C_R   0.127509 0.507405 0.500594 -0.070068
C20   C     C_R   0.062969 0.413278 0.433202 0.159190
C21   C     C_R   0.934393 0.417722 0.432129 -0.174057
C22   C     C_R   0.871117 0.510788 0.500120 -0.117270
C23   C     C_2   0.414167 0.930717 0.425533 0.305883
C24   C     C_2   0.507501 0.868835 0.487881 0.189965
C25   C     C_2   0.426471 0.063878 0.402417 0.071549
Cl1   Cl    Cl    0.416755 0.076447 0.673643 -0.566359
Cl2   Cl    Cl    0.444089 0.744719 0.868469 -0.570914
Cl3   Cl    Cl    0.275484 0.857799 0.371576 -0.629461
Cl4   Cl    Cl    0.655157 0.935799 0.520507 -0.647370
H1    H     H_    0.536124 0.420501 0.895799 0.140158
H2    H     H_    0.543868 0.775499 0.154539 0.264836
H3    H     H_    0.668339 0.669455 0.208387 0.250629
H4    H     H_    0.196617 0.942843 0.688878 0.290143
H5    H     H_    0.080551 0.969200 0.813579 0.232483
H6    H     H_    0.199934 0.853784 0.843138 0.285175
H7    H     H_    0.887488 0.882941 0.891935 0.225614
H8    H     H_    0.869336 0.980994 0.744233 0.269618
H9    H     H_    0.754761 0.864378 0.786887 0.283452
H10   H     H_    0.409164 0.032726 0.190688 0.274857
H11   H     H_    0.361118 0.185115 0.242886 0.241172
H12   H     H_    0.446534 0.434049 0.105347 0.144675
H13   H     H_    0.526639 0.142770 0.233879 0.253000
H14   H     H_    0.228859 0.708662 0.628464 0.199238
H15   H     H_    0.766972 0.703410 0.639225 0.191177
H16   H     H_    0.882441 0.346060 0.381281 0.164636
H17   H     H_    0.061607 0.234270 0.331253 0.250917
H18   H     H_    0.181996 0.339972 0.278338 0.249649
H19   H     H_    0.193360 0.257752 0.437024 0.231123
H20   H     H_    0.672939 0.738009 0.045897 0.208612
N1    N     N_2   0.501340 0.501330 0.852150 -0.226050
N2    N     N_2   0.501380 0.501360 0.147810 -0.200840
O1    O     O_R   0.499980 0.319060 0.613040 -0.558704
O2    O     O_R   0.500020 0.319100 0.386900 -0.641485
O3    O     O_R   0.316750 0.499980 0.613090 -0.614393
O4    O     O_R   0.316790 0.500020 0.386950 -0.589762
O5    O     O_R   0.499980 0.680900 0.613100 -0.555362
O6    O     O_R   0.500020 0.680940 0.386960 -0.610442
O7    O     O_R   0.683210 0.499980 0.613050 -0.619338
O8    O     O_R   0.683250 0.500020 0.386910 -0.617258
Zn1   Zn    Zn3+2 0.499970 0.499970 0.650990 1.022601
Zn2   Zn    Zn3+2 0.500030 0.500030 0.349010 0.966668

loop_
_geom_bond_atom_site_label_1
_geom_bond_atom_site_label_2
_ccdc_geom_bond_type
C23   C24   D    
C15   H2    S    
C14   H18   S    
C17   H7    S    
C16   H4    S    
C7    C22   S    
C9    C10   A    
C7    O7    A    
C19   C20   A    
N2    Zn2   S    
C8    H14   S    
C8    C12   A    
C16   H5    S    
C6    C24   S    
C3    Cl2   S    
H1    N1    S    
N1    Zn1   S    
C11   H15   S    
C14   H17   S    
O3    Zn1   S    
C23   Cl3   S    
C12   C13   A    
O6    Zn2   S    
C11   C13   A    
C6    O6    A    
C18   C25   S    
O4    Zn2   S    
C12   C19   A    
C7    O8    A    
C3    N1    D    
C13   C22   A    
C2    C25   D    
C21   H16   S    
C17   H9    S    
C15   H20   S    
C16   H6    S    
C1    O1    A    
O8    Zn2   S    
C5    C15   S    
C10   C11   A    
C17   H8    S    
C10   C17   S    
O7    Zn1   S    
C14   C20   S    
C15   H3    S    
C23   C25   S    
C18   H11   S    
C20   C21   A    
C2    Cl1   S    
C1    C2    S    
C6    O5    A    
C4    O4    A    
C18   H10   S    
C1    O2    A    
C24   Cl4   S    
C5    N2    D    
C14   H19   S    
O1    Zn1   S    
C18   H13   S    
C4    O3    A    
C21   C22   A    
C4    C19   S    
O2    Zn2   S    
H12   N2    S    
O5    Zn1   S    
C9    C16   S    
C8    C9    A    
C3    C5    S    
