data_mof_unit_12748.cif
_audit_creation_date              2012-10-26T18:32:20-0400
_audit_creation_method            fapswitch 2.2
_symmetry_space_group_name_H-M    P1
_symmetry_Int_Tables_number       1
_space_group_crystal_system       triclinic
_cell_length_a                    12.424892
_cell_length_b                    13.375905
_cell_length_c                    15.822842
_cell_angle_alpha                 75.111321
_cell_angle_beta                  101.122028
_cell_angle_gamma                 117.144282
_cell_volume                      2252.69956789

loop_
_atom_site_label
_atom_site_type_symbol
_atom_type_description
_atom_site_fract_x
_atom_site_fract_y
_atom_site_fract_z
_atom_type_partial_charge
C1    C     C_R   0.854897 0.287940 0.504164 0.518291
C2    C     C_R   0.229376 0.835868 0.471952 0.013106
C3    C     C_R   0.811255 0.082897 0.545419 -0.139143
C4    C     C_R   0.000979 0.500957 0.659253 0.543166
C5    C     C_R   0.730056 0.968200 0.563089 -0.145372
C6    C     C_R   0.606719 0.935157 0.539365 -0.072764
C7    C     C_R   0.562480 0.015654 0.491450 0.042036
C8    C     C_R   0.644804 0.132508 0.471744 -0.025151
C9    C     C_R   0.436499 0.983661 0.468764 0.013493
C10   C     C_R   0.392250 0.068334 0.444390 0.029914
C11   C     C_R   0.473675 0.182003 0.415809 0.219078
C12   C     C_3   0.023833 0.402608 0.073769 -0.160633
C13   C     C_R   0.597499 0.210749 0.422694 -0.069431
C14   C     C_R   0.353375 0.870442 0.465561 0.211063
C15   C     C_R   0.187700 0.919527 0.464032 -0.204984
C16   C     C_R   0.145385 0.713448 0.485516 0.564373
C17   C     C_R   0.770128 0.166744 0.503328 -0.009373
C18   C     C_R   0.321814 0.304039 0.624888 -0.148588
C19   C     C_R   0.764145 0.650680 0.383078 0.424307
C20   C     C_R   0.664476 0.677539 0.354652 -0.130114
C21   C     C_R   0.558964 0.617194 0.397082 -0.130060
C22   C     C_R   0.546807 0.525632 0.468010 -0.024645
C23   C     C_3   0.002829 0.505414 0.081777 -0.002035
C24   C     C_R   0.646833 0.495019 0.494667 0.162108
C25   C     C_R   0.438281 0.464164 0.513213 0.011995
C26   C     C_R   0.423919 0.364769 0.576718 0.014599
C27   C     C_R   0.512946 0.327415 0.595806 -0.123189
C28   C     C_R   0.000795 0.501707 0.340304 0.555714
C29   C     C_R   0.627967 0.394445 0.564507 0.304457
C30   C     C_R   0.341827 0.496536 0.498963 0.080538
C31   C     C_R   0.234511 0.344032 0.611229 0.048595
C32   C     C_3   0.020594 0.399423 0.975908 0.198223
C33   C     C_3   0.880791 0.496804 0.932375 -0.278326
C34   C     C_3   0.107274 0.616838 0.039550 -0.221486
C35   C     C_3   0.880291 0.498592 0.029983 0.104351
C36   C     C_1   0.001993 0.504213 0.250114 0.025790
C37   C     C_3   0.004126 0.505129 0.916168 0.075471
C38   C     C_3   0.109415 0.312127 0.917720 0.022282
C39   C     C_3   0.089510 0.200237 0.983512 -0.277138
C40   C     C_3   0.068999 0.105046 0.937404 -0.487182
C41   C     C_3   0.903857 0.820553 0.302329 -0.007797
C42   C     C_3   0.875970 0.838220 0.202395 -0.265321
C43   C     C_3   0.907027 0.963628 0.161981 -0.484520
C44   C     C_3   0.701804 0.264151 0.664109 0.016838
C45   C     C_3   0.106506 0.618915 0.940701 0.197357
C46   C     C_3   0.691426 0.261825 0.759857 -0.282672
C47   C     C_3   0.665929 0.143847 0.816741 -0.488127
C48   C     C_3   0.293011 0.745475 0.881759 0.009679
C49   C     C_3   0.265434 0.759354 0.781675 -0.262447
C50   C     C_3   0.352889 0.875530 0.734465 -0.488173
C51   C     C_1   0.003063 0.505685 0.174217 -0.008860
C52   C     C_1   0.003307 0.504682 0.823913 -0.040964
C53   C     C_1   0.002737 0.503226 0.748555 -0.046541
C54   C     C_R   0.267334 0.035343 0.444446 -0.122143
Cl1   Cl    Cl    0.423874 0.288787 0.363646 -0.631464
Cl2   Cl    Cl    0.398802 0.789495 0.419807 -0.677733
Cl3   Cl    Cl    0.751705 0.376579 0.077176 -0.617602
Cu1   Cu    Cu3+1 0.098280 0.475420 0.519630 0.972899
Cu2   Cu    Cu3+1 0.901720 0.524580 0.480370 1.055040
H1    H     H_    0.953506 0.320730 0.106288 0.139025
H2    H     H_    0.654483 0.295159 0.389405 0.193527
H3    H     H_    0.154912 0.298187 0.647616 0.113641
H4    H     H_    0.493689 0.249262 0.643862 0.093339
H5    H     H_    0.310809 0.227499 0.674063 0.083148
H6    H     H_    0.339124 0.565924 0.448049 0.177994
H7    H     H_    0.486154 0.641920 0.370567 0.167887
H8    H     H_    0.666054 0.744020 0.298434 0.113964
H9    H     H_    0.864514 0.569794 0.889623 0.094198
H10   H     H_    0.805490 0.417351 0.913809 0.164019
H11   H     H_    0.869275 0.575662 0.032925 0.143985
H12   H     H_    0.112823 0.409246 0.109103 0.165190
H13   H     H_    0.082764 0.689676 0.901318 0.068308
H14   H     H_    0.196065 0.623281 0.075127 0.172740
H15   H     H_    0.191574 0.339217 0.883862 0.170321
H16   H     H_    0.032493 0.299069 0.865530 0.107013
H17   H     H_    0.170215 0.214293 0.032033 0.197604
H18   H     H_    0.009233 0.173049 0.019454 0.147801
H19   H     H_    0.986562 0.087524 0.890370 0.138857
H20   H     H_    0.056135 0.025548 0.986792 0.152264
H21   H     H_    0.148714 0.129767 0.901530 0.150002
H22   H     H_    0.003789 0.865109 0.316218 0.164130
H23   H     H_    0.097110 0.692933 0.046119 0.071821
H24   H     H_    0.865452 0.862087 0.333048 0.107873
H25   H     H_    0.929844 0.809669 0.173854 0.174825
H26   H     H_    0.778490 0.785745 0.184828 0.172392
H27   H     H_    0.854013 0.994077 0.189410 0.164849
H28   H     H_    0.883814 0.972726 0.089918 0.145991
H29   H     H_    0.005562 0.017386 0.175079 0.160462
H30   H     H_    0.782376 0.248451 0.665062 0.144846
H31   H     H_    0.625214 0.192963 0.635996 0.112251
H32   H     H_    0.778035 0.324966 0.786373 0.158715
H33   H     H_    0.619094 0.286214 0.764933 0.164166
H34   H     H_    0.092756 0.895683 0.468027 0.129513
H35   H     H_    0.577926 0.079059 0.793047 0.145446
H36   H     H_    0.661228 0.145485 0.885720 0.167361
H37   H     H_    0.739574 0.119287 0.815005 0.138546
H38   H     H_    0.389619 0.760649 0.898194 0.163660
H39   H     H_    0.282736 0.811292 0.906522 0.105835
H40   H     H_    0.273018 0.690688 0.759336 0.194304
H41   H     H_    0.171275 0.751156 0.763257 0.145410
H42   H     H_    0.346851 0.945781 0.755493 0.141172
H43   H     H_    0.329002 0.883157 0.662485 0.152377
H44   H     H_    0.447536 0.884229 0.748773 0.144838
H45   H     H_    0.231111 0.098197 0.431083 0.179924
H46   H     H_    0.905744 0.106453 0.569356 0.126661
H47   H     H_    0.546121 0.846612 0.561805 0.161368
H48   H     H_    0.762261 0.904997 0.599046 0.114497
H49   H     H_    0.938431 0.320404 0.962347 0.083290
N1    N     N_R   0.246300 0.438200 0.549400 -0.238898
N2    N     N_R   0.754300 0.561180 0.451130 -0.217635
O1    O     O_R   0.972520 0.318130 0.524690 -0.518190
O2    O     O_3   0.868138 0.702605 0.338084 -0.522376
O3    O     O_3   0.724965 0.374199 0.611093 -0.518521
O4    O     O_3   0.221071 0.632293 0.923479 -0.506570
O5    O     O_R   0.806530 0.359650 0.491530 -0.479208
O6    O     O_R   0.083030 0.479240 0.637150 -0.514784
O7    O     O_R   0.917040 0.520750 0.603990 -0.438587
O8    O     O_R   0.193470 0.640350 0.508470 -0.459543
O9    O     O_R   0.027480 0.681870 0.475310 -0.486018
O10   O     O_R   0.082960 0.479250 0.396010 -0.496939
O11   O     O_R   0.916970 0.520760 0.362850 -0.445692
O12   O     O_3   0.130612 0.399953 0.961828 -0.509176

loop_
_geom_bond_atom_site_label_1
_geom_bond_atom_site_label_2
_ccdc_geom_bond_type
Cu2   O11   S    
C14   Cl2   S    
C8    C13   A    
C21   H7    S    
C27   C29   A    
Cu1   N1    S    
C41   C42   S    
C20   H8    S    
C19   C20   A    
C18   C26   A    
C44   H31   S    
C7    C8    A    
C19   O2    S    
C3    H46   S    
C48   H38   S    
C12   C23   S    
C26   C27   A    
C43   H29   S    
C39   H18   S    
C54   H45   S    
C5    H48   S    
C38   C39   S    
C4    C53   S    
C46   H33   S    
C41   H24   S    
Cu1   O8    S    
Cu2   N2    S    
C24   C29   A    
C45   O4    S    
C35   H11   S    
C41   O2    S    
C47   H37   S    
C40   H21   S    
C2    C16   S    
C9    C10   A    
C33   H10   S    
C50   H44   S    
Cu2   O7    S    
C21   C22   A    
C12   C32   S    
C45   H13   S    
Cu1   O6    S    
C31   H3    S    
C2    C14   A    
C44   C46   S    
C38   H16   S    
C6    H47   S    
C30   N1    A    
Cu1   O1    S    
C15   C54   A    
C32   O12   S    
C42   H25   S    
C28   O10   A    
C16   O9    A    
C39   C40   S    
C42   H26   S    
C37   C52   S    
C28   O11   A    
C46   H32   S    
Cu1   Cu2   S    
C32   C37   S    
C22   C25   A    
C33   C37   S    
C9    C14   A    
C16   O8    A    
C49   H40   S    
C23   C51   S    
C23   C34   S    
C41   H22   S    
Cu1   O10   S    
C31   N1    A    
C40   H20   S    
C24   N2    A    
C34   C45   S    
C39   H17   S    
C2    C15   A    
C38   O12   S    
C36   C51   T    
C27   H4    S    
C48   C49   S    
C12   H12   S    
C44   O3    S    
C50   H43   S    
C23   C35   S    
C40   H19   S    
C4    O7    A    
C42   C43   S    
C37   C45   S    
C11   Cl1   S    
C52   C53   T    
C48   O4    S    
C38   H15   S    
C19   N2    A    
C25   C30   A    
C7    C9    A    
C29   O3    S    
C46   C47   S    
Cu2   O9    S    
C43   H27   S    
C4    O6    A    
C3    C5    A    
C1    O5    A    
C15   H34   S    
C6    C7    A    
C48   H39   S    
C1    C17   S    
C8    C17   A    
C35   Cl3   S    
C43   H28   S    
C25   C26   A    
C1    O1    A    
C49   H41   S    
C11   C13   A    
C18   H5    S    
C5    C6    A    
C33   C35   S    
C47   H35   S    
C3    C17   A    
C22   C24   A    
C10   C54   A    
C30   H6    S    
C10   C11   A    
C34   H14   S    
C12   H1    S    
C13   H2    S    
C20   C21   A    
C28   C36   S    
C50   H42   S    
Cu2   O5    S    
C49   C50   S    
C32   H49   S    
C47   H36   S    
C18   C31   A    
C34   H23   S    
C44   H30   S    
C33   H9    S    
