data_mof_unit_11263.cif
_audit_creation_date              2012-12-10T17:29:21-0500
_audit_creation_method            fapswitch 2.2
_symmetry_space_group_name_H-M    P1
_symmetry_Int_Tables_number       1
_space_group_crystal_system       triclinic
_cell_length_a                    12.119375
_cell_length_b                    12.827291
_cell_length_c                    13.098748
_cell_angle_alpha                 85.994757
_cell_angle_beta                  114.049691
_cell_angle_gamma                 93.998404
_cell_volume                      1853.10162292

loop_
_atom_site_label
_atom_site_type_symbol
_atom_type_description
_atom_site_fract_x
_atom_site_fract_y
_atom_site_fract_z
_atom_type_partial_charge
C1    C     C_R   0.476730 0.299838 0.498036 0.909427
C2    C     C_R   0.616375 0.520188 0.830355 -0.158025
C3    C     C_R   0.541761 0.811466 0.512611 -0.150582
C4    C     C_R   0.568784 0.504975 0.708677 0.861864
C5    C     C_R   0.459464 0.188850 0.491091 -0.039480
C6    C     C_R   0.344031 0.038189 0.393786 -0.007278
C7    C     C_R   0.351804 0.144079 0.414745 -0.248299
C8    C     C_R   0.558006 0.129338 0.551875 -0.261298
C9    C     C_R   0.552916 0.024457 0.534586 0.103177
C10   C     C_R   0.445626 0.977059 0.455919 0.155096
C11   C     C_R   0.442217 0.869854 0.446622 -0.206861
C12   C     C_R   0.555682 0.519640 0.985937 0.091372
C13   C     C_R   0.649739 0.859261 0.588836 -0.037708
C14   C     C_R   0.654280 0.966913 0.597352 -0.159813
C15   C     C_R   0.020853 0.617134 0.415949 -0.259538
C16   C     C_R   0.524273 0.700051 0.504824 0.832924
C17   C     C_R   0.137883 0.603716 0.422900 -0.020334
C18   C     C_R   0.150930 0.445044 0.530156 0.080265
C19   C     C_R   0.032758 0.456565 0.526365 0.053441
C20   C     C_R   0.966802 0.544347 0.469942 0.050201
C21   C     C_R   0.848423 0.555192 0.467931 0.041727
C22   C     C_R   0.865372 0.396105 0.576909 0.155711
C23   C     C_R   0.536016 0.551306 0.875030 0.061495
C24   C     C_R   0.980468 0.383749 0.579946 -0.356407
C25   C     C_R   0.432779 0.504484 0.291170 0.867487
C26   C     C_R   0.274986 0.611845 0.997028 -0.161392
C27   C     C_R   0.392109 0.519086 0.170672 -0.062782
C28   C     C_R   0.734016 0.490248 0.905244 -0.004829
C29   C     C_R   0.757518 0.469029 0.017775 -0.232198
C30   C     C_R   0.668797 0.479641 0.057092 -0.179657
C31   C     C_2   0.753828 0.798717 0.666682 0.487925
C32   C     C_2   0.230066 0.998280 0.304565 0.375415
C33   C     C_2   0.779290 0.647789 0.410905 0.428872
C34   C     C_R   0.463178 0.532888 0.022756 0.084349
C35   C     C_2   0.823027 0.313397 0.637884 0.436148
C36   C     C_2   0.220349 0.352596 0.587467 0.430596
C37   C     C_2   0.837785 0.485660 0.873822 0.513025
C38   C     C_R   0.361890 0.592292 0.956170 0.156562
C39   C     C_R   0.351433 0.634337 0.851907 -0.231591
C40   C     C_R   0.437546 0.614570 0.811955 -0.191722
C41   C     C_R   0.469786 0.489566 0.125246 -0.265496
C42   C     C_R   0.291810 0.577597 0.105623 -0.182071
H1    H     H_    0.230358 0.600793 0.140207 0.166259
H2    H     H_    0.735061 0.005649 0.656918 0.178911
H3    H     H_    0.276791 0.193128 0.366561 0.161632
H4    H     H_    0.639499 0.165268 0.612757 0.171656
H5    H     H_    0.688776 0.638921 0.346661 0.096120
H6    H     H_    0.842493 0.232663 0.634484 0.029292
H7    H     H_    0.974076 0.684622 0.367966 0.193176
H8    H     H_    0.029790 0.317016 0.627505 0.183429
H9    H     H_    0.309046 0.361789 0.654616 0.102245
H10   H     H_    0.197926 0.658047 0.947409 0.172501
H11   H     H_    0.905074 0.427688 0.914963 0.057367
H12   H     H_    0.177825 0.661180 0.382055 0.154642
H13   H     H_    0.428303 0.652201 0.732505 0.177461
H14   H     H_    0.276768 0.682652 0.801198 0.172120
H15   H     H_    0.538787 0.436075 0.174387 0.152378
H16   H     H_    0.694830 0.463024 0.145497 0.136417
H17   H     H_    0.845930 0.444827 0.076303 0.139830
H18   H     H_    0.360630 0.829201 0.391881 0.202169
H19   H     H_    0.743042 0.715813 0.683854 0.117214
H20   H     H_    0.145528 0.033259 0.289781 0.091378
N1    N     N_R   0.798200 0.480260 0.519790 -0.131379
N2    N     N_R   0.201820 0.519740 0.480210 -0.138345
O1    O     O_R   0.579910 0.341070 0.505280 -0.601665
O2    O     O_2   0.229694 0.931893 0.242056 -0.572226
O3    O     O_2   0.822678 0.735741 0.436951 -0.558763
O4    O     O_2   0.775417 0.333684 0.699331 -0.569609
O5    O     O_2   0.179417 0.264706 0.558282 -0.583414
O6    O     O_2   0.854504 0.550948 0.808620 -0.560597
O7    O     O_R   0.388440 0.353740 0.492580 -0.617080
O8    O     O_R   0.643280 0.490550 0.663120 -0.511790
O9    O     O_R   0.451810 0.503220 0.650420 -0.653204
O10   O     O_R   0.611560 0.646260 0.507420 -0.627629
O11   O     O_R   0.420090 0.658930 0.494720 -0.628024
O12   O     O_R   0.548190 0.496780 0.349580 -0.651326
O13   O     O_R   0.356720 0.509450 0.336880 -0.612323
O14   O     O_2   0.853452 0.841587 0.714536 -0.536343
Zn1   Zn    Zn3+2 0.627850 0.491540 0.508480 0.999090
Zn2   Zn    Zn3+2 0.372150 0.508460 0.491520 0.938709

loop_
_geom_bond_atom_site_label_1
_geom_bond_atom_site_label_2
_ccdc_geom_bond_type
C6    C32   S    
O1    Zn1   S    
C16   O11   A    
C31   H19   S    
C19   C20   A    
O12   Zn1   S    
N1    Zn1   S    
C22   C35   S    
C12   C23   A    
C26   C42   A    
C1    O7    A    
C25   O13   A    
C28   C37   S    
C32   O2    D    
C28   C29   A    
O8    Zn1   S    
C17   N2    A    
C38   C39   A    
C21   C33   S    
C23   C40   A    
C18   C19   A    
C22   N1    A    
C29   H17   S    
C8    C9    A    
C1    O1    A    
O11   Zn2   S    
C3    C13   A    
C37   H11   S    
C37   O6    D    
N2    Zn2   S    
C34   C41   A    
C35   H6    S    
O7    Zn2   S    
C24   H8    S    
C15   C20   A    
C39   C40   A    
C5    C7    A    
C26   C38   A    
C2    C4    S    
C9    C14   A    
C29   C30   A    
C26   H10   S    
C27   C41   A    
C39   H14   S    
C40   H13   S    
C4    O9    A    
C36   H9    S    
C1    C5    S    
O10   Zn1   S    
C33   H5    S    
C22   C24   A    
C42   H1    S    
C12   C34   A    
C11   H18   S    
C7    H3    S    
C4    O8    A    
C36   O5    D    
C33   O3    D    
C31   O14   D    
C14   H2    S    
C9    C10   A    
O13   Zn2   S    
C15   C17   A    
C12   C30   A    
C34   C38   A    
C13   C31   S    
C6    C10   A    
C5    C8    A    
C6    C7    A    
C16   O10   A    
C25   C27   S    
C25   O12   A    
C19   C24   A    
C41   H15   S    
C27   C42   A    
C18   N2    A    
C35   O4    D    
C30   H16   S    
O9    Zn2   S    
C15   H7    S    
C8    H4    S    
C21   N1    A    
C3    C11   A    
C10   C11   A    
C32   H20   S    
C20   C21   A    
C2    C23   A    
C2    C28   A    
C13   C14   A    
C18   C36   S    
C17   H12   S    
C3    C16   S    
