data_mof_unit_26718.cif
_audit_creation_date              2013-03-05T15:43:03-0500
_audit_creation_method            fapswitch 2.2
_symmetry_space_group_name_H-M    P1
_symmetry_Int_Tables_number       1
_space_group_crystal_system       triclinic
_cell_length_a                    9.677338
_cell_length_b                    10.93985
_cell_length_c                    15.285971
_cell_angle_alpha                 90.099769
_cell_angle_beta                  74.353712
_cell_angle_gamma                 90.481322
_cell_volume                      1558.28324571

loop_
_atom_site_label
_atom_site_type_symbol
_atom_site_description
_atom_site_fract_x
_atom_site_fract_y
_atom_site_fract_z
_atom_type_partial_charge
O1    O     O_R   0.117050 0.321960 0.499980 -0.586597
O2    O     O_R   0.882890 0.321920 0.500020 -0.498284
C1    C     C_R   0.999005 0.265096 0.500234 0.901560
O3    O     O_R   0.052910 0.500040 0.629810 -0.595230
O4    O     O_R   0.818750 0.499990 0.629840 -0.569497
C2    C     C_R   0.917788 0.504339 0.673207 0.781768
Cu1   Cu    Cu3+1 0.138640 0.500020 0.499980 0.945386
Cu2   Cu    Cu3+1 0.861360 0.499980 0.500020 0.984272
O5    O     O_R   0.117110 0.678080 0.499980 -0.587958
O6    O     O_R   0.882950 0.678040 0.500020 -0.576237
O7    O     O_R   0.181250 0.500010 0.370160 -0.585978
O8    O     O_R   0.947090 0.499960 0.370190 -0.569574
C3    C     C_R   0.999921 0.734721 0.501714 0.869068
C4    C     C_R   0.082098 0.496654 0.327087 0.815720
C5    C     C_R   0.874560 0.512879 0.774146 -0.161895
C6    C     C_R   0.124892 0.477157 0.227574 -0.263655
C7    C     C_R   0.916431 0.562642 0.921753 -0.036505
C8    C     C_R   0.968538 0.552517 0.825762 -0.050136
C9    C     C_R   0.733037 0.481278 0.818767 -0.216820
C10   C     C_R   0.679707 0.486209 0.913589 0.089812
C11   C     C_R   0.771774 0.529465 0.965475 0.065430
C12   C     C_R   0.534123 0.454520 0.957648 0.062627
C13   C     C_R   0.476185 0.484670 0.050379 0.118905
C14   C     C_R   0.571156 0.519844 0.101274 -0.102789
C15   C     C_R   0.715287 0.541793 0.059991 -0.148437
C16   C     C_R   0.445512 0.390741 0.913023 -0.126653
C17   C     C_R   0.305697 0.358070 0.958349 -0.137064
C18   C     C_R   0.244717 0.393226 0.048860 -0.046241
C19   C     C_R   0.326388 0.469168 0.091924 0.103125
C20   C     C_R   0.103557 0.356621 0.096558 -0.085809
C21   C     C_R   0.046060 0.395932 0.186754 0.378827
C22   C     C_R   0.255827 0.526099 0.175321 -0.115101
H1    H     H_    0.780079 0.571342 0.103699 0.122923
H2    H     H_    0.245863 0.306760 0.920181 0.137198
H3    H     H_    0.663480 0.456603 0.777150 0.162540
H4    H     H_    0.535378 0.528303 0.174425 0.137911
H5    H     H_    0.483702 0.357393 0.844406 0.135605
C23   C     C_2   0.883555 0.931026 0.507045 -0.247812
C24   C     C_2   0.999509 0.866545 0.509328 -0.361061
H6    H     H_    0.787555 0.884230 0.500150 0.174541
H7    H     H_    0.094606 0.909079 0.520807 0.152369
C25   C     C_2   0.877338 0.065142 0.516840 0.451437
C26   C     C_2   0.999145 0.132625 0.495985 -0.325479
H8    H     H_    0.103856 0.091285 0.471830 0.108938
C27   C     C_2   0.397338 0.435292 0.556383 -0.046018
N1    N     N_2   0.346430 0.498660 0.500980 -0.285949
H9    H     H_    0.323491 0.380357 0.607554 0.161890
H10   H     H_    0.415778 0.547120 0.450025 0.193251
C28   C     C_2   0.554254 0.431092 0.553588 -0.009313
N2    N     N_2   0.652550 0.498630 0.501000 -0.283565
H11   H     H_    0.585433 0.368332 0.599596 0.172029
H12   H     H_    0.623568 0.561955 0.459974 0.185850
C29   C     C_2   0.017035 0.272574 0.054982 0.438579
H13   H     H_    0.068414 0.202915 0.006992 0.061275
O9    O     O_2   0.886475 0.280155 0.074123 -0.502772
O10   O     O_3   0.745354 0.121685 0.545751 -0.712559
H14   H     H_    0.668910 0.058128 0.559530 0.317295
C30   C     C_2   0.301946 0.648644 0.201052 0.358694
H15   H     H_    0.267113 0.681205 0.270501 0.082419
O11   O     O_2   0.372458 0.718325 0.143398 -0.507525
O12   O     O_3   0.915656 0.348828 0.235441 -0.661637
H16   H     H_    0.851317 0.419608 0.254615 0.335430
C31   C     C_2   0.010304 0.614729 0.975789 0.440152
H17   H     H_    0.011758 0.574635 0.040178 0.051673
O13   O     O_2   0.084426 0.705327 0.949718 -0.498947
C32   C     C_2   0.119750 0.586201 0.779799 0.470373
H18   H     H_    0.144005 0.647761 0.721990 0.078634
O14   O     O_2   0.218409 0.544075 0.805621 -0.544407

loop_
_geom_bond_atom_site_label_1
_geom_bond_atom_site_label_2
_geom_bond_distance
_ccdc_geom_bond_type
O4    Cu2   1.914836 S    
C32   O14   1.221076 D    
C13   C14   1.405948 A    
C31   O13   1.221033 D    
C16   H5    1.077818 S    
C4    C6    1.480366 S    
C22   C30   1.494644 S    
Cu2   O8    1.933585 S    
C6    C22   1.405123 A    
C21   O12   1.376883 S    
C5    C8    1.420186 A    
Cu1   O7    1.914836 S    
C9    C10   1.402439 A    
C14   H4    1.081721 S    
C27   C28   1.508653 S    
C26   H8    1.083044 S    
C7    C31   1.492186 S    
C28   H11   1.084738 S    
C18   C20   1.418685 A    
C7    C8    1.421555 A    
C30   H15   1.084058 S    
C14   C15   1.386182 A    
C32   H18   1.084921 S    
Cu1   Cu2   2.683164 S    
C24   H7    1.083442 S    
C9    H3    1.076097 S    
C29   H13   1.083397 S    
O10   H14   0.991418 S    
C6    C21   1.415752 A    
C23   H6    1.086696 S    
C1    C26   1.450545 S    
C16   C17   1.387652 A    
O12   H16   0.990972 S    
O3    Cu1   1.933582 S    
O4    C2    1.304658 A    
C13   C19   1.425902 A    
Cu2   O6    1.957376 S    
C18   C19   1.419820 A    
C20   C29   1.490790 S    
C10   C12   1.428105 A    
C23   C25   1.474652 S    
C19   C22   1.419203 A    
O2    C1    1.289517 A    
C29   O9    1.221118 D    
C17   H2    1.079988 S    
C20   C21   1.408404 A    
O7    C4    1.302170 A    
N1    H10   1.025484 S    
C3    C24   1.446575 S    
C8    C32   1.485943 S    
C25   C26   1.348942 D    
C30   O11   1.221728 D    
C31   H17   1.081858 S    
Cu1   N1    2.015211 S    
C27   N1    1.293582 D    
O8    C4    1.295680 A    
C17   C18   1.404265 A    
C23   C24   1.338847 D    
C10   C11   1.421120 A    
O3    C2    1.298143 A    
C28   N2    1.294123 D    
C12   C16   1.411121 A    
C27   H9    1.084729 S    
N2    H12   1.025430 S    
Cu1   O5    1.960799 S    
O5    C3    1.290862 A    
C12   C13   1.416053 A    
O1    Cu1   1.957377 S    
C11   C15   1.406734 A    
C25   O10   1.384616 S    
C2    C5    1.488760 S    
C5    C9    1.396227 A    
Cu2   N2    2.016666 S    
O2    Cu2   1.960800 S    
C15   H1    1.079743 S    
O1    C1    1.295250 A    
O6    C3    1.292473 A    
C7    C11   1.423290 A    
