data_mof_unit_31710.cif
_audit_creation_date              2012-12-10T17:27:54-0500
_audit_creation_method            fapswitch 2.2
_symmetry_space_group_name_H-M    P1
_symmetry_Int_Tables_number       1
_space_group_crystal_system       triclinic
_cell_length_a                    10.651252
_cell_length_b                    12.116567
_cell_length_c                    12.861222
_cell_angle_alpha                 95.470581
_cell_angle_beta                  93.371089
_cell_angle_gamma                 82.935778
_cell_volume                      1637.86018666

loop_
_atom_site_label
_atom_site_type_symbol
_atom_type_description
_atom_site_fract_x
_atom_site_fract_y
_atom_site_fract_z
_atom_type_partial_charge
C1    C     C_R   0.497893 0.523746 0.700583 0.934349
C2    C     C_R   0.576581 0.620253 0.865087 0.072176
C3    C     C_R   0.453969 0.463633 0.868680 0.069269
C4    C     C_R   0.739595 0.494837 0.493678 0.922714
C5    C     C_R   0.493794 0.452715 0.972706 0.003123
C6    C     C_R   0.563299 0.535299 0.028029 0.025942
C7    C     C_R   0.585039 0.531533 0.136775 -0.002312
C8    C     C_R   0.475661 0.365347 0.131217 0.047583
C9    C     C_R   0.465484 0.360763 0.022979 0.377015
C10   C     C_R   0.353104 0.960692 0.428138 0.354191
C11   C     C_R   0.372261 0.844432 0.429910 0.126661
C12   C     C_R   0.940857 0.429289 0.407654 -0.130293
C13   C     C_R   0.562745 0.855181 0.532953 -0.026422
C14   C     C_R   0.549321 0.973625 0.531257 -0.042300
C15   C     C_R   0.446178 0.026687 0.473913 -0.104861
C16   C     C_R   0.511543 0.475634 0.300136 0.981107
C17   C     C_R   0.440288 0.143331 0.462792 0.182989
C18   C     C_R   0.617764 0.157660 0.581987 0.503155
C19   C     C_R   0.635034 0.040128 0.586629 -0.022949
C20   C     C_R   0.259859 0.502199 0.492736 0.966769
C21   C     C_R   0.891638 0.352228 0.328271 0.380373
C22   C     C_R   0.949317 0.329533 0.232075 0.067068
C23   C     C_R   0.874074 0.484110 0.494385 -0.049961
C24   C     C_R   0.056069 0.379153 0.215020 -0.265416
C25   C     C_R   0.112677 0.443318 0.295539 0.341096
C26   C     C_R   0.061969 0.459892 0.396098 -0.049609
C27   C     C_R   0.933082 0.546775 0.576267 0.076867
C28   C     C_R   0.061059 0.556406 0.573131 0.019008
C29   C     C_R   0.124972 0.510256 0.484680 -0.058434
C30   C     C_R   0.525209 0.456165 0.188010 -0.091668
C31   C     C_R   0.505522 0.539835 0.813400 -0.150637
C32   C     C_R   0.602516 0.620935 0.972796 0.088828
Cl1   Cl    Cl    0.424814 0.235019 0.953891 -0.619136
Cl2   Cl    Cl    0.721757 0.239366 0.656812 -0.557951
Cl3   Cl    Cl    0.201458 0.018317 0.380242 -0.553921
Cl4   Cl    Cl    0.779280 0.262087 0.349212 -0.544119
Cl5   Cl    Cl    0.223227 0.524357 0.256981 -0.701473
H1    H     H_    0.641037 0.812983 0.576869 0.178582
H2    H     H_    0.367302 0.271017 0.375717 0.259628
H3    H     H_    0.729875 0.021644 0.726278 0.236076
H4    H     H_    0.822972 0.007916 0.622012 0.244585
H5    H     H_    0.218926 0.762128 0.436546 0.240350
H6    H     H_    0.316971 0.714011 0.335004 0.277746
H7    H     H_    0.873591 0.302932 0.085427 0.195056
H8    H     H_    0.967536 0.192391 0.129234 0.228402
H9    H     H_    0.114125 0.580686 0.727161 0.180523
H10   H     H_    0.086556 0.698648 0.664448 0.202541
H11   H     H_    0.732123 0.550661 0.243654 0.180690
H12   H     H_    0.095031 0.367867 0.138233 0.195701
H13   H     H_    0.621617 0.665307 0.238929 0.226072
H14   H     H_    0.486584 0.203367 0.162102 0.242512
H15   H     H_    0.337580 0.272992 0.160805 0.227584
H16   H     H_    0.757229 0.678284 0.051502 0.228964
H17   H     H_    0.613357 0.755438 0.080039 0.219832
H18   H     H_    0.900732 0.564997 0.731600 0.194638
H19   H     H_    0.867668 0.684058 0.669692 0.185727
H20   H     H_    0.581734 0.781020 0.836213 0.219073
H21   H     H_    0.720639 0.698201 0.822145 0.197853
H22   H     H_    0.382551 0.341777 0.768499 0.265836
H23   H     H_    0.284426 0.463282 0.786153 0.170178
H24   H     H_    0.373586 0.145935 0.314062 0.197442
N1    N     N_R   0.523130 0.207800 0.519340 -0.152980
N2    N     N_3   0.126662 0.615268 0.657742 -0.464265
N3    N     N_3   0.671533 0.599440 0.194577 -0.466734
N4    N     N_3   0.432459 0.279131 0.183825 -0.422943
N5    N     N_3   0.668034 0.710206 0.021989 -0.458969
N6    N     N_R   0.476870 0.792180 0.480660 -0.152127
N7    N     N_3   0.861742 0.598183 0.663179 -0.447343
N8    N     N_3   0.622712 0.701851 0.807796 -0.417668
N9    N     N_3   0.350121 0.406815 0.823082 -0.380790
N10   N     N_3   0.352620 0.190601 0.385738 -0.361963
N11   N     N_3   0.738181 0.988389 0.648610 -0.460953
N12   N     N_3   0.275993 0.783071 0.380074 -0.367308
N13   N     N_3   0.897166 0.257374 0.150331 -0.374609
O1    O     O_R   0.506170 0.421690 0.658830 -0.593944
O2    O     O_R   0.491330 0.609320 0.646410 -0.588901
O3    O     O_R   0.690660 0.406170 0.506210 -0.515922
O4    O     O_R   0.675810 0.593790 0.493790 -0.635782
O5    O     O_R   0.508670 0.390680 0.353590 -0.597959
O6    O     O_R   0.493830 0.578310 0.341170 -0.643000
O7    O     O_R   0.324190 0.406210 0.506210 -0.637968
O8    O     O_R   0.309340 0.593830 0.493790 -0.619988
Zn1   Zn    Zn3+2 0.509910 0.374720 0.508290 1.039937
Zn2   Zn    Zn3+2 0.490090 0.625280 0.491710 0.957768

loop_
_geom_bond_atom_site_label_1
_geom_bond_atom_site_label_2
_ccdc_geom_bond_type
H6    N12   S    
C6    C32   A    
N1    Zn1   S    
C20   O8    A    
H13   N3    S    
O6    Zn2   S    
O2    Zn2   S    
H18   N7    S    
C21   Cl4   S    
C4    O4    A    
C12   C23   A    
C28   C29   A    
C10   C15   A    
H10   N2    S    
C5    C6    A    
H11   N3    S    
O3    Zn1   S    
C16   C30   S    
C1    C31   S    
C2    C32   A    
C18   C19   A    
H14   N4    S    
C20   O7    A    
C27   N7    S    
C25   Cl5   S    
C8    C9    A    
C10   Cl3   S    
C23   C27   A    
C2    N8    S    
H24   N10   S    
N6    Zn2   S    
C7    C30   A    
C21   C22   A    
C9    Cl1   S    
C19   N11   S    
O7    Zn1   S    
C11   N6    A    
C20   C29   S    
C1    O1    A    
C3    N9    S    
C24   C25   A    
C11   N12   S    
C4    C23   S    
C18   N1    A    
C25   C26   A    
H19   N7    S    
C12   C21   A    
C12   C26   A    
C2    C31   A    
C16   O6    A    
C3    C31   A    
C5    C9    A    
C17   N1    A    
H23   N9    S    
H7    N13   S    
H16   N5    S    
C18   Cl2   S    
C13   H1    S    
H4    N11   S    
C17   N10   S    
O8    Zn2   S    
C22   C24   A    
C22   N13   S    
C32   N5    S    
C13   N6    A    
C24   H12   S    
C15   C17   A    
H5    N12   S    
H3    N11   S    
C1    O2    A    
C14   C19   A    
C3    C5    A    
H21   N8    S    
C6    C7    A    
H17   N5    S    
H9    N2    S    
C16   O5    A    
C8    C30   A    
C4    O3    A    
O5    Zn1   S    
O1    Zn1   S    
C7    N3    S    
C10   C11   A    
H22   N9    S    
C28   N2    S    
O4    Zn2   S    
C8    N4    S    
C26   C29   A    
C27   C28   A    
H2    N10   S    
C14   C15   A    
H8    N13   S    
H20   N8    S    
C13   C14   A    
H15   N4    S    
