data_mof_unit_49922.cif
_audit_creation_date              2012-12-11T15:26:05-0500
_audit_creation_method            fapswitch 2.2
_symmetry_space_group_name_H-M    P1
_symmetry_Int_Tables_number       1
_space_group_crystal_system       triclinic
_cell_length_a                    24.540405
_cell_length_b                    17.096092
_cell_length_c                    15.565358
_cell_angle_alpha                 89.855652
_cell_angle_beta                  50.682258
_cell_angle_gamma                 89.785289
_cell_volume                      5052.14508863

loop_
_atom_site_label
_atom_site_type_symbol
_atom_type_description
_atom_site_fract_x
_atom_site_fract_y
_atom_site_fract_z
_atom_type_partial_charge
C1    C     C_R   0.351295 0.143117 0.755047 -0.120668
C2    C     C_2   0.354447 0.748661 0.865246 -0.217861
C3    C     C_2   0.359958 0.260001 0.846489 -0.218856
C4    C     C_2   0.648673 0.748066 0.135901 -0.218658
C5    C     C_2   0.194096 0.654568 0.021607 -0.220085
C6    C     C_2   0.805425 0.349752 0.981947 -0.221489
C7    C     C_2   0.807963 0.653309 0.979093 -0.218389
C8    C     C_2   0.194422 0.350133 0.017975 -0.221857
C9    C     C_2   0.692424 0.299269 0.137470 -0.105760
C10   C     C_2   0.307143 0.705526 0.870401 -0.106126
C11   C     C_2   0.307392 0.299814 0.861827 -0.105502
C12   C     C_R   0.652134 0.860340 0.238076 -0.123456
C13   C     C_2   0.695234 0.703923 0.131993 -0.107952
C14   C     C_2   0.263900 0.651622 0.962361 -0.107537
C15   C     C_2   0.735420 0.350905 0.041841 -0.107779
C16   C     C_2   0.738056 0.649482 0.040615 -0.109521
C17   C     C_2   0.264437 0.351391 0.957550 -0.106969
C18   C     C_R   0.614529 0.103243 0.592171 -0.133714
C19   C     C_R   0.403843 0.862457 0.407794 -0.124355
C20   C     C_R   0.385363 0.103257 0.407822 -0.134229
C21   C     C_R   0.614648 0.896740 0.592169 -0.131349
C22   C     C_R   0.114320 0.602246 0.592504 -0.125467
C23   C     C_R   0.648623 0.142892 0.244661 -0.120968
C24   C     C_R   0.912555 0.355226 0.407261 -0.125166
C25   C     C_R   0.912787 0.645191 0.407298 -0.124781
C26   C     C_R   0.087157 0.354815 0.592723 -0.125927
C27   C     C_R   0.688781 0.102708 0.408109 -0.138824
C28   C     C_R   0.329421 0.862818 0.592354 -0.129333
C29   C     C_R   0.311109 0.102684 0.591878 -0.139831
C30   C     C_R   0.688888 0.897255 0.408099 -0.137296
C31   C     C_R   0.188817 0.601733 0.407937 -0.125859
C32   C     C_R   0.837550 0.355621 0.592627 -0.126583
C33   C     C_R   0.837839 0.644791 0.592592 -0.126194
C34   C     C_R   0.346300 0.863541 0.771176 -0.125594
C35   C     C_R   0.162136 0.355224 0.407401 -0.127332
C36   C     C_R   0.557812 0.142583 0.243472 -0.149883
C37   C     C_R   0.440100 0.861406 0.764015 -0.148048
C38   C     C_R   0.442125 0.142578 0.756186 -0.150003
C39   C     C_R   0.564842 0.863400 0.229167 -0.147223
C40   C     C_R   0.077155 0.608112 0.197582 -0.160877
C41   C     C_R   0.922740 0.393331 0.803251 -0.160604
C42   C     C_R   0.924446 0.609077 0.800640 -0.142566
C43   C     C_R   0.077191 0.393415 0.196903 -0.159018
C44   C     C_R   0.384375 0.185829 0.786066 0.148843
C45   C     C_R   0.833333 0.608055 0.801729 -0.131262
C46   C     C_R   0.622703 0.820722 0.199068 0.149071
C47   C     C_R   0.615512 0.185673 0.213405 0.148797
C48   C     C_R   0.379537 0.821536 0.802587 0.149471
C49   C     C_R   0.853944 0.627662 0.863557 0.150860
C50   C     C_R   0.147731 0.374868 0.134270 0.156153
C51   C     C_R   0.147117 0.628638 0.137056 0.152010
C52   C     C_R   0.852270 0.374713 0.865694 0.156043
C53   C     C_R   0.683411 0.118581 0.500197 0.048326
C54   C     C_R   0.351149 0.820337 0.500196 0.042861
C55   C     C_R   0.316396 0.118471 0.499789 0.048013
C56   C     C_R   0.167295 0.393122 0.197717 -0.130623
C57   C     C_R   0.683646 0.881644 0.500193 0.047323
C58   C     C_R   0.183414 0.615738 0.500361 0.043540
C59   C     C_R   0.861767 0.311032 0.499993 0.040208
C60   C     C_R   0.862315 0.689686 0.499992 0.040146
C61   C     C_R   0.137628 0.310345 0.500016 0.041421
C62   C     C_R   0.192273 0.158265 0.600376 -0.173008
C63   C     C_R   0.807845 0.842149 0.399633 -0.171314
C64   C     C_R   0.807130 0.159374 0.399621 -0.171429
C65   C     C_R   0.266238 0.712346 0.601174 -0.170320
C66   C     C_R   0.773047 0.794919 0.600606 -0.167768
C67   C     C_R   0.166508 0.610295 0.200903 -0.114760
C68   C     C_R   0.226993 0.205300 0.399387 -0.168869
C69   C     C_R   0.305849 0.657763 0.399975 -0.172184
C70   C     C_R   0.772056 0.206624 0.600606 -0.167865
C71   C     C_R   0.727054 0.842105 0.600721 -0.170876
C72   C     C_R   0.273075 0.158316 0.399256 -0.172398
C73   C     C_R   0.347293 0.711987 0.399909 -0.170976
C74   C     C_R   0.726352 0.159334 0.600717 -0.170902
C75   C     C_R   0.146267 0.205284 0.600396 -0.170064
C76   C     C_R   0.853769 0.794934 0.399617 -0.168797
C77   C     C_R   0.852770 0.206690 0.399596 -0.168968
C78   C     C_R   0.832789 0.393038 0.802065 -0.129069
C79   C     C_R   0.224748 0.658166 0.601239 -0.169827
C80   C     C_R   0.741068 0.858910 0.500205 0.143126
C81   C     C_R   0.259044 0.141504 0.499781 0.143576
C82   C     C_R   0.322712 0.746162 0.500447 0.149735
C83   C     C_R   0.740551 0.142240 0.500202 0.143228
C84   C     C_R   0.167452 0.236241 0.499933 0.144427
C85   C     C_R   0.832526 0.763868 0.500073 0.144069
C86   C     C_R   0.831535 0.237511 0.500065 0.144069
C87   C     C_R   0.240133 0.638668 0.500575 0.142646
C88   C     C_2   0.639977 0.259738 0.152613 -0.218645
H1    H     H_    0.304021 0.157904 0.767261 0.090337
H2    H     H_    0.425893 0.852260 0.323315 0.083331
H3    H     H_    0.406370 0.098843 0.322550 0.083510
H4    H     H_    0.593728 0.901346 0.677372 0.081245
H5    H     H_    0.092694 0.598432 0.678155 0.083809
H6    H     H_    0.942207 0.339962 0.321039 0.091630
H7    H     H_    0.942431 0.660589 0.321109 0.091881
H8    H     H_    0.057435 0.339411 0.678932 0.091551
H9    H     H_    0.736481 0.097726 0.323057 0.082862
H10   H     H_    0.283475 0.852831 0.676835 0.082373
H11   H     H_    0.263450 0.097690 0.676947 0.084757
H12   H     H_    0.699640 0.846300 0.225593 0.090430
H13   H     H_    0.736558 0.902362 0.323070 0.082660
H14   H     H_    0.236216 0.597475 0.322504 0.082836
H15   H     H_    0.797300 0.340631 0.678732 0.091653
H16   H     H_    0.797661 0.659901 0.678677 0.091767
H17   H     H_    0.202288 0.340116 0.321306 0.091586
H18   H     H_    0.520767 0.158733 0.230775 0.099664
H19   H     H_    0.477434 0.846154 0.776439 0.098544
H20   H     H_    0.479181 0.158630 0.768716 0.099638
H21   H     H_    0.535323 0.852414 0.200997 0.087286
H22   H     H_    0.048770 0.604590 0.165826 0.092241
H23   H     H_    0.695902 0.157422 0.232328 0.090217
H24   H     H_    0.951666 0.396908 0.834074 0.090913
H25   H     H_    0.954691 0.607350 0.829301 0.091244
H26   H     H_    0.048133 0.397107 0.166282 0.091185
H27   H     H_    0.677906 0.858307 0.679988 0.104946
H28   H     H_    0.322253 0.142193 0.319976 0.106038
H29   H     H_    0.394505 0.731864 0.320741 0.106340
H30   H     H_    0.677310 0.143055 0.679983 0.105156
H31   H     H_    0.098112 0.223638 0.679601 0.106466
H32   H     H_    0.901898 0.776532 0.320419 0.106408
H33   H     H_    0.900792 0.225113 0.320384 0.106213
H34   H     H_    0.293771 0.854097 0.800105 0.084180
H35   H     H_    0.176951 0.639395 0.680472 0.105470
H36   H     H_    0.291056 0.720428 0.821422 0.126509
H37   H     H_    0.712115 0.282708 0.180759 0.128101
H38   H     H_    0.711098 0.717977 0.181325 0.130182
H39   H     H_    0.287524 0.283369 0.818889 0.128168
H40   H     H_    0.711213 0.377796 0.010122 0.123819
H41   H     H_    0.287516 0.622472 0.993707 0.124049
H42   H     H_    0.288725 0.378155 0.988983 0.123705
H43   H     H_    0.713731 0.619637 0.011172 0.125564
H44   H     H_    0.177743 0.142153 0.679649 0.105579
H45   H     H_    0.780235 0.605220 0.830142 0.079680
H46   H     H_    0.822395 0.858337 0.320372 0.104895
H47   H     H_    0.821774 0.143182 0.320359 0.104711
H48   H     H_    0.249732 0.732467 0.680299 0.101544
H49   H     H_    0.757628 0.776564 0.679760 0.107615
H50   H     H_    0.242384 0.223601 0.320231 0.108158
H51   H     H_    0.321915 0.638685 0.320754 0.105434
H52   H     H_    0.756538 0.224931 0.679771 0.107863
H53   H     H_    0.370202 0.733859 0.914729 0.128617
H54   H     H_    0.621008 0.276486 0.108196 0.128001
H55   H     H_    0.633852 0.733999 0.085055 0.127289
H56   H     H_    0.220195 0.396390 0.170047 0.078300
H57   H     H_    0.379072 0.276593 0.890617 0.127915
H58   H     H_    0.828925 0.322242 0.014672 0.128132
H59   H     H_    0.171150 0.684388 0.989398 0.127145
H60   H     H_    0.170832 0.322710 0.985579 0.128048
H61   H     H_    0.831545 0.684030 0.009400 0.129474
H62   H     H_    0.218799 0.610187 0.176020 0.080191
H63   H     H_    0.779947 0.396309 0.829444 0.078752
H64   H     H_    0.593574 0.098807 0.677427 0.081789
N1    N     N_R   0.388930 0.078160 0.705470 -0.046419
N2    N     N_R   0.419500 0.922160 0.443350 -0.036977
N3    N     N_R   0.419500 0.077840 0.443350 -0.036866
N4    N     N_R   0.580500 0.922160 0.556650 -0.035767
N5    N     N_R   0.080500 0.577840 0.556650 -0.038903
N6    N     N_R   0.919500 0.422160 0.443350 -0.040351
N7    N     N_R   0.919500 0.577840 0.443350 -0.040517
N8    N     N_R   0.080500 0.422160 0.556650 -0.039532
N9    N     N_R   0.626210 0.077590 0.443410 -0.036030
N10   N     N_R   0.373790 0.922410 0.556590 -0.036869
N11   N     N_R   0.373790 0.077590 0.556590 -0.037472
N12   N     N_R   0.611070 0.921840 0.294530 -0.045671
N13   N     N_R   0.626210 0.922410 0.443410 -0.036201
N14   N     N_R   0.126210 0.577590 0.443410 -0.039581
N15   N     N_R   0.873790 0.422410 0.556590 -0.041069
N16   N     N_R   0.873790 0.577590 0.556590 -0.041236
N17   N     N_R   0.126210 0.422410 0.443410 -0.040236
N18   N     N_R   0.554800 0.077270 0.294580 -0.043515
N19   N     N_R   0.445200 0.922730 0.705420 -0.042805
N20   N     N_R   0.445200 0.077270 0.705420 -0.043567
N21   N     N_R   0.554800 0.922730 0.294580 -0.041453
N22   N     N_R   0.054800 0.577270 0.294580 -0.039229
N23   N     N_R   0.611070 0.078160 0.294530 -0.046508
N24   N     N_R   0.945200 0.422730 0.705420 -0.038702
N25   N     N_R   0.945200 0.577270 0.705420 -0.039995
N26   N     N_R   0.054800 0.422730 0.294580 -0.038269
N27   N     N_R   0.388930 0.921840 0.705470 -0.043941
N28   N     N_R   0.888930 0.578160 0.705470 -0.042830
N29   N     N_R   0.111070 0.421840 0.294530 -0.042158
N30   N     N_R   0.111070 0.578160 0.294530 -0.043549
N31   N     N_R   0.888930 0.421840 0.705470 -0.041768
N32   N     N_R   0.580500 0.077840 0.556650 -0.035482
Ni1   Ni    Ni4+2 0.382710 0.000000 0.629850 0.212019
Ni2   Ni    Ni4+2 0.617290 0.000000 0.370150 0.209154
Ni3   Ni    Ni4+2 0.882710 0.500000 0.629850 0.208716
Ni4   Ni    Ni4+2 0.117290 0.500000 0.370150 0.206404
Ni5   Ni    Ni4+2 0.513020 0.000000 0.629850 0.208787
Ni6   Ni    Ni4+2 0.486980 0.000000 0.370150 0.211304
Ni7   Ni    Ni4+2 0.013020 0.500000 0.629850 0.208283
Ni8   Ni    Ni4+2 0.986980 0.500000 0.370150 0.210662

loop_
_geom_bond_atom_site_label_1
_geom_bond_atom_site_label_2
_ccdc_geom_bond_type
C69   H51   S    
N24   N31   A    
C43   N26   A    
C70   H52   S    
C5    H59   S    
C20   N3    A    
C33   H16   S    
C64   C77   A    
C29   N11   A    
C68   H50   S    
C3    C11   D    
C74   C83   A    
C39   N21   A    
C58   C87   S    
N22   N30   A    
C4    H55   S    
C79   C87   A    
C22   C58   A    
C28   N10   A    
C4    C46   S    
C21   C57   A    
C76   H32   S    
C65   C79   A    
C31   C58   A    
N3    Ni6   S    
C26   C61   A    
C37   H19   S    
C10   H36   S    
C43   H26   S    
C6    H58   S    
C24   N6    A    
C75   C84   A    
N26   N29   A    
C23   N23   A    
C56   N29   A    
C42   N25   A    
C30   C57   A    
N21   Ni6   S    
N7    N16   A    
N19   Ni5   S    
C36   C47   A    
C78   N31   A    
C4    C13   D    
C16   H43   S    
C70   C74   A    
C1    C44   A    
C18   C53   A    
C6    C15   D    
C7    H61   S    
C11   C17   S    
C41   H24   S    
C78   H63   S    
N8    N17   A    
C69   C73   A    
C25   C60   A    
C18   N32   A    
C55   C81   S    
C41   C52   A    
C72   C81   A    
C45   N28   A    
C63   C80   A    
N4    Ni5   S    
N2    Ni6   S    
C64   H47   S    
C34   H34   S    
N16   Ni3   S    
C67   H62   S    
N12   Ni2   S    
C57   C80   S    
N19   N27   A    
C34   N27   A    
C8    H60   S    
C66   C85   A    
C20   C55   A    
C52   C78   A    
C88   H54   S    
C71   C80   A    
N29   Ni4   S    
N6    N15   A    
N18   N23   A    
C26   H8    S    
C74   H30   S    
C20   H3    S    
C3    C44   S    
C73   H29   S    
C29   H11   S    
C36   H18   S    
C68   C84   A    
C31   H14   S    
C62   H44   S    
C75   H31   S    
C7    C49   S    
C12   C46   A    
C10   C14   S    
C28   C54   A    
C25   N7    A    
N24   Ni7   S    
C40   H22   S    
C29   C55   A    
C2    C48   S    
C79   H35   S    
C9    H37   S    
C11   H39   S    
C63   H46   S    
C64   C83   A    
C38   C44   A    
N9    Ni2   S    
C35   H17   S    
N28   Ni3   S    
C24   H6    S    
C12   N12   A    
N26   Ni8   S    
C42   H25   S    
C66   C71   A    
C31   N14   A    
C45   C49   A    
N6    Ni8   S    
C68   C72   A    
N25   N28   A    
N15   Ni3   S    
C32   H15   S    
C71   H27   S    
N12   N21   A    
C35   C61   A    
C51   C67   A    
N13   Ni2   S    
C37   C48   A    
C1    N1    A    
C5    C14   D    
C39   C46   A    
C13   H38   S    
C19   C54   A    
C7    C16   D    
N17   Ni4   S    
C62   C81   A    
C77   C86   A    
C25   H7    S    
C33   C60   A    
C15   H40   S    
C35   N17   A    
C22   H5    S    
N14   Ni4   S    
C62   C75   A    
C13   C16   S    
C33   N16   A    
C34   C48   A    
C70   C86   A    
C8    C50   S    
C73   C82   A    
C54   C82   S    
C26   N8    A    
C28   H10   S    
C2    H53   S    
C72   H28   S    
C27   H9    S    
C1    H1    S    
C17   H42   S    
C36   N18   A    
N7    Ni8   S    
N2    N10   A    
C8    C17   D    
N8    Ni7   S    
C61   C84   S    
C69   C87   A    
N5    N14   A    
C37   N19   A    
N10   Ni1   S    
C60   C85   S    
C27   C53   A    
C43   C50   A    
C38   N20   A    
N27   Ni1   S    
C22   N5    A    
N20   Ni5   S    
C40   C51   A    
C23   H23   S    
N18   Ni6   S    
C45   H45   S    
N25   Ni7   S    
C53   C83   S    
N11   Ni1   S    
N3    N11   A    
C47   C88   S    
C23   C47   A    
C3    H57   S    
C9    C15   S    
C59   C86   S    
N5    Ni7   S    
C9    C88   D    
C19   H2    S    
C27   N9    A    
N23   Ni2   S    
C40   N22   A    
C65   C82   A    
C66   H49   S    
N1    Ni1   S    
N4    N13   A    
N9    N32   A    
C24   C59   A    
N1    N20   A    
C21   N4    A    
C30   H13   S    
C38   H20   S    
C50   C56   A    
C12   H12   S    
C65   H48   S    
C77   H33   S    
C42   C49   A    
C41   N24   A    
C56   H56   S    
C39   H21   S    
C63   C76   A    
C32   N15   A    
C19   N2    A    
N32   Ni5   S    
C5    C51   S    
C30   N13   A    
C32   C59   A    
C6    C52   S    
N30   Ni4   S    
C76   C85   A    
C14   H41   S    
N31   Ni3   S    
C67   N30   A    
N22   Ni8   S    
C18   H64   S    
C21   H4    S    
C2    C10   D    
