data_mof_unit_43044.cif
_audit_creation_date              2013-03-05T15:48:01-0500
_audit_creation_method            fapswitch 2.2
_symmetry_space_group_name_H-M    P1
_symmetry_Int_Tables_number       1
_space_group_crystal_system       triclinic
_cell_length_a                    10.302749
_cell_length_b                    10.516071
_cell_length_c                    10.616488
_cell_angle_alpha                 92.880146
_cell_angle_beta                  94.549332
_cell_angle_gamma                 81.649645
_cell_volume                      1133.58281236

loop_
_atom_site_label
_atom_site_type_symbol
_atom_site_description
_atom_site_fract_x
_atom_site_fract_y
_atom_site_fract_z
_atom_type_partial_charge
O1    O     O_R   0.568940 0.489500 0.307530 -0.558451
O2    O     O_R   0.431060 0.510500 0.692470 -0.569829
O3    O     O_R   0.348880 0.522990 0.340350 -0.624545
O4    O     O_R   0.651120 0.477010 0.659650 -0.619840
C1    C     C_R   0.446267 0.500352 0.266514 0.948948
C2    C     C_R   0.553621 0.485117 0.732780 0.937720
O5    O     O_R   0.610000 0.297210 0.483560 -0.583597
O6    O     O_R   0.390000 0.702790 0.516440 -0.615988
O7    O     O_R   0.389940 0.330700 0.516390 -0.608165
O8    O     O_R   0.610060 0.669300 0.483610 -0.637771
C3    C     C_R   0.499554 0.257726 0.498988 0.954955
C4    C     C_R   0.500549 0.741950 0.501517 0.869421
Zn1   Zn    Zn3+2 0.646930 0.477640 0.478080 0.987756
Zn2   Zn    Zn3+2 0.353070 0.522360 0.521920 0.977418
C5    C     C_3   0.527455 0.030769 0.385508 -0.194561
C6    C     C_3   0.472666 0.967703 0.617023 -0.174593
C7    C     C_3   0.409619 0.965924 0.415010 0.170971
C8    C     C_3   0.590624 0.032983 0.587569 0.201072
H1    H     H_    0.547385 0.053260 0.288923 0.216400
H2    H     H_    0.451573 0.937853 0.711264 0.161419
C9    C     C_3   0.500936 0.876652 0.502127 -0.045877
C10   C     C_3   0.499308 0.122515 0.500037 -0.022645
C11   C     C_3   0.620069 0.939529 0.473940 -0.196648
C12   C     C_3   0.380003 0.059365 0.528513 -0.130338
H3    H     H_    0.718301 0.887939 0.452806 0.169795
H4    H     H_    0.281741 0.111011 0.549459 0.181061
C13   C     C_2   0.420917 0.478933 0.131344 -0.456737
C14   C     C_2   0.578693 0.457650 0.865484 -0.447972
C15   C     C_2   0.508432 0.401521 0.063168 0.264229
C16   C     C_2   0.491135 0.404466 0.926647 0.255931
H5    H     H_    0.665023 0.489013 0.916258 0.169185
H6    H     H_    0.334114 0.533660 0.085077 0.169144
N1    N     N_2   0.157310 0.552180 0.551120 -0.184813
N2    N     N_2   0.842690 0.447820 0.448880 -0.188993
C17   C     C_2   0.071842 0.488086 0.487897 0.216308
C18   C     C_2   0.928205 0.511775 0.512203 0.210489
H7    H     H_    0.873228 0.379279 0.381099 0.187145
H8    H     H_    0.126732 0.620731 0.618866 0.163855
C19   C     C_3   0.306619 0.925641 0.316258 -0.861451
H9    H     H_    0.257834 0.011110 0.264964 0.251043
H10   H     H_    0.354377 0.853799 0.247970 0.235697
H11   H     H_    0.231666 0.882714 0.363041 0.253245
C20   C     C_3   0.695174 0.072270 0.685273 -0.806914
H12   H     H_    0.745005 0.986135 0.734883 0.232312
H13   H     H_    0.769063 0.115930 0.637687 0.246126
H14   H     H_    0.649274 0.143095 0.755328 0.277136
N3    N     N_R   0.383516 0.347695 0.862681 0.233153
O9    O     O_R   0.271454 0.357485 0.913496 -0.394215
O10   O     O_R   0.405916 0.263950 0.769965 -0.413400
N4    N     N_R   0.618521 0.316699 0.118959 0.225574
O11   O     O_R   0.724668 0.285754 0.058953 -0.398994
O12   O     O_R   0.603449 0.250744 0.215564 -0.425945
C21   C     C_3   0.886570 0.612828 0.613092 -0.829080
H15   H     H_    0.909243 0.707622 0.586637 0.196622
H16   H     H_    0.782692 0.626416 0.629395 0.291032
H17   H     H_    0.939774 0.585940 0.705133 0.221854
C22   C     C_3   0.113508 0.386924 0.387098 -0.800152
H18   H     H_    0.090936 0.292145 0.413710 0.204274
H19   H     H_    0.060241 0.413632 0.295039 0.219397
H20   H     H_    0.217354 0.373434 0.370675 0.290826

loop_
_geom_bond_atom_site_label_1
_geom_bond_atom_site_label_2
_geom_bond_distance
_ccdc_geom_bond_type
N4    O12   1.298105 A    
O7    Zn2   1.994816 S    
C21   H15   1.110566 S    
C15   C16   1.447526 S    
C8    C10   1.525489 S    
C13   C15   1.353020 D    
N2    H7    1.026775 S    
C20   H13   1.109674 S    
C3    C10   1.422862 S    
N1    H8    1.026694 S    
O6    C4    1.289701 A    
C17   C22   1.512279 S    
Zn2   N1    2.041543 S    
C14   C16   1.350617 D    
N4    O11   1.301551 A    
C5    C10   1.533014 S    
Zn1   N2    2.041543 S    
C6    C12   1.550799 S    
O2    C2    1.294877 A    
C8    C20   1.521783 S    
O5    C3    1.291380 A    
O7    C3    1.290559 A    
C22   H18   1.110573 S    
C6    C9    1.532162 S    
O3    Zn2   1.925016 S    
O8    C4    1.289136 A    
O1    C1    1.294524 A    
C4    C9    1.416806 S    
C5    C11   1.547572 S    
C6    H2    1.110251 S    
N1    C17   1.308956 D    
N3    O10   1.299082 A    
C5    H1    1.105188 S    
C19   H11   1.109693 S    
N2    C18   1.308903 D    
C15   N4    1.444170 S    
C21   H16   1.085471 S    
C20   H12   1.109698 S    
O2    Zn2   1.924162 S    
C20   H14   1.108754 S    
C10   C12   1.536062 S    
C22   H19   1.110403 S    
O4    C2    1.308155 A    
O1    Zn1   1.924162 S    
C8    C11   1.537998 S    
C7    C12   1.537186 S    
C16   N3    1.441880 S    
O5    Zn1   1.993143 S    
C11   H3    1.110525 S    
C19   H10   1.109975 S    
C6    C8    1.539537 S    
C7    C19   1.521230 S    
C21   H17   1.110414 S    
C19   H9    1.109768 S    
C5    C7    1.535975 S    
C22   H20   1.085467 S    
O6    Zn2   1.993145 S    
C18   C21   1.512154 S    
C13   H6    1.086969 S    
C1    C13   1.450318 S    
C9    C11   1.532034 S    
O8    Zn1   1.994818 S    
C14   H5    1.087075 S    
C2    C14   1.447927 S    
N3    O9    1.301271 A    
O4    Zn1   1.925016 S    
C12   H4    1.110487 S    
O3    C1    1.309387 A    
C17   C18   1.505209 S    
C7    C9    1.521357 S    
