data_mof_unit_26028.cif
_audit_creation_date              2013-03-05T15:47:33-0500
_audit_creation_method            fapswitch 2.2
_symmetry_space_group_name_H-M    P1
_symmetry_Int_Tables_number       1
_space_group_crystal_system       triclinic
_cell_length_a                    7.247301
_cell_length_b                    15.545997
_cell_length_c                    22.1423
_cell_angle_alpha                 90.000221
_cell_angle_beta                  89.99701
_cell_angle_gamma                 89.674558
_cell_volume                      2494.65563079

loop_
_atom_site_label
_atom_site_type_symbol
_atom_site_description
_atom_site_fract_x
_atom_site_fract_y
_atom_site_fract_z
_atom_type_partial_charge
O1    O     O_R   0.390810 0.844810 0.447340 -0.581969
O2    O     O_R   0.109190 0.155190 0.947340 -0.582105
O3    O     O_R   0.890810 0.655190 0.552660 -0.585889
O4    O     O_R   0.609190 0.344810 0.052660 -0.585840
O5    O     O_R   0.720550 0.655820 0.440420 -0.588016
O6    O     O_R   0.779450 0.344180 0.940420 -0.588017
O7    O     O_R   0.220550 0.844180 0.559580 -0.577341
O8    O     O_R   0.279450 0.155820 0.059580 -0.577434
C1    C     C_R   0.552482 0.627269 0.426714 1.098470
C2    C     C_R   0.947519 0.372734 0.926714 1.098532
C3    C     C_R   0.051466 0.871387 0.574101 1.106013
C4    C     C_R   0.448528 0.128640 0.074120 1.105893
O9    O     O_R   0.720530 0.844130 0.440420 -0.564040
O10   O     O_R   0.779470 0.155870 0.940420 -0.563828
O11   O     O_R   0.220530 0.655870 0.559580 -0.562760
O12   O     O_R   0.279470 0.344130 0.059580 -0.562870
O13   O     O_R   0.890830 0.844810 0.552660 -0.597360
O14   O     O_R   0.609170 0.155190 0.052660 -0.597229
O15   O     O_R   0.390830 0.655190 0.447340 -0.588938
O16   O     O_R   0.109170 0.344810 0.947340 -0.588968
C5    C     C_R   0.551257 0.871238 0.425456 1.121117
C6    C     C_R   0.948755 0.128736 0.925470 1.121205
C7    C     C_R   0.052025 0.629615 0.575004 1.118936
C8    C     C_R   0.447967 0.370386 0.075003 1.118862
O17   O     O_3   0.557310 0.749980 0.536820 -0.313570
O18   O     O_3   0.942690 0.250020 0.036820 -0.313557
O19   O     O_3   0.057310 0.750020 0.463180 -0.317793
O20   O     O_3   0.442690 0.249980 0.963180 -0.317774
V1    V     V_3+5 0.832160 0.749980 0.493170 1.241690
V2    V     V_3+5 0.667840 0.250020 0.993170 1.241887
V3    V     V_3+5 0.332160 0.750020 0.506830 1.244573
V4    V     V_3+5 0.167840 0.249980 0.006830 1.244533
C9    C     C_R   0.990806 0.602253 0.871972 0.287943
C10   C     C_R   0.509253 0.397759 0.371958 0.287957
C11   C     C_R   0.547402 0.903370 0.126926 0.289716
C12   C     C_R   0.953395 0.096746 0.626959 0.290580
H1    H     H_    0.086545 0.720450 0.790075 0.177931
H2    H     H_    0.413678 0.279544 0.290059 0.178024
H3    H     H_    0.635816 0.785329 0.209816 0.174840
H4    H     H_    0.864580 0.214718 0.709836 0.174569
C13   C     C_R   0.957362 0.448350 0.886951 -0.300123
C14   C     C_R   0.542625 0.551662 0.386945 -0.300163
C15   C     C_R   0.461621 0.052786 0.113113 -0.300032
C16   C     C_R   0.038381 0.947243 0.613097 -0.299814
C17   C     C_R   0.993422 0.477644 0.591789 0.582026
C18   C     C_R   0.506192 0.522395 0.091772 0.582710
C19   C     C_R   0.470273 0.022102 0.408687 0.632240
C20   C     C_R   0.030006 0.977881 0.908678 0.632922
C21   C     C_R   0.939792 0.410037 0.629162 -0.170153
C22   C     C_R   0.559326 0.590097 0.129138 -0.171454
C23   C     C_R   0.403421 0.086800 0.369951 -0.180675
C24   C     C_R   0.096677 0.913164 0.869917 -0.181220
C25   C     C_R   0.940908 0.418400 0.691631 -0.227192
C26   C     C_R   0.558302 0.581729 0.191609 -0.227019
C27   C     C_R   0.411333 0.077735 0.307714 -0.187621
C28   C     C_R   0.088569 0.922219 0.807685 -0.187538
C29   C     C_R   0.994008 0.495919 0.719604 0.088758
C30   C     C_R   0.505721 0.504134 0.219593 0.088890
C31   C     C_R   0.486261 0.003483 0.280400 0.082030
C32   C     C_R   0.013658 0.996483 0.780397 0.082074
C33   C     C_R   0.042849 0.567043 0.681805 -0.134467
C34   C     C_R   0.457105 0.432974 0.181797 -0.134503
C35   C     C_R   0.545466 0.934355 0.318690 -0.140612
C36   C     C_R   0.954545 0.065618 0.818701 -0.140672
C37   C     C_R   0.989421 0.505937 0.783952 0.099756
C38   C     C_R   0.510467 0.494098 0.283942 0.099691
C39   C     C_R   0.494485 0.994757 0.215952 0.106532
C40   C     C_R   0.005487 0.005231 0.715953 0.106445
C41   C     C_R   0.011059 0.588964 0.809060 -0.097430
C42   C     C_R   0.488988 0.411055 0.309047 -0.097505
C43   C     C_R   0.546335 0.914781 0.190446 -0.097882
C44   C     C_R   0.954043 0.085260 0.690465 -0.098040
C45   C     C_R   0.060880 0.657405 0.771415 -0.272504
C46   C     C_R   0.439265 0.342599 0.271404 -0.272330
C47   C     C_R   0.597909 0.847058 0.228560 -0.291312
C48   C     C_R   0.902405 0.152975 0.728582 -0.291209
C49   C     C_R   0.088550 0.646161 0.709519 0.543929
C50   C     C_R   0.411579 0.353834 0.209512 0.543944
C51   C     C_R   0.608447 0.857014 0.291234 0.546358
C52   C     C_R   0.891660 0.142981 0.791250 0.546467
C53   C     C_R   0.966870 0.435975 0.824247 -0.287476
C54   C     C_R   0.533035 0.564050 0.324245 -0.287402
C55   C     C_R   0.455020 0.063469 0.175900 -0.297353
C56   C     C_R   0.044683 0.936503 0.675887 -0.297449
C57   C     C_R   0.965196 0.532012 0.911375 0.190164
C58   C     C_R   0.534788 0.468000 0.411365 0.190425
C59   C     C_R   0.507293 0.972512 0.087876 0.202942
C60   C     C_R   0.993293 0.027613 0.587870 0.202376
C61   C     C_R   0.039631 0.556936 0.617540 -0.303376
C62   C     C_R   0.460301 0.443072 0.117534 -0.303357
C63   C     C_R   0.534423 0.944419 0.383061 -0.303797
C64   C     C_R   0.965652 0.055549 0.883071 -0.303764
H5    H     H_    0.964819 0.370459 0.808312 0.168638
H6    H     H_    0.535058 0.629573 0.308328 0.168561
H7    H     H_    0.429708 0.127602 0.192132 0.179277
H8    H     H_    0.069571 0.872328 0.692112 0.179241
H9    H     H_    0.889254 0.364568 0.716938 0.147537
H10   H     H_    0.609548 0.635651 0.216903 0.147567
H11   H     H_    0.349282 0.129030 0.282012 0.137213
H12   H     H_    0.150552 0.870927 0.781958 0.137244
H13   H     H_    0.887349 0.352053 0.609433 0.228447
H14   H     H_    0.611274 0.648181 0.109405 0.228387
H15   H     H_    0.337163 0.143999 0.387081 0.181723
H16   H     H_    0.162962 0.855953 0.887010 0.181557
N1    N     N_R   0.947035 0.546214 0.975676 0.243995
O21   O     O_R   0.021842 0.493652 0.014409 -0.418965
O22   O     O_R   0.861103 0.613881 0.996108 -0.321806
N2    N     N_R   0.552852 0.453801 0.475668 0.244044
O23   O     O_R   0.477902 0.506340 0.514389 -0.418941
O24   O     O_R   0.638775 0.386142 0.496113 -0.322156
N3    N     N_R   0.521704 0.962083 0.022983 0.239163
O25   O     O_R   0.420466 0.007629 0.986349 -0.402485
O26   O     O_R   0.641244 0.909056 0.999670 -0.344578
N4    N     N_R   0.979562 0.038191 0.522964 0.238771
O27   O     O_R   0.080167 0.992269 0.486371 -0.402250
O28   O     O_R   0.861693 0.091964 0.499575 -0.344695
N5    N     N_R   0.001223 0.687375 0.896173 0.235616
O29   O     O_R   0.132914 0.707263 0.933412 -0.462895
O30   O     O_R   0.871967 0.743153 0.884018 -0.403192
N6    N     N_R   0.498899 0.312632 0.396155 0.235614
O31   O     O_R   0.367279 0.292728 0.433424 -0.462442
O32   O     O_R   0.628074 0.256843 0.383933 -0.403615
N7    N     N_R   0.584208 0.820606 0.101685 0.233558
O33   O     O_R   0.753445 0.792532 0.098619 -0.409392
O34   O     O_R   0.455206 0.782272 0.071235 -0.440866
N8    N     N_R   0.917500 0.179625 0.601802 0.233497
O35   O     O_R   0.748325 0.207588 0.597971 -0.409210
O36   O     O_R   0.047912 0.218321 0.572221 -0.441491
O37   O     O_3   0.977023 0.472125 0.529405 -0.641164
C65   C     C_3   0.079834 0.402094 0.506558 0.065838
H17   H     H_    0.991062 0.344526 0.503246 0.216565
H18   H     H_    0.206296 0.387285 0.533379 0.160547
H19   H     H_    0.124684 0.418451 0.460086 0.150526
O38   O     O_3   0.522692 0.527886 0.029390 -0.641051
C66   C     C_3   0.419648 0.597800 0.006484 0.065047
H20   H     H_    0.508483 0.655305 0.002874 0.216801
H21   H     H_    0.293534 0.612834 0.033427 0.160032
H22   H     H_    0.374206 0.581176 0.960123 0.150585
O39   O     O_3   0.460556 0.026352 0.471841 -0.647939
C67   C     C_3   0.437102 0.110115 0.495158 0.114037
H23   H     H_    0.294255 0.133823 0.487554 0.167776
H24   H     H_    0.540449 0.155221 0.476394 0.212943
H25   H     H_    0.458437 0.107649 0.544730 0.161146
O40   O     O_3   0.039995 0.973648 0.971831 -0.647489
C68   C     C_3   0.064292 0.889934 0.995154 0.114969
H26   H     H_    0.207182 0.866406 0.987374 0.167302
H27   H     H_    0.961028 0.844667 0.976540 0.212982
H28   H     H_    0.043519 0.892406 0.044753 0.160850
O41   O     O_3   0.152471 0.714888 0.676119 -0.685931
C69   C     C_3   0.343113 0.724522 0.687258 -0.217997
H29   H     H_    0.421135 0.664682 0.676025 0.160818
H30   H     H_    0.370088 0.743911 0.734777 0.134215
H31   H     H_    0.396358 0.776529 0.657892 0.187875
O42   O     O_3   0.347705 0.285093 0.176120 -0.685952
C70   C     C_3   0.157053 0.275458 0.187251 -0.218361
H32   H     H_    0.079034 0.335290 0.175998 0.160927
H33   H     H_    0.130040 0.256094 0.234774 0.134285
H34   H     H_    0.103836 0.223434 0.157896 0.187889
O43   O     O_3   0.669841 0.788099 0.325431 -0.683151
C71   C     C_3   0.861400 0.776889 0.316249 -0.181919
H35   H     H_    0.938710 0.836891 0.326470 0.151751
H36   H     H_    0.892454 0.754449 0.269670 0.130472
H37   H     H_    0.912051 0.726302 0.347475 0.186999
O44   O     O_3   0.830244 0.211890 0.825451 -0.683081
C72   C     C_3   0.638720 0.223143 0.816224 -0.182106
H38   H     H_    0.561332 0.163146 0.826398 0.151760
H39   H     H_    0.607820 0.245632 0.769647 0.130289
H40   H     H_    0.588020 0.273710 0.847460 0.187032

loop_
_geom_bond_atom_site_label_1
_geom_bond_atom_site_label_2
_geom_bond_distance
_ccdc_geom_bond_type
O17   V3    1.761704 S    
C66   H22   1.109070 S    
C30   C34   1.432744 A    
C72   H38   1.114089 S    
C54   H6    1.078039 S    
C27   C31   1.409239 A    
O19   V1    1.761646 S    
O13   V1    2.023969 S    
O1    C5    1.327058 A    
O3    C7    1.327685 A    
N3    O25   1.300704 A    
C14   C54   1.403290 A    
C67   H25   1.109116 S    
C44   C48   1.398584 A    
O15   V3    2.020418 S    
C68   H26   1.109748 S    
N7    O33   1.301279 A    
C35   C51   1.420325 A    
C12   C60   1.408635 A    
O7    C3    1.333404 A    
N1    O22   1.300639 A    
C30   C38   1.433747 A    
C1    C14   1.470710 S    
C22   C26   1.389368 A    
O9    V1    2.036589 S    
O44   C72   1.412890 S    
C67   H24   1.109618 S    
C4    C15   1.464156 S    
N5    O30   1.301024 A    
C51   O43   1.383380 S    
C2    C13   1.470749 S    
O4    C8    1.327683 A    
C37   C41   1.414911 A    
N7    O34   1.300075 A    
C70   H33   1.112142 S    
C23   H15   1.077152 S    
O1    V3    2.023461 S    
C15   C55   1.400923 A    
N2    O23   1.300829 A    
C20   O40   1.401746 S    
O2    V4    2.023483 S    
C10   C58   1.410781 A    
O3    V1    2.019971 S    
C9    C57   1.410813 A    
C52   O44   1.383374 S    
C31   C39   1.434659 A    
C11   C59   1.408532 A    
C1    O15   1.328035 A    
C24   H16   1.077135 S    
C12   C44   1.417472 A    
C2    O16   1.328080 A    
C69   H31   1.108545 S    
O2    C6    1.327036 A    
C7    C61   1.474068 S    
C41   C45   1.400562 A    
C14   C58   1.409967 A    
H3    C47   1.079637 S    
O8    C4    1.333365 A    
C17   C61   1.400520 A    
C10   C42   1.415772 A    
C39   C43   1.414434 A    
C9    C41   1.415749 A    
O11   C7    1.334240 A    
C55   H7    1.074613 S    
O12   C8    1.334219 A    
C70   H34   1.108546 S    
C36   C52   1.420355 A    
C27   H11   1.076092 S    
O10   V2    2.036534 S    
C57   N1    1.446651 S    
C68   H27   1.109595 S    
C33   C61   1.431819 A    
N4    O27   1.300684 A    
O5    V1    2.043229 S    
C10   N6    1.430101 S    
C9    N5    1.430073 S    
C12   N8    1.426267 S    
O7    V3    2.036587 S    
O8    V4    2.036642 S    
C71   H37   1.108156 S    
C66   H20   1.107520 S    
C67   H23   1.109782 S    
C49   O41   1.381542 S    
C25   C29   1.410429 A    
O18   V4    1.761640 S    
C50   O42   1.381530 S    
C19   C23   1.405897 A    
C25   H9    1.076118 S    
H4    C48   1.079719 S    
C40   C56   1.416271 A    
C65   H18   1.115058 S    
C42   C46   1.400545 A    
C5    C63   1.479475 S    
C18   O38   1.389107 S    
C53   H5    1.078082 S    
C37   C53   1.416951 A    
O43   C71   1.412896 S    
C17   C21   1.394683 A    
C40   C44   1.414255 A    
C13   C53   1.403298 A    
C26   C30   1.410495 A    
O9    C5    1.336609 A    
C3    C16   1.464219 S    
N3    O26   1.299388 A    
C39   C55   1.416299 A    
O11   V3    2.043135 S    
O42   C70   1.412313 S    
O14   V2    2.023947 S    
O6    V2    2.043188 S    
C22   H14   1.073249 S    
C72   H40   1.108167 S    
C33   C49   1.415541 A    
C20   C64   1.410866 A    
C69   H30   1.112131 S    
C65   H19   1.109077 S    
C19   O39   1.401682 S    
C28   H12   1.076118 S    
C4    O14   1.325503 A    
C56   H8    1.074671 S    
C68   H28   1.109130 S    
N6    O31   1.299961 A    
N6    O32   1.300997 A    
O37   C65   1.409650 S    
O16   V4    2.020455 S    
C66   H21   1.115087 S    
H1    C45   1.080724 S    
C3    O13   1.325492 A    
N8    O36   1.300218 A    
C19   C63   1.410720 A    
C34   C50   1.415516 A    
C58   N2    1.446651 S    
C48   C52   1.398506 A    
O5    C1    1.333757 A    
O40   C68   1.410261 S    
C16   C56   1.401015 A    
C8    C62   1.474046 S    
O6    C2    1.333745 A    
N4    O28   1.299490 A    
O39   C67   1.410184 S    
N2    O24   1.300629 A    
C29   C33   1.432749 A    
O38   C66   1.409639 S    
C18   C62   1.400467 A    
O12   V4    2.043177 S    
C13   C57   1.410006 A    
N1    O21   1.300850 A    
C18   C22   1.394708 A    
C31   C35   1.432705 A    
C32   C36   1.432729 A    
C15   C59   1.405162 A    
C71   H35   1.114093 S    
O10   C6    1.336705 A    
C11   N7    1.426560 S    
C65   H17   1.107595 S    
C16   C60   1.405442 A    
O41   C69   1.412297 S    
C59   N3    1.449684 S    
C43   C47   1.398556 A    
C38   C42   1.414983 A    
N8    O35   1.301293 A    
C21   C25   1.389325 A    
C17   O37   1.389122 S    
C34   C62   1.431774 A    
O20   V2    1.761710 S    
H2    C46   1.080733 S    
C23   C27   1.386410 A    
C60   N4    1.449902 S    
C11   C43   1.417636 A    
C24   C28   1.386338 A    
C20   C24   1.405957 A    
C28   C32   1.409129 A    
C32   C40   1.434597 A    
C45   C49   1.395961 A    
C72   H39   1.111376 S    
C46   C50   1.395881 A    
C35   C63   1.436043 A    
C70   H32   1.114001 S    
C6    C64   1.479626 S    
C69   H29   1.114007 S    
C26   H10   1.076041 S    
C36   C64   1.436087 A    
N5    O29   1.299931 A    
C47   C51   1.398485 A    
O4    V2    2.019935 S    
C38   C54   1.416967 A    
C21   H13   1.073194 S    
C71   H36   1.111373 S    
C29   C37   1.433657 A    
