data_mof_unit_17644.cif
_audit_creation_date              2012-12-10T17:33:50-0500
_audit_creation_method            fapswitch 2.2
_symmetry_space_group_name_H-M    P1
_symmetry_Int_Tables_number       1
_space_group_crystal_system       triclinic
_cell_length_a                    10.708022
_cell_length_b                    12.052
_cell_length_c                    12.823643
_cell_angle_alpha                 94.660082
_cell_angle_beta                  93.324586
_cell_angle_gamma                 86.471577
_cell_volume                      1643.99561849

loop_
_atom_site_label
_atom_site_type_symbol
_atom_type_description
_atom_site_fract_x
_atom_site_fract_y
_atom_site_fract_z
_atom_type_partial_charge
C1    C     C_R   0.498179 0.522567 0.700572 0.868835
C2    C     C_R   0.517800 0.445346 0.973338 0.071944
C3    C     C_R   0.450885 0.537716 0.023951 0.076646
C4    C     C_R   0.741419 0.501836 0.510181 0.844744
C5    C     C_R   0.438753 0.537385 0.130680 -0.283874
C6    C     C_R   0.585798 0.374046 0.139188 0.110503
C7    C     C_R   0.571049 0.356290 0.029850 0.146263
C8    C     C_R   0.410674 0.944546 0.380101 -0.285061
C9    C     C_R   0.415739 0.831378 0.394615 0.007325
C10   C     C_R   0.533356 0.862234 0.555660 -0.041835
C11   C     C_R   0.530331 0.978062 0.544732 0.069155
C12   C     C_3   0.121288 0.503866 0.515736 -0.039515
C13   C     C_R   0.468925 0.020099 0.455071 0.053153
C14   C     C_R   0.466964 0.136155 0.443344 0.268940
C15   C     C_R   0.580615 0.166905 0.607003 0.003036
C16   C     C_R   0.505129 0.477080 0.299914 0.935479
C17   C     C_R   0.586380 0.052283 0.620850 -0.323603
C18   C     C_R   0.258116 0.501445 0.507055 0.937502
C19   C     C_3   0.937122 0.406855 0.584273 -0.077927
C20   C     C_3   0.082431 0.396912 0.570481 0.236928
C21   C     C_3   0.920395 0.484862 0.405150 -0.489759
C22   C     C_3   0.921964 0.616312 0.570379 -0.415864
C23   C     C_3   0.056815 0.511451 0.403501 -0.002535
C24   C     C_3   0.877774 0.503011 0.518768 0.007294
C25   C     C_3   0.120736 0.727130 0.589325 -0.349852
C26   C     C_3   0.111600 0.786405 0.487408 -0.791467
C27   C     C_3   0.702179 0.324375 0.197500 -0.363356
C28   C     C_3   0.702571 0.199762 0.212203 -0.780587
C29   C     C_3   0.323760 0.725671 0.021550 -0.421918
C30   C     C_3   0.272512 0.817718 0.952538 -0.870731
C31   C     C_3   0.585511 0.238400 0.978012 -0.360575
C32   C     C_3   0.716323 0.206266 0.940329 -0.909798
C33   C     C_3   0.896993 0.419351 0.699683 -0.385580
C34   C     C_3   0.066817 0.609188 0.586859 -0.076950
C35   C     C_3   0.899013 0.307086 0.747383 -0.821772
C36   C     C_R   0.509846 0.460616 0.188170 -0.111713
C37   C     C_R   0.488548 0.534649 0.812162 -0.091668
C38   C     C_R   0.399020 0.627978 0.967116 0.191077
C39   C     C_R   0.420418 0.624818 0.860137 -0.192779
C40   C     C_R   0.536320 0.446140 0.868110 -0.229896
H1    H     H_    0.896740 0.328685 0.549335 0.206744
H2    H     H_    0.371932 0.774223 0.336253 0.129408
H3    H     H_    0.581723 0.827622 0.623192 0.119001
H4    H     H_    0.908832 0.396829 0.374791 0.215214
H5    H     H_    0.889476 0.683264 0.519117 0.214340
H6    H     H_    0.878660 0.638035 0.646732 0.146043
H7    H     H_    0.086498 0.589410 0.669406 0.146024
H8    H     H_    0.171408 0.743611 0.427354 0.260990
H9    H     H_    0.013902 0.795521 0.454605 0.236070
H10   H     H_    0.145453 0.871605 0.504447 0.254485
H11   H     H_    0.068963 0.782607 0.647823 0.194344
H12   H     H_    0.863235 0.538927 0.351708 0.174748
H13   H     H_    0.219195 0.724459 0.621778 0.223757
H14   H     H_    0.607078 0.172585 0.217811 0.268504
H15   H     H_    0.746890 0.150046 0.146314 0.253858
H16   H     H_    0.758290 0.181075 0.285135 0.250148
H17   H     H_    0.786443 0.340438 0.155710 0.206839
H18   H     H_    0.717099 0.368959 0.275747 0.193499
H19   H     H_    0.350387 0.857053 0.918584 0.259629
H20   H     H_    0.207122 0.783708 0.889129 0.253264
H21   H     H_    0.219900 0.883259 0.000987 0.262809
H22   H     H_    0.242386 0.692762 0.056610 0.218641
H23   H     H_    0.057157 0.598517 0.382654 0.172789
H24   H     H_    0.384134 0.765177 0.085813 0.205038
H25   H     H_    0.717438 0.218461 0.856014 0.244113
H26   H     H_    0.789014 0.255583 0.984361 0.274291
H27   H     H_    0.739701 0.116371 0.949268 0.255600
H28   H     H_    0.559934 0.177968 0.032858 0.222910
H29   H     H_    0.515726 0.227367 0.910834 0.211067
H30   H     H_    0.820585 0.259045 0.711829 0.231152
H31   H     H_    0.985983 0.255158 0.732990 0.299480
H32   H     H_    0.890193 0.321808 0.833147 0.257783
H33   H     H_    0.955593 0.477482 0.749490 0.227840
H34   H     H_    0.380870 0.601438 0.171798 0.163662
H35   H     H_    0.799543 0.456099 0.703913 0.190233
H36   H     H_    0.382060 0.689873 0.812361 0.161823
H37   H     H_    0.591452 0.378681 0.829046 0.172979
H38   H     H_    0.619701 0.223723 0.667725 0.129651
H39   H     H_    0.361214 0.969715 0.309543 0.179852
H40   H     H_    0.632850 0.022230 0.691297 0.152378
I1    I     I_    0.370435 0.193770 0.305913 -0.300628
I2    I     I_    0.199766 0.376732 0.715658 -0.394634
I3    I     I_    0.117034 0.236452 0.484313 -0.320108
I4    I     I_    0.140402 0.428782 0.267688 -0.360393
N1    N     N_R   0.523380 0.207800 0.519350 -0.110762
N2    N     N_R   0.476620 0.792180 0.480650 -0.100397
O1    O     O_R   0.506240 0.421700 0.658830 -0.612589
O2    O     O_R   0.491240 0.609310 0.646410 -0.645406
O3    O     O_R   0.692710 0.406190 0.506230 -0.637999
O4    O     O_R   0.677700 0.593810 0.493810 -0.622951
O5    O     O_R   0.508760 0.390690 0.353590 -0.570241
O6    O     O_R   0.493760 0.578300 0.341170 -0.635784
O7    O     O_R   0.322300 0.406190 0.506190 -0.539018
O8    O     O_R   0.307290 0.593810 0.493770 -0.630461
Zn1   Zn    Zn3+2 0.510020 0.374730 0.508290 1.001966
Zn2   Zn    Zn3+2 0.489980 0.625270 0.491710 0.928198

loop_
_geom_bond_atom_site_label_1
_geom_bond_atom_site_label_2
_ccdc_geom_bond_type
C1    O1    A    
O2    Zn2   S    
C8    C13   A    
C20   I2    S    
C11   C13   A    
C2    C7    A    
C28   H16   S    
C12   C23   S    
C9    H2    S    
C25   H13   S    
C37   C40   A    
C26   H10   S    
C38   C39   A    
C4    C24   S    
C15   H38   S    
C5    C36   A    
O6    Zn2   S    
C5    H34   S    
C33   H35   S    
C10   N2    A    
C31   C32   S    
C3    C38   A    
C8    C9    A    
C30   H20   S    
C29   C38   S    
C8    H39   S    
C26   H8    S    
C25   C34   S    
C15   N1    A    
C1    O2    A    
C23   H23   S    
C29   H24   S    
C35   H31   S    
O7    Zn1   S    
C13   C14   A    
C28   H15   S    
C4    O4    A    
C31   H28   S    
C22   C34   S    
C7    C31   S    
C23   I4    S    
C35   H30   S    
C19   C33   S    
C26   H9    S    
C28   H14   S    
C25   C26   S    
C17   H40   S    
O1    Zn1   S    
O3    Zn1   S    
C25   H11   S    
C29   C30   S    
C9    N2    A    
C21   H4    S    
C6    C27   S    
C30   H19   S    
C12   C20   S    
C39   H36   S    
O8    Zn2   S    
N2    Zn2   S    
C32   H27   S    
C33   H33   S    
C22   H6    S    
C35   H32   S    
C16   O6    A    
C21   C23   S    
C27   H17   S    
C18   O8    A    
C22   C24   S    
C30   H21   S    
C21   C24   S    
C12   C34   S    
C32   H26   S    
C4    O3    A    
C15   C17   A    
C29   H22   S    
C11   C17   A    
C10   H3    S    
C14   N1    A    
C3    C5    A    
C27   H18   S    
O4    Zn2   S    
C6    C7    A    
C1    C37   S    
C19   C20   S    
C2    C3    A    
C37   C39   A    
C16   C36   S    
N1    Zn1   S    
C33   C35   S    
C6    C36   A    
C19   C24   S    
C10   C11   A    
O5    Zn1   S    
C2    C40   A    
C31   H29   S    
C22   H5    S    
C16   O5    A    
C20   I3    S    
C12   C18   S    
C27   C28   S    
C18   O7    A    
C40   H37   S    
C34   H7    S    
C14   I1    S    
C21   H12   S    
C19   H1    S    
C32   H25   S    
