data_mof_unit_36742.cif
_audit_creation_date              2013-03-05T16:15:22-0500
_audit_creation_method            fapswitch 2.2
_symmetry_space_group_name_H-M    P1
_symmetry_Int_Tables_number       1
_space_group_crystal_system       triclinic
_cell_length_a                    27.749154
_cell_length_b                    10.620724
_cell_length_c                    9.406427
_cell_angle_alpha                 89.888974
_cell_angle_beta                  90.283784
_cell_angle_gamma                 89.730648
_cell_volume                      2772.15556811

loop_
_atom_site_label
_atom_site_type_symbol
_atom_site_description
_atom_site_fract_x
_atom_site_fract_y
_atom_site_fract_z
_atom_type_partial_charge
O1    O     O_R   0.500020 0.316850 0.620870 -0.595044
O2    O     O_R   0.499980 0.683150 0.379130 -0.595406
O3    O     O_R   0.500000 0.316860 0.379090 -0.566731
O4    O     O_R   0.500000 0.683140 0.620910 -0.566831
C1    C     C_R   0.500119 0.259482 0.500226 0.830755
C2    C     C_R   0.499913 0.740517 0.499769 0.830432
O5    O     O_R   0.430270 0.500020 0.620880 -0.558767
O6    O     O_R   0.569730 0.499980 0.379120 -0.558773
O7    O     O_R   0.430250 0.500030 0.379090 -0.589101
O8    O     O_R   0.569750 0.499970 0.620910 -0.589746
C3    C     C_R   0.407788 0.497677 0.499700 0.823751
C4    C     C_R   0.592217 0.502621 0.500299 0.823697
Cu1   Cu    Cu3+1 0.500010 0.499990 0.643150 0.960161
Cu2   Cu    Cu3+1 0.499990 0.500010 0.356850 0.960106
C5    C     C_R   0.177995 0.475614 0.371938 0.537792
C6    C     C_R   0.822021 0.531820 0.626091 0.538317
O9    O     O_2   0.202431 0.457413 0.249919 -0.521894
O10   O     O_2   0.797574 0.558069 0.746230 -0.523738
N1    N     N_R   0.202617 0.490188 0.497019 -0.466057
N2    N     N_R   0.797407 0.509093 0.502616 -0.465929
C7    C     C_R   0.179009 0.509493 0.622435 0.542029
C8    C     C_R   0.821005 0.481599 0.379156 0.541918
C9    C     C_R   0.279230 0.591373 0.447379 -0.127344
C10   C     C_R   0.720730 0.410890 0.558361 -0.128025
C11   C     C_R   0.329206 0.592656 0.447616 -0.232404
C12   C     C_R   0.670755 0.409942 0.558309 -0.232100
C13   C     C_R   0.331004 0.380135 0.547601 0.107486
C14   C     C_R   0.669122 0.617725 0.446253 0.108269
C15   C     C_R   0.279870 0.378383 0.545225 0.198877
C16   C     C_R   0.720265 0.618934 0.447759 0.198197
C17   C     C_R   0.254330 0.486008 0.496542 0.316896
C18   C     C_R   0.745705 0.513556 0.502746 0.318004
C19   C     C_R   0.102206 0.496138 0.498339 -0.044514
C20   C     C_R   0.897808 0.502958 0.501719 -0.043756
C21   C     C_R   0.127406 0.478728 0.370178 -0.022353
C22   C     C_R   0.872609 0.528635 0.628104 -0.022786
C23   C     C_R   0.101745 0.465005 0.243258 -0.143658
C24   C     C_R   0.898273 0.551475 0.753272 -0.145222
C25   C     C_R   0.128438 0.511708 0.625627 -0.026896
C26   C     C_R   0.871577 0.479216 0.376088 -0.027366
C27   C     C_R   0.355269 0.489217 0.499008 -0.053928
C28   C     C_R   0.644758 0.511067 0.500979 -0.054194
H1    H     H_    0.120275 0.453285 0.142967 0.184794
H2    H     H_    0.879749 0.572130 0.851741 0.187429
C29   C     C_R   0.973859 0.478206 0.371495 0.043978
C30   C     C_R   0.026153 0.517184 0.629426 0.044661
C31   C     C_R   0.974912 0.522234 0.629604 0.044047
C32   C     C_R   0.025102 0.480411 0.369859 0.044538
C33   C     C_R   0.949083 0.501086 0.500950 0.068958
C34   C     C_R   0.050930 0.497950 0.499210 0.068197
C35   C     C_R   0.946228 0.453000 0.247806 -0.207106
C36   C     C_R   0.053789 0.530311 0.755550 -0.204539
C37   C     C_R   0.896210 0.453622 0.250390 -0.144073
C38   C     C_R   0.103805 0.528084 0.753257 -0.142815
O11   O     O_2   0.795544 0.457380 0.259741 -0.515075
O12   O     O_2   0.204461 0.525889 0.743594 -0.513939
C39   C     C_R   0.051715 0.466313 0.242673 -0.205045
C40   C     C_R   0.948297 0.548430 0.754359 -0.207288
H3    H     H_    0.652175 0.328788 0.601040 0.175537
H4    H     H_    0.347731 0.675731 0.409653 0.177003
H5    H     H_    0.740355 0.330844 0.601100 0.162004
H6    H     H_    0.259547 0.673192 0.409470 0.162334
H7    H     H_    0.876872 0.434055 0.152571 0.188700
H8    H     H_    0.123140 0.538761 0.852859 0.186365
H9    H     H_    0.961954 0.430499 0.146603 0.136232
H10   H     H_    0.038082 0.541059 0.859170 0.131112
H11   H     H_    0.035160 0.457467 0.139530 0.130795
H12   H     H_    0.964837 0.568990 0.855312 0.135584
C41   C     C_3   0.498668 0.040634 0.635624 -0.194812
C42   C     C_3   0.501379 0.959362 0.364349 -0.195149
C43   C     C_3   0.538973 0.956938 0.571556 -0.240139
C44   C     C_3   0.461074 0.043057 0.428412 -0.240239
H13   H     H_    0.570959 0.918929 0.628897 0.164894
H14   H     H_    0.429097 0.081046 0.371017 0.164326
H15   H     H_    0.497199 0.076014 0.746524 0.167768
H16   H     H_    0.502849 0.923980 0.253450 0.167762
C45   C     C_3   0.499974 0.877249 0.499037 -0.075660
C46   C     C_3   0.500071 0.122749 0.500939 -0.075562
C47   C     C_3   0.460085 0.959119 0.562289 0.303284
C48   C     C_3   0.539960 0.040884 0.437682 0.302896
C49   C     C_3   0.528430 0.585802 0.050923 -0.040232
C50   C     C_3   0.471571 0.414198 0.949079 -0.040054
C51   C     C_3   0.485688 0.607599 0.949005 -0.030366
C52   C     C_3   0.514313 0.392402 0.050996 -0.030461
H17   H     H_    0.473512 0.698142 0.901484 0.155830
H18   H     H_    0.526489 0.301859 0.098518 0.155782
H19   H     H_    0.552335 0.657879 0.098947 0.129055
H20   H     H_    0.447670 0.342112 0.901058 0.129643
N3    N     N_3   0.500040 0.499970 0.858290 -0.164277
N4    N     N_3   0.499960 0.500030 0.141710 -0.164259
C53   C     C_3   0.542788 0.478178 0.950342 -0.026649
C54   C     C_3   0.457213 0.521822 0.049658 -0.026353
H21   H     H_    0.578845 0.459482 0.904167 0.139911
H22   H     H_    0.421155 0.540517 0.095832 0.140563
C55   C     C_3   0.358673 0.264807 0.598460 -0.810395
H23   H     H_    0.349269 0.182374 0.531714 0.246559
H24   H     H_    0.398255 0.275026 0.592637 0.218520
H25   H     H_    0.349509 0.244396 0.710862 0.251978
C56   C     C_3   0.641573 0.731324 0.390054 -0.810845
H26   H     H_    0.651731 0.816512 0.451183 0.248829
H27   H     H_    0.650078 0.746122 0.276083 0.249657
H28   H     H_    0.602003 0.722784 0.399038 0.219859
Br1   Br    Br    0.402107 0.897264 0.651888 -0.565061
Br2   Br    Br    0.597930 0.102807 0.348098 -0.562483
C57   C     C_3   0.253093 0.261742 0.592506 -0.771406
H29   H     H_    0.261143 0.242007 0.706102 0.247681
H30   H     H_    0.213478 0.270375 0.580862 0.226900
H31   H     H_    0.264280 0.179881 0.527177 0.231308
C58   C     C_3   0.747169 0.732705 0.392805 -0.771521
H32   H     H_    0.738615 0.747577 0.278592 0.247225
H33   H     H_    0.736568 0.817624 0.453890 0.232137
H34   H     H_    0.786812 0.723624 0.403079 0.227044

loop_
_geom_bond_atom_site_label_1
_geom_bond_atom_site_label_2
_geom_bond_distance
_ccdc_geom_bond_type
C10   H5    1.083093 S    
C13   C15   1.419203 A    
C13   C55   1.517867 S    
C55   H23   1.109700 S    
N1    C17   1.435499 S    
C55   H25   1.109885 S    
C32   C39   1.416856 A    
C31   C33   1.422192 A    
C5    N1    1.367039 A    
C51   C54   1.536734 S    
C57   H30   1.107557 S    
C19   C25   1.408556 A    
C50   N3    1.481114 S    
C48   Br2   1.936887 S    
O1    C1    1.289091 A    
N1    C7    1.367565 A    
C52   H18   1.110176 S    
C44   C47   1.541940 S    
C58   H33   1.109637 S    
C46   C48   1.527973 S    
C25   C38   1.395203 A    
C29   C35   1.416881 A    
C30   C36   1.416918 A    
C50   C54   1.537541 S    
C35   H9    1.075994 S    
C14   C28   1.419034 A    
O4    Cu1   1.955998 S    
C41   C43   1.550367 S    
Cu2   N4    2.023695 S    
C4    C28   1.461115 S    
C24   C40   1.388327 A    
C9    H6    1.083061 S    
C44   C46   1.535028 S    
C41   H15   1.110346 S    
C52   C53   1.536731 S    
N3    C53   1.482200 S    
C12   H3    1.084051 S    
O6    C4    1.297186 A    
C32   C34   1.422075 A    
Cu1   Cu2   2.693056 S    
C42   C45   1.537447 S    
C47   Br1   1.936876 S    
C41   C46   1.537423 S    
O2    C2    1.289050 A    
C52   N4    1.481974 S    
C39   H11   1.075869 S    
C5    C21   1.404068 A    
C43   C48   1.541956 S    
C49   C51   1.537763 S    
C36   C38   1.388273 A    
C45   C47   1.527970 S    
C51   N3    1.481979 S    
C57   H31   1.109632 S    
C16   C58   1.514759 S    
C42   C48   1.541212 S    
C15   C57   1.514716 S    
C44   H14   1.110264 S    
C58   H34   1.107553 S    
C11   C27   1.396666 A    
C43   H13   1.110282 S    
C2    C45   1.452204 S    
C19   C34   1.422981 A    
C35   C37   1.388273 A    
C9    C17   1.397138 A    
C23   H1    1.083749 S    
O5    C3    1.297043 A    
O7    Cu2   1.947529 S    
C10   C18   1.396926 A    
C24   H2    1.083844 S    
C53   H21   1.109939 S    
C13   C27   1.418732 A    
N4    C54   1.482186 S    
C56   H26   1.109722 S    
C7    C25   1.403868 A    
C29   C33   1.422107 A    
C6    N2    1.366945 A    
C8    C26   1.403861 A    
C54   H22   1.109933 S    
O7    C3    1.297407 A    
C49   H19   1.110505 S    
O3    Cu2   1.955997 S    
O8    C4    1.297563 A    
C49   N4    1.481120 S    
C14   C56   1.518013 S    
O4    C2    1.291156 A    
C51   H17   1.110176 S    
N2    C8    1.367404 A    
C50   C52   1.537757 S    
C42   H16   1.110346 S    
C20   C26   1.408652 A    
C41   C47   1.541209 S    
O1    Cu1   1.956741 S    
C43   C45   1.535032 S    
C36   H10   1.075734 S    
C12   C28   1.396910 A    
N2    C18   1.435237 S    
C29   C32   1.422403 A    
C40   H12   1.075877 S    
C5    O9    1.349758 S    
C30   C31   1.422668 A    
C20   C33   1.422943 A    
O6    Cu2   1.945497 S    
Cu1   N3    2.023695 S    
C10   C12   1.386851 A    
O3    C1    1.291120 A    
O8    Cu1   1.947529 S    
C7    O12   1.349791 S    
C55   H24   1.105832 S    
C8    O11   1.349839 S    
C57   H29   1.109912 S    
C30   C34   1.422238 A    
C22   C24   1.395240 A    
C21   C23   1.395281 A    
C15   C17   1.416227 A    
C58   H32   1.109941 S    
C6    C22   1.404061 A    
C31   C40   1.416988 A    
C16   C18   1.416057 A    
C37   H7    1.083823 S    
C38   H8    1.083741 S    
C50   H20   1.110492 S    
C14   C16   1.419280 A    
C19   C21   1.408717 A    
C3    C27   1.460549 S    
C20   C22   1.408667 A    
C9    C11   1.386900 A    
O2    Cu2   1.956740 S    
C49   C53   1.537546 S    
O5    Cu1   1.945497 S    
C56   H28   1.105855 S    
C6    O10   1.349824 S    
C26   C37   1.395217 A    
C11   H4    1.084033 S    
C42   C44   1.550339 S    
C1    C46   1.452217 S    
C56   H27   1.109915 S    
C23   C39   1.388286 A    
