data_mof_unit_65922.cif
_audit_creation_date              2012-12-10T18:49:52-0500
_audit_creation_method            fapswitch 2.2
_symmetry_space_group_name_H-M    P1
_symmetry_Int_Tables_number       1
_space_group_crystal_system       monoclinic
_cell_length_a                    25.487831
_cell_length_b                    25.49481
_cell_length_c                    43.056127
_cell_angle_alpha                 90.0
_cell_angle_beta                  90.0
_cell_angle_gamma                 90.000029
_cell_volume                      27978.1903127

loop_
_atom_site_label
_atom_site_type_symbol
_atom_type_description
_atom_site_fract_x
_atom_site_fract_y
_atom_site_fract_z
_atom_type_partial_charge
C1    C     C_R   0.000000 0.500000 0.334395 0.846612
C2    C     C_R   0.000000 0.500000 0.665605 0.846611
C3    C     C_R   0.500000 1.000000 0.834395 0.846611
C4    C     C_R   0.500000 1.000000 0.165605 0.846612
C5    C     C_R   0.047506 0.500000 0.114882 -0.186135
C6    C     C_R   0.952494 0.500000 0.885118 -0.186130
C7    C     C_R   0.952494 0.500000 0.114882 -0.186140
C8    C     C_R   0.047506 0.500000 0.885118 -0.186125
C9    C     C_R   0.547506 1.000000 0.614882 -0.186130
C10   C     C_R   0.452494 1.000000 0.385118 -0.186135
C11   C     C_R   0.452494 1.000000 0.614882 -0.186125
C12   C     C_R   0.547506 1.000000 0.385118 -0.186140
C13   C     C_R   0.047515 0.500000 0.082471 -0.159696
C14   C     C_R   0.952485 0.500000 0.917529 -0.159694
C15   C     C_R   0.952485 0.500000 0.082471 -0.159699
C16   C     C_R   0.047515 0.500000 0.917529 -0.159693
C17   C     C_R   0.547515 1.000000 0.582471 -0.159694
C18   C     C_R   0.452485 1.000000 0.417529 -0.159696
C19   C     C_R   0.452485 1.000000 0.582471 -0.159693
C20   C     C_R   0.547515 1.000000 0.417529 -0.159699
C21   C     C_R   0.000000 0.500000 0.065898 0.079551
C22   C     C_R   1.000000 0.500000 0.934102 0.079544
C23   C     C_R   0.500000 1.000000 0.565898 0.079544
C24   C     C_R   0.500000 1.000000 0.434101 0.079551
C25   C     C_R   0.000000 0.500000 0.131395 -0.009843
C26   C     C_R   0.000000 0.500000 0.868605 -0.009853
C27   C     C_R   0.500000 1.000000 0.631395 -0.009853
C28   C     C_R   0.500000 1.000000 0.368605 -0.009843
C29   C     C_R   0.500000 1.000000 0.468443 0.291156
C30   C     C_R   0.500000 1.000000 0.531557 0.291158
C31   C     C_R   0.000000 0.500000 0.968443 0.291158
C32   C     C_R   0.000000 0.500000 0.031557 0.291156
C33   C     C_R   0.999907 0.547443 0.385206 -0.224536
C34   C     C_R   0.000093 0.452557 0.614794 -0.224557
C35   C     C_R   0.000093 0.452557 0.385206 -0.224537
C36   C     C_R   0.999907 0.547443 0.614794 -0.224538
C37   C     C_R   0.499908 0.047443 0.885206 -0.224557
C38   C     C_R   0.500092 0.952557 0.114794 -0.224536
C39   C     C_R   0.500092 0.952557 0.885206 -0.224538
C40   C     C_R   0.499908 0.047443 0.114794 -0.224537
C41   C     C_R   0.999908 0.547751 0.417662 0.370003
C42   C     C_R   0.000092 0.452249 0.582338 0.370001
C43   C     C_R   0.000092 0.452249 0.417662 0.370003
C44   C     C_R   0.999908 0.547750 0.582338 0.370001
C45   C     C_R   0.499909 0.047750 0.917662 0.370002
C46   C     C_R   0.500090 0.952249 0.082337 0.370003
C47   C     C_R   0.500090 0.952250 0.917662 0.370001
C48   C     C_R   0.499910 0.047751 0.082337 0.370003
C49   C     C_R   0.000000 0.500000 0.434263 -0.121349
C50   C     C_R   0.000000 0.500000 0.565737 -0.121341
C51   C     C_R   0.500000 1.000000 0.934263 -0.121341
C52   C     C_R   0.500000 1.000000 0.065737 -0.121349
C53   C     C_R   0.000000 0.500000 0.368706 -0.145277
C54   C     C_R   1.000000 0.500000 0.631294 -0.145266
C55   C     C_R   0.500000 1.000000 0.868706 -0.145266
C56   C     C_R   0.500000 1.000000 0.131294 -0.145276
C57   C     C_R   0.500000 1.000000 0.031485 0.393401
C58   C     C_R   0.500000 1.000000 0.968515 0.393401
C59   C     C_R   0.000000 0.500000 0.531485 0.393400
C60   C     C_R   0.000000 0.500000 0.468515 0.393400
C61   C     C_R   0.000000 0.500000 0.165653 0.789323
C62   C     C_R   0.000000 0.500000 0.834347 0.789325
C63   C     C_R   0.500000 1.000000 0.665653 0.789325
C64   C     C_R   0.500000 0.000000 0.334347 0.789323
C65   C     C_R   0.099910 0.400143 0.250009 0.827973
C66   C     C_R   0.900090 0.599857 0.749991 0.827974
C67   C     C_R   0.900090 0.599857 0.250009 0.827973
C68   C     C_R   0.099910 0.400143 0.749991 0.827974
C69   C     C_R   0.099910 0.599857 0.749991 0.827959
C70   C     C_R   0.900090 0.400143 0.250009 0.827957
C71   C     C_R   0.900090 0.400143 0.749991 0.827958
C72   C     C_R   0.099910 0.599857 0.250009 0.827958
C73   C     C_R   0.599910 0.900143 0.750009 0.827974
C74   C     C_R   0.400090 0.099857 0.249991 0.827973
C75   C     C_R   0.400090 0.099857 0.750009 0.827974
C76   C     C_R   0.599910 0.900143 0.249991 0.827973
C77   C     C_R   0.599910 0.099857 0.249991 0.827957
C78   C     C_R   0.400090 0.900143 0.750009 0.827959
C79   C     C_R   0.400090 0.900143 0.249991 0.827958
C80   C     C_R   0.599910 0.099857 0.750009 0.827957
C81   C     C_3   0.228102 0.796560 0.243287 -0.160678
C82   C     C_3   0.771989 0.203348 0.756377 -0.160650
C83   C     C_3   0.771824 0.203513 0.243029 -0.160693
C84   C     C_3   0.228241 0.796421 0.757192 -0.160714
C85   C     C_3   0.227724 0.203063 0.755181 -0.160556
C86   C     C_3   0.771570 0.796233 0.242210 -0.160764
C87   C     C_3   0.771955 0.796617 0.756505 -0.160674
C88   C     C_3   0.228285 0.203622 0.242665 -0.160735
C89   C     C_3   0.728010 0.296651 0.743623 -0.160650
C90   C     C_3   0.271898 0.703440 0.256713 -0.160678
C91   C     C_3   0.271758 0.703579 0.742808 -0.160714
C92   C     C_3   0.728176 0.296487 0.256970 -0.160693
C93   C     C_3   0.728430 0.703767 0.257790 -0.160764
C94   C     C_3   0.272276 0.296937 0.744819 -0.160556
C95   C     C_3   0.271715 0.296378 0.257335 -0.160735
C96   C     C_3   0.728045 0.703383 0.743495 -0.160674
C97   C     C_3   0.227481 0.747792 0.221826 -0.158720
C98   C     C_3   0.772913 0.251815 0.778072 -0.158800
C99   C     C_3   0.772216 0.252511 0.221751 -0.158666
C100  C     C_3   0.228046 0.747227 0.778312 -0.158615
C101  C     C_3   0.225705 0.250437 0.777682 -0.159030
C102  C     C_3   0.771240 0.746515 0.221525 -0.158450
C103  C     C_3   0.772763 0.748035 0.778111 -0.158735
C104  C     C_3   0.228216 0.252942 0.221648 -0.158552
C105  C     C_3   0.727087 0.248185 0.721928 -0.158800
C106  C     C_3   0.272519 0.752208 0.278174 -0.158720
C107  C     C_3   0.271954 0.752772 0.721688 -0.158615
C108  C     C_3   0.727784 0.247489 0.278249 -0.158667
C109  C     C_3   0.728759 0.753485 0.278475 -0.158450
C110  C     C_3   0.274295 0.249563 0.722318 -0.159030
C111  C     C_3   0.271784 0.247058 0.278352 -0.158552
C112  C     C_3   0.727237 0.751965 0.721889 -0.158735
C113  C     C_1   0.139650 0.639553 0.249992 -0.136788
C114  C     C_1   0.860350 0.360447 0.750008 -0.136784
C115  C     C_1   0.860350 0.360447 0.249992 -0.136786
C116  C     C_1   0.139650 0.639553 0.750008 -0.136789
C117  C     C_1   0.139650 0.360447 0.750008 -0.136728
C118  C     C_1   0.860350 0.639553 0.249992 -0.136728
C119  C     C_1   0.860350 0.639553 0.750008 -0.136731
C120  C     C_1   0.139650 0.360447 0.249992 -0.136729
C121  C     C_1   0.639650 0.139553 0.749992 -0.136784
C122  C     C_1   0.360350 0.860447 0.250008 -0.136788
C123  C     C_1   0.360350 0.860447 0.749992 -0.136788
C124  C     C_1   0.639650 0.139553 0.250008 -0.136786
C125  C     C_1   0.639650 0.860447 0.250008 -0.136728
C126  C     C_1   0.360350 0.139553 0.749992 -0.136728
C127  C     C_1   0.360350 0.139553 0.250008 -0.136729
C128  C     C_1   0.639650 0.860447 0.749992 -0.136731
C129  C     C_3   0.213561 0.761654 0.271452 -0.154307
C130  C     C_3   0.786137 0.238647 0.728313 -0.154261
C131  C     C_3   0.786669 0.238116 0.271270 -0.154337
C132  C     C_3   0.213135 0.762080 0.728888 -0.154364
C133  C     C_3   0.214957 0.239740 0.727507 -0.154088
C134  C     C_3   0.787390 0.762604 0.270677 -0.154387
C135  C     C_3   0.786253 0.761468 0.728402 -0.154229
C136  C     C_3   0.213008 0.237794 0.271009 -0.154329
C137  C     C_3   0.713863 0.261353 0.771687 -0.154261
C138  C     C_3   0.286439 0.738345 0.228547 -0.154307
C139  C     C_3   0.286865 0.737920 0.771112 -0.154364
C140  C     C_3   0.713331 0.261884 0.228730 -0.154337
C141  C     C_3   0.712610 0.737396 0.229323 -0.154387
C142  C     C_3   0.285042 0.260260 0.772493 -0.154088
C143  C     C_3   0.286991 0.262206 0.228991 -0.154329
C144  C     C_3   0.713747 0.738531 0.771598 -0.154229
C145  C     C_3   0.213580 0.713527 0.249992 0.192065
C146  C     C_3   0.786420 0.286473 0.750008 0.192065
C147  C     C_3   0.786420 0.286473 0.249992 0.192063
C148  C     C_3   0.213580 0.713527 0.750008 0.192062
C149  C     C_3   0.213580 0.286473 0.750008 0.192024
C150  C     C_3   0.786420 0.713527 0.249992 0.192003
C151  C     C_3   0.786420 0.713527 0.750008 0.192015
C152  C     C_3   0.213580 0.286473 0.249992 0.192008
C153  C     C_3   0.713580 0.213527 0.749992 0.192065
C154  C     C_3   0.286420 0.786473 0.250008 0.192065
C155  C     C_3   0.286420 0.786473 0.749992 0.192062
C156  C     C_3   0.713580 0.213527 0.250008 0.192063
C157  C     C_3   0.713580 0.786473 0.250008 0.192003
C158  C     C_3   0.286420 0.213527 0.749992 0.192024
C159  C     C_3   0.286420 0.213527 0.250008 0.192008
C160  C     C_3   0.713580 0.786473 0.749992 0.192015
C161  C     C_1   0.173034 0.672940 0.249988 -0.072431
C162  C     C_1   0.826966 0.327060 0.750013 -0.072428
C163  C     C_1   0.826966 0.327060 0.249988 -0.072428
C164  C     C_1   0.173034 0.672940 0.750012 -0.072430
C165  C     C_1   0.173034 0.327060 0.750013 -0.072361
C166  C     C_1   0.826966 0.672940 0.249988 -0.072353
C167  C     C_1   0.826966 0.672940 0.750012 -0.072360
C168  C     C_1   0.173034 0.327060 0.249988 -0.072356
C169  C     C_1   0.673034 0.172940 0.749987 -0.072428
C170  C     C_1   0.326966 0.827060 0.250012 -0.072431
C171  C     C_1   0.326966 0.827060 0.749988 -0.072430
C172  C     C_1   0.673034 0.172940 0.250012 -0.072428
C173  C     C_1   0.673034 0.827060 0.250012 -0.072353
C174  C     C_1   0.326966 0.172940 0.749987 -0.072361
C175  C     C_1   0.326966 0.172940 0.250012 -0.072356
C176  C     C_1   0.673034 0.827060 0.749988 -0.072360
H1    H     H_    0.208484 0.745488 0.198666 0.142279
H2    H     H_    0.792234 0.253795 0.801149 0.142240
H3    H     H_    0.790962 0.255063 0.198528 0.142309
H4    H     H_    0.209514 0.744460 0.801587 0.142334
H5    H     H_    0.205249 0.251283 0.800438 0.142145
H6    H     H_    0.789186 0.743163 0.198117 0.142445
H7    H     H_    0.791959 0.745931 0.801221 0.142297
H8    H     H_    0.209824 0.255849 0.198340 0.142392
H9    H     H_    0.707766 0.246205 0.698851 0.142240
H10   H     H_    0.291516 0.754512 0.301334 0.142279
H11   H     H_    0.290486 0.755540 0.698413 0.142334
H12   H     H_    0.709038 0.244936 0.301472 0.142309
H13   H     H_    0.710814 0.756837 0.301883 0.142445
H14   H     H_    0.294750 0.248717 0.699562 0.142145
H15   H     H_    0.290176 0.244151 0.301660 0.142392
H16   H     H_    0.708040 0.754069 0.698779 0.142297
H17   H     H_    0.210587 0.835322 0.237770 0.140955
H18   H     H_    0.789581 0.164512 0.761618 0.140963
H19   H     H_    0.789279 0.164812 0.237300 0.140951
H20   H     H_    0.210840 0.835069 0.763103 0.140945
H21   H     H_    0.209897 0.163991 0.759439 0.141019
H22   H     H_    0.788816 0.834727 0.235807 0.140964
H23   H     H_    0.789518 0.835426 0.761852 0.140981
H24   H     H_    0.210920 0.165010 0.236636 0.140968
H25   H     H_    0.710419 0.335488 0.738382 0.140963
H26   H     H_    0.289413 0.664678 0.262230 0.140955
H27   H     H_    0.289160 0.664931 0.736897 0.140945
H28   H     H_    0.710721 0.335188 0.262700 0.140951
H29   H     H_    0.711184 0.665273 0.264193 0.140964
H30   H     H_    0.290103 0.336009 0.740561 0.141019
H31   H     H_    0.289080 0.334989 0.263363 0.140968
H32   H     H_    0.710482 0.664574 0.738148 0.140981
H33   H     H_    0.316881 0.729252 0.210912 0.145361
H34   H     H_    0.683670 0.270198 0.789515 0.145410
H35   H     H_    0.682700 0.271166 0.211244 0.145332
H36   H     H_    0.317657 0.728477 0.788468 0.145304
H37   H     H_    0.314336 0.268206 0.790983 0.145616
H38   H     H_    0.681386 0.727522 0.212325 0.145292
H39   H     H_    0.683458 0.729591 0.789353 0.145457
H40   H     H_    0.317887 0.271752 0.211720 0.145352
H41   H     H_    0.816330 0.229802 0.710484 0.145410
H42   H     H_    0.183119 0.770748 0.289088 0.145361
H43   H     H_    0.182343 0.771523 0.711532 0.145304
H44   H     H_    0.817300 0.228834 0.288756 0.145332
H45   H     H_    0.818614 0.772478 0.287675 0.145292
H46   H     H_    0.185664 0.231793 0.709017 0.145616
H47   H     H_    0.182113 0.228248 0.288280 0.145352
H48   H     H_    0.816541 0.770409 0.710647 0.145457
H49   H     H_    0.084746 0.500000 0.126995 0.164298
H50   H     H_    0.915254 0.500000 0.873005 0.164303
H51   H     H_    0.915254 0.500000 0.126995 0.164294
H52   H     H_    0.084746 0.500000 0.873005 0.164305
H53   H     H_    0.584746 1.000000 0.626995 0.164303
H54   H     H_    0.415254 1.000000 0.373005 0.164298
H55   H     H_    0.415254 1.000000 0.626995 0.164305
H56   H     H_    0.584746 1.000000 0.373005 0.164294
H57   H     H_    0.084821 0.500000 0.070443 0.154988
H58   H     H_    0.915179 0.500000 0.929557 0.154990
H59   H     H_    0.915179 0.500000 0.070443 0.154986
H60   H     H_    0.084821 0.500000 0.929557 0.154992
H61   H     H_    0.584821 1.000000 0.570443 0.154990
H62   H     H_    0.415179 1.000000 0.429557 0.154988
H63   H     H_    0.415179 1.000000 0.570443 0.154992
H64   H     H_    0.584821 1.000000 0.429557 0.154986
H65   H     H_    0.999536 0.584502 0.372901 0.204037
H66   H     H_    0.000465 0.415498 0.627100 0.204024
H67   H     H_    0.000464 0.415498 0.372900 0.204036
H68   H     H_    0.999535 0.584502 0.627099 0.204032
H69   H     H_    0.499538 0.084502 0.872900 0.204024
H70   H     H_    0.500461 0.915498 0.127099 0.204037
H71   H     H_    0.500462 0.915498 0.872900 0.204032
H72   H     H_    0.499538 0.084502 0.127100 0.204036
N1    N     N_R   0.954196 0.500000 0.015455 -0.173018
N2    N     N_R   0.045804 0.500000 0.984545 -0.173016
N3    N     N_R   0.045804 0.500000 0.015455 -0.173017
N4    N     N_R   0.954196 0.500000 0.984545 -0.173017
N5    N     N_R   0.454196 1.000000 0.515455 -0.173016
N6    N     N_R   0.545804 1.000000 0.484545 -0.173018
N7    N     N_R   0.545804 1.000000 0.515455 -0.173017
N8    N     N_R   0.454196 1.000000 0.484545 -0.173017
N9    N     N_R   0.964233 0.471312 0.484539 -0.095661
N10   N     N_R   0.035767 0.528688 0.515461 -0.095661
N11   N     N_R   0.035767 0.528688 0.484539 -0.095661
N12   N     N_R   0.964233 0.471312 0.515461 -0.095660
N13   N     N_R   0.464232 0.971314 0.984539 -0.095661
N14   N     N_R   0.535768 0.028686 0.015461 -0.095662
N15   N     N_R   0.535768 0.028686 0.984539 -0.095661
N16   N     N_R   0.464232 0.971314 0.015461 -0.095662
O1    O     O_3   0.000000 0.500000 0.250010 -0.481558
O2    O     O_3   0.000000 0.500000 0.749990 -0.481558
O3    O     O_3   0.500000 1.000000 0.750010 -0.481557
O4    O     O_3   0.500000 1.000000 0.249990 -0.481558
O5    O     O_R   0.000000 0.543070 0.319340 -0.641795
O6    O     O_R   0.000000 0.456930 0.680660 -0.641805
O7    O     O_R   0.000000 0.456930 0.319340 -0.641796
O8    O     O_R   1.000000 0.543070 0.680660 -0.641796
O9    O     O_R   0.500000 0.043070 0.819340 -0.641805
O10   O     O_R   0.500000 0.956930 0.180660 -0.641795
O11   O     O_R   0.500000 0.956930 0.819340 -0.641796
O12   O     O_R   0.500000 0.043070 0.180660 -0.641796
O13   O     O_R   0.043090 0.500000 0.180680 -0.644229
O14   O     O_R   0.956910 0.500000 0.819320 -0.644226
O15   O     O_R   0.956910 0.500000 0.180680 -0.644231
O16   O     O_R   0.043090 0.500000 0.819320 -0.644225
O17   O     O_R   0.543090 0.000000 0.680680 -0.644227
O18   O     O_R   0.456910 1.000000 0.319320 -0.644228
O19   O     O_R   0.456910 0.000000 0.680680 -0.644225
O20   O     O_R   0.543090 1.000000 0.319320 -0.644231
O21   O     O_R   0.060700 0.396230 0.268160 -0.633609
O22   O     O_R   0.939300 0.603770 0.731840 -0.633613
O23   O     O_R   0.939300 0.603770 0.268160 -0.633607
O24   O     O_R   0.060700 0.396230 0.731840 -0.633614
O25   O     O_R   0.060700 0.603770 0.731840 -0.633641
O26   O     O_R   0.939300 0.396230 0.268160 -0.633648
O27   O     O_R   0.939300 0.396230 0.731840 -0.633639
O28   O     O_R   0.060700 0.603770 0.268160 -0.633650
O29   O     O_R   0.560700 0.896230 0.768160 -0.633613
O30   O     O_R   0.439300 0.103770 0.231840 -0.633609
O31   O     O_R   0.439300 0.103770 0.768160 -0.633614
O32   O     O_R   0.560700 0.896230 0.231840 -0.633606
O33   O     O_R   0.560700 0.103770 0.231840 -0.633648
O34   O     O_R   0.439300 0.896230 0.768160 -0.633641
O35   O     O_R   0.439300 0.896230 0.231840 -0.633650
O36   O     O_R   0.560700 0.103770 0.768160 -0.633639
O37   O     O_R   0.896260 0.560630 0.231870 -0.637050
O38   O     O_R   0.103740 0.439370 0.768130 -0.637044
O39   O     O_R   0.103740 0.439370 0.231870 -0.637050
O40   O     O_R   0.896260 0.560630 0.768130 -0.637048
O41   O     O_R   0.896260 0.439370 0.768130 -0.637040
O42   O     O_R   0.103740 0.560630 0.231870 -0.637034
O43   O     O_R   0.103740 0.560630 0.768130 -0.637046
O44   O     O_R   0.896260 0.439370 0.231870 -0.637034
O45   O     O_R   0.396260 0.060630 0.731870 -0.637043
O46   O     O_R   0.603740 0.939370 0.268130 -0.637050
O47   O     O_R   0.603740 0.939370 0.731870 -0.637048
O48   O     O_R   0.396260 0.060630 0.268130 -0.637050
O49   O     O_R   0.396260 0.939370 0.268130 -0.637034
O50   O     O_R   0.603740 0.060630 0.731870 -0.637040
O51   O     O_R   0.603740 0.060630 0.268130 -0.637034
O52   O     O_R   0.396260 0.939370 0.731870 -0.637046
Zn1   Zn    Zn3+2 0.061600 0.500000 0.224030 0.976985
Zn2   Zn    Zn3+2 0.938400 0.500000 0.775970 0.976984
Zn3   Zn    Zn3+2 0.938400 0.500000 0.224030 0.976983
Zn4   Zn    Zn3+2 0.061600 0.500000 0.775970 0.976984
Zn5   Zn    Zn3+2 0.561600 1.000000 0.724030 0.976984
Zn6   Zn    Zn3+2 0.438400 1.000000 0.275970 0.976985
Zn7   Zn    Zn3+2 0.438400 1.000000 0.724030 0.976984
Zn8   Zn    Zn3+2 0.561600 1.000000 0.275970 0.976983
Zn9   Zn    Zn3+2 0.000000 0.438400 0.275970 0.986990
Zn10  Zn    Zn3+2 0.000000 0.561600 0.724030 0.986991
Zn11  Zn    Zn3+2 0.000000 0.561600 0.275970 0.986990
Zn12  Zn    Zn3+2 0.000000 0.438400 0.724030 0.986988
Zn13  Zn    Zn3+2 0.500000 0.938400 0.775970 0.986991
Zn14  Zn    Zn3+2 0.500000 0.061600 0.224030 0.986989
Zn15  Zn    Zn3+2 0.500000 0.061600 0.775970 0.986987
Zn16  Zn    Zn3+2 0.500000 0.938400 0.224030 0.986990
Cl1   Cl    Cl    0.997440 0.609007 0.436584 -0.543577
Cl2   Cl    Cl    0.002560 0.390993 0.563416 -0.543613
Cl3   Cl    Cl    0.002560 0.390993 0.436584 -0.543582
Cl4   Cl    Cl    0.997440 0.609007 0.563416 -0.543586
Cl5   Cl    Cl    0.497443 0.109007 0.936584 -0.543614
Cl6   Cl    Cl    0.502556 0.890993 0.063416 -0.543576
Cl7   Cl    Cl    0.502557 0.890993 0.936584 -0.543586
Cl8   Cl    Cl    0.497444 0.109007 0.063416 -0.543582

loop_
_geom_bond_atom_site_label_1
_geom_bond_atom_site_label_2
_ccdc_geom_bond_type
C69   C116  S    
C111  H15   S    
C58   N15   A    
C130  C146  S    
C8    C26   A    
C34   C42   A    
C49   C60   S    
C62   O16   A    
C103  H7    S    
C50   C59   S    
C77   O33   A    
O1    Zn9   S    
C96   H32   S    
C35   C53   A    
C37   H69   S    
C154  C170  S    
C65   O21   A    
C80   O50   A    
C108  C131  S    
C99   C147  S    
O47   Zn5   S    
C86   C134  S    
C122  C170  T    
C11   H55   S    
C102  C141  S    
C144  C160  S    
C15   H59   S    
C5    C13   A    
C126  C174  T    
C72   O42   A    
C138  C154  S    
C7    C15   A    
O16   Zn4   S    
C4    C56   S    
C92   C147  S    
C76   C125  S    
C82   C98   S    
C93   C150  S    
O2    Zn2   S    
C142  C158  S    
C41   C49   A    
C136  C152  S    
C80   C121  S    
C77   O51   A    
C57   N14   A    
C78   O52   A    
C102  H6    S    
C91   C107  S    
C74   O30   A    
C106  H10   S    
O3    Zn13  S    
C156  C172  S    
C69   O25   A    
C72   C113  S    
C110  H14   S    
O38   Zn4   S    
O18   Zn6   S    
C19   C23   A    
C83   C131  S    
C129  H42   S    
O14   Zn2   S    
C146  C162  S    
C81   C129  S    
C124  C172  T    
C11   C27   A    
C66   O40   A    
C12   C20   A    
C133  H46   S    
C30   N5    A    
C137  C153  S    
O25   Zn10  S    
C86   H22   S    
C87   C103  S    
O2    Zn10  S    
C141  C157  S    
O27   Zn12  S    
C34   C54   A    
C58   N13   A    
C59   N12   A    
C36   C44   A    
C85   C158  S    
C37   C45   A    
C119  C167  T    
C120  C168  T    
C39   C47   A    
C44   C50   A    
O35   Zn16  S    
C40   C48   A    
O29   Zn13  S    
O10   Zn16  S    
C112  C160  S    
C97   C145  S    
C108  H12   S    
O1    Zn11  S    
C142  H37   S    
C70   C115  S    
C73   C128  S    
C98   C146  S    
C137  H34   S    
C75   C126  S    
C104  C152  S    
C4    O10   A    
C77   C124  S    
C46   C52   A    
C145  C161  S    
C10   C18   A    
C151  C167  S    
C65   C120  S    
C5    H49   S    
C83   H19   S    
C67   C118  S    
C113  C161  T    
C96   C144  S    
C64   O18   A    
C48   C52   A    
C40   H72   S    
C95   C152  S    
C107  C155  S    
C140  H35   S    
C90   H26   S    
C105  C153  S    
C57   N16   A    
C35   H67   S    
C33   H65   S    
C94   H30   S    
C109  C157  S    
C8    H52   S    
C17   C23   A    
C7    H51   S    
C67   O37   A    
C18   C24   A    
C70   O26   A    
C42   Cl2   S    
C111  C136  S    
C1    O5    A    
C150  C166  S    
C10   H54   S    
C1    C53   S    
O33   Zn14  S    
C4    O12   A    
C3    C55   S    
C92   C108  S    
C59   N10   A    
C131  C147  S    
C98   H2    S    
C35   C43   A    
C115  C163  T    
C88   C104  S    
O3    Zn7   S    
O21   Zn9   S    
C45   Cl5   S    
C94   C142  S    
C66   O22   A    
C149  C165  S    
C85   C133  S    
C79   O35   A    
C106  C154  S    
C20   H64   S    
O4    Zn6   S    
C32   N1    A    
C84   C132  S    
O32   Zn16  S    
C131  H44   S    
O36   Zn15  S    
C100  C139  S    
C19   H63   S    
O51   Zn8   S    
C6    C14   A    
C101  C142  S    
C64   O20   A    
C48   Cl8   S    
C74   C127  S    
C139  C155  S    
C104  C143  S    
C78   C123  S    
C42   C50   A    
C76   O46   A    
C66   C119  S    
C41   Cl1   S    
O37   Zn3   S    
C100  H4    S    
C101  H5    S    
C13   H57   S    
C68   O38   A    
N1    N4    A    
O41   Zn2   S    
C61   O13   A    
C107  C132  S    
C92   H28   S    
C141  H38   S    
N13   N16   A    
O17   Zn5   S    
C3    O11   A    
N14   N15   A    
C1    O7    A    
C139  H36   S    
C2    O8    A    
N9    N12   A    
C14   C22   A    
N10   N11   A    
C72   O28   A    
C147  C163  S    
C6    C26   A    
C84   H20   S    
O48   Zn6   S    
C86   C157  S    
C123  C171  T    
C38   C46   A    
C36   C54   A    
C37   C55   A    
C78   O34   A    
C38   C56   A    
C8    C16   A    
C89   C105  S    
O3    Zn5   S    
C93   C109  S    
C86   C102  S    
C95   C143  S    
C89   H25   S    
C87   H23   S    
O49   Zn6   S    
C65   O39   A    
O4    Zn8   S    
C32   N3    A    
C11   C19   A    
C12   C28   A    
C90   C145  S    
C114  C162  T    
O46   Zn8   S    
C38   H70   S    
C111  C159  S    
C24   C29   S    
C75   O31   A    
C82   C153  S    
C39   C55   A    
C117  C165  T    
C40   C56   A    
O31   Zn15  S    
C81   H17   S    
C39   H71   S    
C110  C158  S    
O28   Zn11  S    
C103  C151  S    
O23   Zn11  S    
C93   H29   S    
C83   C99   S    
C127  C175  T    
C61   O15   A    
O7    Zn9   S    
C152  C168  S    
C3    O9    A    
C95   H31   S    
C2    O6    A    
C79   C122  S    
C128  C176  T    
C98   C137  S    
C36   H68   S    
C87   C135  S    
O11   Zn13  S    
C88   C136  S    
C2    C54   S    
C133  C149  S    
C158  C174  S    
C47   C51   A    
N2    N3    A    
C94   C110  S    
C71   C114  S    
C84   C100  S    
C60   N9    A    
C99   H3    S    
N6    N7    A    
N5    N8    A    
C97   H1    S    
C108  C156  S    
C51   C58   S    
C25   C61   S    
C29   N6    A    
O26   Zn9   S    
C90   C106  S    
C105  C130  S    
C27   C63   S    
C102  C150  S    
C91   C139  S    
C28   C64   S    
C85   H21   S    
C104  H8    S    
C89   C137  S    
C92   C140  S    
C93   C141  S    
C9    C27   A    
O30   Zn14  S    
C10   C28   A    
O34   Zn13  S    
C16   C22   A    
C109  C134  S    
O6    Zn12  S    
O43   Zn4   S    
O44   Zn3   S    
C143  C159  S    
C47   Cl7   S    
C7    C25   A    
C33   C41   A    
C88   H24   S    
C135  C151  S    
C6    H50   S    
C31   N4    A    
C73   O47   A    
C82   H18   S    
C74   O48   A    
C52   C57   S    
C153  C169  S    
C45   C51   A    
C95   C111  S    
C79   O49   A    
C91   H27   S    
C157  C173  S    
C143  H40   S    
C106  C129  S    
C121  C169  T    
O4    Zn14  S    
C34   H66   S    
C125  C173  T    
C103  C144  S    
C71   O41   A    
C63   O19   A    
O24   Zn12  S    
C94   C149  S    
C135  H48   S    
C96   C112  S    
O1    Zn1   S    
C60   N11   A    
C73   O29   A    
O20   Zn8   S    
C76   O32   A    
C84   C155  S    
C29   N8    A    
C112  H16   S    
C16   H60   S    
C134  C150  S    
C107  H11   S    
C87   C160  S    
C9    H53   S    
C88   C159  S    
C105  H9    S    
C67   O23   A    
C68   O24   A    
O40   Zn2   S    
C20   C24   A    
O52   Zn7   S    
C109  H13   S    
C82   C130  S    
O13   Zn1   S    
O15   Zn3   S    
C159  C175  S    
C160  C176  S    
C71   O27   A    
C91   C148  S    
O22   Zn10  S    
C12   H56   S    
C33   C53   A    
C89   C146  S    
C21   C32   S    
C22   C31   S    
C148  C164  S    
C13   C21   A    
C132  C148  S    
C23   C30   S    
O8    Zn10  S    
C43   C49   A    
C83   C156  S    
O5    Zn11  S    
C96   C151  S    
C118  C166  T    
C81   C154  S    
C31   N2    A    
C75   O45   A    
C90   C138  S    
C130  H41   S    
C155  C171  S    
C68   C117  S    
O50   Zn5   S    
C44   Cl4   S    
C134  H45   S    
O12   Zn14  S    
C69   O43   A    
C70   O44   A    
C9    C17   A    
C140  C156  S    
O4    Zn16  S    
C5    C25   A    
C99   C140  S    
C112  C135  S    
C97   C138  S    
C14   H58   S    
C85   C101  S    
C63   O17   A    
C46   Cl6   S    
C116  C164  T    
O2    Zn4   S    
O39   Zn1   S    
C144  H39   S    
C138  H33   S    
C132  H43   S    
C26   C62   S    
O3    Zn15  S    
C136  H47   S    
C81   C97   S    
C100  C148  S    
C101  C149  S    
O1    Zn3   S    
C129  C145  S    
O45   Zn7   S    
O19   Zn7   S    
C80   O36   A    
C18   H62   S    
C15   C21   A    
O9    Zn15  S    
O42   Zn1   S    
C30   N7    A    
C110  C133  S    
C62   O14   A    
C43   Cl3   S    
O2    Zn12  S    
C17   H61   S    
