data_mof_unit_63247.cif
_audit_creation_date              2012-10-26T19:17:29-0400
_audit_creation_method            fapswitch 2.2
_symmetry_space_group_name_H-M    P1
_symmetry_Int_Tables_number       1
_space_group_crystal_system       triclinic
_cell_length_a                    14.343865
_cell_length_b                    15.885846
_cell_length_c                    17.029001
_cell_angle_alpha                 96.529887
_cell_angle_beta                  92.613458
_cell_angle_gamma                 92.081269
_cell_volume                      3847.75241942

loop_
_atom_site_label
_atom_site_type_symbol
_atom_type_description
_atom_site_fract_x
_atom_site_fract_y
_atom_site_fract_z
_atom_type_partial_charge
C1    C     C_R   0.506733 0.489391 0.348245 0.584039
C2    C     C_R   0.539859 0.160857 0.545113 0.237042
C3    C     C_R   0.526366 0.890451 0.504375 0.171039
C4    C     C_R   0.473634 0.109548 0.495624 0.171039
C5    C     C_R   0.588832 0.849343 0.552627 -0.060945
C6    C     C_R   0.411168 0.150658 0.447371 -0.060944
C7    C     C_R   0.578461 0.760407 0.555375 0.353480
C8    C     C_R   0.421539 0.239593 0.444624 0.353480
C9    C     C_R   0.330993 0.500156 0.499762 0.558939
C10   C     C_R   0.669006 0.499844 0.500238 0.558939
C11   C     C_1   0.228728 0.500467 0.499837 0.036254
C12   C     C_R   0.493267 0.510609 0.651755 0.584039
C13   C     C_1   0.771272 0.499533 0.500163 0.036254
C14   C     C_1   0.143336 0.500401 0.499895 0.021958
C15   C     C_1   0.856664 0.499599 0.500104 0.021958
C16   C     C_1   0.042704 0.500134 0.499968 0.052871
C17   C     C_1   0.957296 0.499866 0.500032 0.052871
C18   C     C_R   0.523973 0.483885 0.261536 -0.052859
C19   C     C_R   0.476025 0.516115 0.738464 -0.052860
C20   C     C_R   0.557684 0.556718 0.227299 -0.063615
C21   C     C_R   0.442312 0.443283 0.772701 -0.063609
C22   C     C_R   0.559890 0.553460 0.144113 0.238405
C23   C     C_R   0.516930 0.403328 0.129675 0.257027
C24   C     C_R   0.440103 0.446542 0.855886 0.238406
C25   C     C_R   0.533557 0.477947 0.095608 0.199713
C26   C     C_R   0.466435 0.522055 0.904391 0.199713
C27   C     C_3   0.403430 0.364215 0.721363 -0.286583
C28   C     C_3   0.596566 0.635785 0.278635 -0.286586
C29   C     C_3   0.668872 0.898500 0.599944 -0.277523
C30   C     C_3   0.331127 0.101501 0.400055 -0.277524
C31   C     C_R   0.483066 0.596673 0.870325 0.257027
C32   C     C_R   0.511782 0.405453 0.211850 0.216929
C33   C     C_R   0.488218 0.594548 0.788149 0.216927
C34   C     C_R   0.451944 0.750963 0.459614 0.331040
C35   C     C_R   0.548055 0.249036 0.540386 0.331038
C36   C     C_R   0.460140 0.839142 0.454887 0.237041
Cl1   Cl    Cl    0.400034 0.357726 0.900783 -0.417641
Cl2   Cl    Cl    0.395529 0.881599 0.378884 -0.465176
Cl3   Cl    Cl    0.657972 0.712098 0.616713 -0.470877
Cl4   Cl    Cl    0.342029 0.287903 0.383286 -0.470878
Cl5   Cl    Cl    0.599954 0.642278 0.099216 -0.417637
Cl6   Cl    Cl    0.501836 0.306068 0.067960 -0.304117
Cl7   Cl    Cl    0.498159 0.693933 0.932039 -0.304116
Cl8   Cl    Cl    0.494849 0.306825 0.249019 -0.384268
Cl9   Cl    Cl    0.505155 0.693175 0.750981 -0.384265
Cl10  Cl    Cl    0.633621 0.308392 0.603503 -0.446384
Cl11  Cl    Cl    0.366376 0.691607 0.396499 -0.446383
Cl12  Cl    Cl    0.604467 0.118400 0.621116 -0.465178
Cu1   Cu    Cu3+1 0.495850 0.415220 0.496180 1.124091
Cu2   Cu    Cu3+1 0.504150 0.584780 0.503820 1.124092
H1    H     H_    0.358272 0.381980 0.671655 0.128065
H2    H     H_    0.322175 0.035751 0.414382 0.211923
H3    H     H_    0.264375 0.131999 0.413552 0.172810
H4    H     H_    0.342315 0.100105 0.335843 0.219846
H5    H     H_    0.461361 0.325523 0.698658 0.209046
H6    H     H_    0.357587 0.323148 0.752716 0.202113
H7    H     H_    0.641720 0.618022 0.328345 0.128066
H8    H     H_    0.642412 0.676847 0.247282 0.202110
H9    H     H_    0.538635 0.674478 0.301337 0.209048
H10   H     H_    0.677828 0.964249 0.585613 0.211920
H11   H     H_    0.657680 0.899901 0.664156 0.219847
H12   H     H_    0.735624 0.867999 0.586452 0.172814
N1    N     N_2   0.528202 0.474727 0.011976 -0.100187
N2    N     N_2   0.471790 0.525274 0.988023 -0.100184
N3    N     N_R   0.510380 0.712130 0.509560 -0.250999
N4    N     N_R   0.489620 0.287870 0.490440 -0.250998
N5    N     N_2   0.537324 0.980823 0.502095 -0.141483
N6    N     N_2   0.462676 0.019176 0.497904 -0.141482
O1    O     O_R   0.496120 0.420530 0.382500 -0.404408
O2    O     O_R   0.503880 0.579470 0.617500 -0.404409
O3    O     O_R   0.503120 0.563720 0.388950 -0.492847
O4    O     O_R   0.496880 0.436280 0.611050 -0.492847
O5    O     O_R   0.372550 0.428390 0.496770 -0.464761
O6    O     O_R   0.627450 0.571610 0.503230 -0.464761
O7    O     O_R   0.379550 0.571580 0.503220 -0.441963
O8    O     O_R   0.620450 0.428420 0.496780 -0.441963

loop_
_geom_bond_atom_site_label_1
_geom_bond_atom_site_label_2
_ccdc_geom_bond_type
C2    C35   A    
C8    N4    A    
C33   Cl9   S    
Cu1   O5    S    
C28   H7    S    
C30   H4    S    
C1    C18   S    
C1    O3    A    
C23   Cl6   S    
C31   Cl7   S    
C19   C21   A    
C24   C26   A    
Cu2   O6    S    
C11   C14   T    
C27   H5    S    
C22   Cl5   S    
C25   N1    S    
C26   N2    S    
C30   H2    S    
C10   O8    A    
C16   C17   T    
C22   C25   A    
C31   C33   A    
C18   C20   A    
C21   C27   S    
C26   C31   A    
Cu1   O1    S    
C9    O5    A    
C34   N3    A    
C27   H1    S    
C5    C29   S    
C30   H3    S    
C29   H11   S    
Cu1   N4    S    
N5    N6    D    
C4    C6    A    
C19   C33   A    
C4    N6    S    
C27   H6    S    
C6    C8    A    
C20   C28   S    
C35   N4    A    
C2    Cl12  S    
Cu1   O4    S    
C1    O1    A    
C2    C4    A    
Cu2   O3    S    
C7    N3    A    
C29   H10   S    
C24   Cl1   S    
C32   Cl8   S    
Cu1   O8    S    
C9    C11   S    
C6    C30   S    
C20   C22   A    
C13   C15   T    
C14   C16   S    
C18   C32   A    
C5    C7    A    
C28   H9    S    
C15   C17   S    
C12   O2    A    
C29   H12   S    
C3    N5    S    
C3    C5    A    
C10   C13   S    
C28   H8    S    
C8    Cl4   S    
C23   C32   A    
C36   Cl2   S    
Cu2   O2    S    
Cu2   O7    S    
C10   O6    A    
C3    C36   A    
C12   C19   S    
C34   C36   A    
C23   C25   A    
C12   O4    A    
Cu2   N3    S    
N1    N2    D    
Cu1   Cu2   S    
C21   C24   A    
C7    Cl3   S    
C34   Cl11  S    
C9    O7    A    
C35   Cl10  S    
