data_mof_unit_22687.cif
_audit_creation_date              2012-12-11T15:53:45-0500
_audit_creation_method            fapswitch 2.2
_symmetry_space_group_name_H-M    P1
_symmetry_Int_Tables_number       1
_space_group_crystal_system       triclinic
_cell_length_a                    10.643629
_cell_length_b                    10.721784
_cell_length_c                    16.971128
_cell_angle_alpha                 80.633918
_cell_angle_beta                  99.470111
_cell_angle_gamma                 119.051602
_cell_volume                      1662.25045494

loop_
_atom_site_label
_atom_site_type_symbol
_atom_type_description
_atom_site_fract_x
_atom_site_fract_y
_atom_site_fract_z
_atom_type_partial_charge
C1    C     C_R   0.385127 0.285019 0.632026 0.550797
C2    C     C_R   0.391771 0.830617 0.673606 -0.133444
C3    C     C_R   0.374916 0.852695 0.749406 -0.147107
C4    C     C_3   0.130215 0.457959 0.793934 -0.217220
C5    C     C_3   0.150266 0.433632 0.712205 -0.027339
C6    C     C_R   0.313722 0.692545 0.646569 0.003107
C7    C     C_1   0.851771 0.669834 0.702477 -0.019026
C8    C     C_1   0.898959 0.704296 0.769280 -0.028365
C9    C     C_1   0.365595 0.234128 0.714452 -0.046378
C10   C     C_1   0.334195 0.187120 0.781707 -0.045911
C11   C     C_1   0.317626 0.682441 0.280362 -0.045643
C12   C     C_R   0.369136 0.654847 0.585955 0.536325
C13   C     C_1   0.296581 0.706642 0.209696 -0.037102
C14   C     C_R   0.869666 0.685837 0.168034 0.023462
C15   C     C_R   0.917578 0.604758 0.225067 0.010962
C16   C     C_R   0.908628 0.599139 0.304969 0.012353
C17   C     C_R   0.832830 0.782237 0.275909 -0.162124
C18   C     C_R   0.840948 0.785957 0.194355 -0.162084
C19   C     C_3   0.884577 0.452137 0.229299 -0.258150
C20   C     C_3   0.874014 0.444097 0.318024 -0.269219
C21   C     C_R   0.850608 0.676119 0.330385 0.020757
C22   C     C_R   0.338978 0.185057 0.154770 -0.006933
C23   C     C_R   0.781688 0.621293 0.626035 0.547691
C24   C     C_R   0.261894 0.244417 0.178927 0.087071
C25   C     C_R   0.265754 0.253836 0.258601 -0.010499
C26   C     C_R   0.444744 0.173028 0.291718 -0.167132
C27   C     C_R   0.442892 0.164496 0.210470 -0.173684
C28   C     C_3   0.105848 0.210769 0.164768 0.247140
C29   C     C_3   0.112350 0.222828 0.253103 -0.216846
C30   C     C_R   0.344817 0.204634 0.316531 0.004511
C31   C     C_R   0.948166 0.725261 0.851790 0.530139
C32   C     C_R   0.281457 0.750924 0.882595 0.546685
C33   C     C_R   0.286880 0.118784 0.858488 0.538260
C34   C     C_R   0.353202 0.230873 0.397796 0.557963
C35   C     C_R   0.892820 0.693539 0.086079 0.546217
C36   C     C_R   0.284331 0.738847 0.125548 0.563746
C37   C     C_R   0.288498 0.112172 0.083242 0.542818
C38   C     C_R   0.361839 0.657010 0.361791 0.550836
C39   C     C_R   0.776043 0.624835 0.401546 0.554063
C40   C     C_R   0.279202 0.737366 0.798133 -0.012827
C41   C     C_R   0.180473 0.611545 0.762714 -0.014686
C42   C     C_R   0.197673 0.589155 0.688125 0.040226
Cr1   Cr    Cr6+3 0.608440 0.389080 0.519680 1.050552
Cr2   Cr    Cr6+3 0.288640 0.400090 0.490760 1.038492
Cr3   Cr    Cr6+3 0.602940 0.710800 0.489510 1.032504
Cr4   Cr    Cr6+3 0.052530 0.947560 0.964210 1.043939
Cr5   Cr    Cr6+3 0.059970 0.626800 0.992920 1.089658
Cr6   Cr    Cr6+3 0.373320 0.938440 0.995370 1.023455
H1    H     H_    0.476740 0.917122 0.640680 0.161524
H2    H     H_    0.779796 0.385215 0.195301 0.156145
H3    H     H_    0.762884 0.369396 0.334282 0.168590
H4    H     H_    0.961009 0.427885 0.356619 0.148369
H5    H     H_    0.518589 0.148508 0.334949 0.133346
H6    H     H_    0.510267 0.125558 0.193240 0.145916
H7    H     H_    0.028786 0.101708 0.147170 0.132659
H8    H     H_    0.103760 0.316571 0.265757 0.167314
H9    H     H_    0.043758 0.119449 0.286988 0.091311
H10   H     H_    0.445090 0.955785 0.772339 0.149919
H11   H     H_    0.015873 0.403955 0.807571 0.177946
H12   H     H_    0.206536 0.442938 0.842862 0.153119
H13   H     H_    0.238650 0.406059 0.714336 0.132627
H14   H     H_    0.795689 0.850040 0.294160 0.143859
H15   H     H_    0.817419 0.860913 0.152039 0.137956
H16   H     H_    0.978079 0.442592 0.216185 0.180707
O1    O     O_R   0.754020 0.497590 0.609930 -0.484933
O2    O     O_R   0.295080 0.533620 0.397890 -0.503177
O3    O     O_R   0.485280 0.746620 0.388440 -0.511033
O4    O     O_R   0.720550 0.696220 0.420010 -0.505790
O5    O     O_3   0.500010 0.499990 0.499980 -0.273137
O6    O     O_R   0.163320 0.092900 0.874450 -0.496314
O7    O     O_R   0.934650 0.822080 0.882840 -0.471934
O8    O     O_R   0.915520 0.604140 0.893670 -0.502916
O9    O     O_R   0.191760 0.638110 0.923230 -0.485205
O10   O     O_R   0.406180 0.826930 0.920660 -0.489924
O11   O     O_R   0.358620 0.062870 0.901950 -0.517984
O12   O     O_R   0.481420 0.271390 0.600630 -0.483610
O13   O     O_R   0.163910 0.085460 0.050210 -0.505685
O14   O     O_R   0.935200 0.815170 0.045770 -0.503143
O15   O     O_R   0.916120 0.596690 0.069430 -0.504447
O16   O     O_R   0.192310 0.631200 0.086170 -0.418398
O17   O     O_R   0.406770 0.819480 0.096420 -0.499244
O18   O     O_R   0.359170 0.055960 0.064880 -0.522914
O19   O     O_3   0.161940 0.837600 0.984160 -0.331546
O20   O     O_R   0.263810 0.254550 0.589590 -0.485920
O21   O     O_R   0.300820 0.531200 0.560890 -0.500195
O22   O     O_R   0.491480 0.744020 0.564270 -0.514184
O23   O     O_R   0.726290 0.693800 0.583010 -0.494365
O24   O     O_R   0.747830 0.500190 0.434090 -0.511895
O25   O     O_R   0.475680 0.273800 0.437630 -0.498070
O26   O     O_R   0.257620 0.257160 0.413750 -0.513853
F1    F     F_    0.088128 0.319332 0.116462 -0.615232
I1    I     I_    0.952330 0.299874 0.645563 -0.328268

loop_
_geom_bond_atom_site_label_1
_geom_bond_atom_site_label_2
_ccdc_geom_bond_type
C5    C42   S    
C16   C21   A    
C39   O4    A    
C14   C18   A    
Cr2   O2    S    
C19   C20   S    
Cr5   O15   S    
C27   H6    S    
C7    C8    T    
C1    O20   A    
C15   C19   S    
C26   C27   A    
Cr1   O25   S    
C12   O21   A    
Cr1   O24   S    
C39   O24   A    
C28   C29   S    
Cr3   O23   S    
C20   H3    S    
C6    C12   S    
C18   H15   S    
C4    C41   S    
C15   C16   A    
Cr1   O12   S    
Cr6   O17   S    
C41   C42   A    
C33   O11   A    
C38   O2    A    
Cr3   O3    S    
Cr5   O19   S    
C28   F1    S    
C9    C10   T    
C19   H16   S    
Cr1   O1    S    
C31   O7    A    
Cr1   O5    S    
C23   O23   A    
C8    C31   S    
Cr6   O11   S    
C2    C6    A    
Cr5   O16   S    
C28   H7    S    
C25   C29   S    
C30   C34   S    
Cr3   O5    S    
Cr6   O10   S    
C1    C9    S    
C24   C25   A    
Cr5   O9    S    
C13   C36   S    
C36   O16   A    
C14   C35   S    
Cr4   O14   S    
C22   C37   S    
C37   O13   A    
C17   C21   A    
C11   C38   S    
C34   O26   A    
C2    H1    S    
C17   H14   S    
C21   C39   S    
C36   O17   A    
C16   C20   S    
C4    H12   S    
Cr3   O4    S    
C17   C18   A    
C5    H13   S    
Cr2   O5    S    
Cr4   O7    S    
C33   O6    A    
C40   C41   A    
C29   H9    S    
C3    C40   A    
C26   C30   A    
C22   C27   A    
C22   C24   A    
C37   O18   A    
Cr2   O21   S    
C26   H5    S    
C32   O9    A    
Cr2   O26   S    
C25   C30   A    
C31   O8    A    
C1    O12   A    
C24   C28   S    
C4    C5    S    
Cr2   O20   S    
Cr4   O13   S    
C29   H8    S    
C35   O14   A    
Cr6   O19   S    
C12   O22   A    
C23   O1    A    
C2    C3    A    
C34   O25   A    
C20   H4    S    
C32   O10   A    
C11   C13   T    
C19   H2    S    
C7    C23   S    
C4    H11   S    
C35   O15   A    
Cr6   O18   S    
Cr3   O22   S    
C10   C33   S    
C32   C40   S    
Cr5   O8    S    
Cr4   O6    S    
C5    I1    S    
Cr4   O19   S    
C3    H10   S    
C38   O3    A    
C6    C42   A    
C14   C15   A    
