data_mof_unit_27016.cif
_audit_creation_date              2012-12-10T17:02:16-0500
_audit_creation_method            fapswitch 2.2
_symmetry_space_group_name_H-M    P1
_symmetry_Int_Tables_number       1
_space_group_crystal_system       triclinic
_cell_length_a                    10.755434
_cell_length_b                    10.67588
_cell_length_c                    10.036124
_cell_angle_alpha                 91.411523
_cell_angle_beta                  89.542252
_cell_angle_gamma                 89.9364
_cell_volume                      1151.99768511

loop_
_atom_site_label
_atom_site_type_symbol
_atom_type_description
_atom_site_fract_x
_atom_site_fract_y
_atom_site_fract_z
_atom_type_partial_charge
C1    C     C_R   0.498703 0.262502 0.498345 0.842552
C2    C     C_R   0.055434 0.489313 0.625838 -0.087437
C3    C     C_R   0.123941 0.492790 0.503053 -0.231392
C4    C     C_R   0.062362 0.464982 0.380984 0.461695
C5    C     C_R   0.934653 0.460930 0.379781 -0.287827
C6    C     C_R   0.869617 0.457732 0.499524 -0.144854
C7    C     C_2   0.549183 0.931402 0.394568 -0.308459
C8    C     C_2   0.537666 0.867632 0.506945 0.467681
C9    C     C_2   0.557195 0.066253 0.399972 -0.137931
C10   C     C_2   0.493629 0.130100 0.493773 -0.233263
C11   C     C_2   0.572085 0.570883 0.925828 -0.098747
C12   C     C_R   0.258778 0.501892 0.501056 0.910969
C13   C     C_2   0.555833 0.583756 0.074158 0.009727
C14   C     C_R   0.508409 0.737315 0.501610 0.834314
C15   C     C_R   0.738323 0.483829 0.499430 0.899220
C16   C     C_R   0.100478 0.523918 0.754455 0.610472
C17   C     C_R   0.042946 0.477221 0.868560 -0.307391
C18   C     C_R   0.939324 0.399163 0.857036 0.432119
C19   C     C_R   0.879203 0.391346 0.733509 -0.280498
C20   C     C_R   0.933471 0.444995 0.619878 -0.020146
H1    H     H_    0.435681 0.085542 0.567861 0.194290
H2    H     H_    0.645097 0.624463 0.878653 0.164646
H3    H     H_    0.418931 0.471541 0.892825 0.248903
H4    H     H_    0.598938 0.663967 0.123396 0.099098
H5    H     H_    0.080675 0.499846 0.965866 0.217054
H6    H     H_    0.792293 0.340976 0.725609 0.171698
H7    H     H_    0.887256 0.457086 0.284815 0.205464
H8    H     H_    0.545917 0.885608 0.296763 0.147735
H9    H     H_    0.610495 0.113170 0.323634 0.155086
N1    N     N_2   0.501340 0.501330 0.852150 -0.178980
N2    N     N_2   0.501380 0.501360 0.147810 0.086940
O1    O     O_R   0.499980 0.319060 0.613040 -0.618792
O2    O     O_R   0.500020 0.319100 0.386900 -0.620929
O3    O     O_R   0.316750 0.499980 0.613090 -0.566720
O4    O     O_R   0.316790 0.500020 0.386950 -0.554196
O5    O     O_R   0.499980 0.680900 0.613100 -0.541412
O6    O     O_R   0.500020 0.680940 0.386960 -0.666061
O7    O     O_R   0.683210 0.499980 0.613050 -0.619308
O8    O     O_R   0.683250 0.500020 0.386910 -0.650202
Zn1   Zn    Zn3+2 0.499970 0.499970 0.650990 1.005597
Zn2   Zn    Zn3+2 0.500030 0.500030 0.349010 0.994253
O9    O     O_3   0.124315 0.443542 0.261255 -0.578812
C21   C     C_3   0.149845 0.313573 0.248278 0.150055
H10   H     H_    0.067149 0.255091 0.272234 0.114708
H11   H     H_    0.226631 0.287609 0.315928 0.146454
C22   C     C_3   0.189956 0.281517 0.105807 -0.753551
H12   H     H_    0.251376 0.355081 0.066787 0.303984
H13   H     H_    0.238140 0.189548 0.101340 0.204124
H14   H     H_    0.108472 0.275803 0.040187 0.253282
O10   O     O_3   0.468297 0.391281 0.089877 -0.565056
C23   C     C_3   0.571580 0.309960 0.089149 0.195579
H15   H     H_    0.622367 0.313088 0.185001 0.165806
H16   H     H_    0.637341 0.336212 0.009002 0.161066
C24   C     C_3   0.526200 0.177217 0.060036 -0.879871
H17   H     H_    0.479470 0.172512 0.961736 0.272051
H18   H     H_    0.605277 0.110618 0.058089 0.219662
H19   H     H_    0.459249 0.148884 0.138375 0.262363
F1    F     F_    0.189466 0.612619 0.772443 -0.642956
O11   O     O_3   0.893203 0.341511 0.969725 -0.619925
C25   C     C_3   0.869898 0.212749 0.941875 0.077757
H20   H     H_    0.942457 0.169282 0.875294 0.149750
H21   H     H_    0.777751 0.201188 0.893962 0.158246
C26   C     C_3   0.868230 0.140588 0.071078 -0.853140
H22   H     H_    0.812535 0.191179 0.148828 0.246664
H23   H     H_    0.827440 0.046279 0.052829 0.223801
H24   H     H_    0.963918 0.127525 0.108167 0.246685
F2    F     F_    0.561495 0.921201 0.628886 -0.663695

loop_
_geom_bond_atom_site_label_1
_geom_bond_atom_site_label_2
_ccdc_geom_bond_type
C21   H10   S    
C26   H23   S    
C15   O7    A    
C6    C20   A    
C9    C10   D    
C24   H17   S    
C11   H2    S    
C19   C20   A    
C9    H9    S    
C23   C24   S    
C17   H5    S    
C17   C18   A    
C3    C4    A    
C26   H24   S    
N1    Zn1   S    
O11   C25   S    
O8    Zn2   S    
C16   F1    S    
C12   O4    A    
O7    Zn1   S    
C21   H11   S    
C22   H14   S    
C15   O8    A    
C4    O9    S    
C25   H20   S    
C25   C26   S    
O3    Zn1   S    
C2    C3    A    
C22   H13   S    
O1    Zn1   S    
C10   H1    S    
O6    Zn2   S    
C5    C6    A    
O4    Zn2   S    
C21   C22   S    
C24   H18   S    
C7    C8    D    
O9    C21   S    
C1    O2    A    
N2    O10   S    
C12   O3    A    
C26   H22   S    
H3    N1    S    
C18   O11   S    
C11   C13   S    
O5    Zn1   S    
C2    C16   A    
O2    Zn2   S    
C11   N1    D    
C8    F2    S    
C25   H21   S    
C18   C19   A    
C1    C10   S    
C7    C9    S    
C19   H6    S    
C22   H12   S    
C16   C17   A    
C14   O5    A    
C8    C14   S    
C3    C12   S    
N2    Zn2   S    
O10   C23   S    
C6    C15   S    
C5    H7    S    
C2    C20   A    
C14   O6    A    
C13   N2    D    
C1    O1    A    
C7    H8    S    
C23   H15   S    
C13   H4    S    
C4    C5    A    
C23   H16   S    
C24   H19   S    
