data_mof_unit_55426.cif
_audit_creation_date              2012-12-10T18:36:09-0500
_audit_creation_method            fapswitch 2.2
_symmetry_space_group_name_H-M    P1
_symmetry_Int_Tables_number       1
_space_group_crystal_system       triclinic
_cell_length_a                    15.014917
_cell_length_b                    15.401548
_cell_length_c                    19.168538
_cell_angle_alpha                 89.97556
_cell_angle_beta                  104.711138
_cell_angle_gamma                 81.92716
_cell_volume                      4241.96486494

loop_
_atom_site_label
_atom_site_type_symbol
_atom_type_description
_atom_site_fract_x
_atom_site_fract_y
_atom_site_fract_z
_atom_type_partial_charge
C1    C     C_R   0.441452 0.662407 0.487711 0.911234
C2    C     C_R   0.558802 0.337578 0.510602 0.946676
C3    C     C_R   0.406343 0.755102 0.467776 -0.232542
C4    C     C_R   0.596912 0.244547 0.511090 -0.226013
C5    C     C_R   0.294780 0.872609 0.396855 0.339427
C6    C     C_R   0.721756 0.121683 0.545649 0.377794
C7    C     C_R   0.318354 0.783769 0.420609 0.336598
C8    C     C_R   0.688363 0.211082 0.550195 0.366845
C9    C     C_R   0.469808 0.813736 0.487974 -0.331728
C10   C     C_R   0.539578 0.189280 0.470629 -0.341863
C11   C     C_R   0.453942 0.897120 0.455076 0.032778
C12   C     C_R   0.566712 0.098595 0.473623 0.038427
C13   C     C_R   0.363970 0.928264 0.411172 -0.003751
C14   C     C_R   0.658769 0.064517 0.512624 -0.016142
C15   C     C_R   0.524938 0.951077 0.467430 0.125194
C16   C     C_R   0.501346 0.040824 0.445815 0.126242
C17   C     C_R   0.412051 0.069892 0.399930 -0.251278
C18   C     C_R   0.618810 0.917953 0.500777 -0.247110
C19   C     C_R   0.344968 0.014232 0.382484 -0.177940
C20   C     C_R   0.684489 0.973735 0.522513 -0.187321
C21   C     C_R   0.844233 0.635548 0.607018 -0.333758
C22   C     C_R   0.155751 0.369743 0.385681 -0.337138
C23   C     C_R   0.500190 0.502155 0.634293 0.856197
C24   C     C_R   0.498580 0.500930 0.365428 0.828730
C25   C     C_R   0.756443 0.610345 0.593057 0.260973
C26   C     C_R   0.245454 0.390442 0.405784 0.259276
C27   C     C_R   0.790038 0.517265 0.501634 -0.068314
C28   C     C_R   0.205339 0.487980 0.492375 -0.010924
C29   C     C_R   0.883015 0.533569 0.517777 0.005523
C30   C     C_R   0.110937 0.476207 0.469236 0.012129
C31   C     C_R   0.906908 0.598556 0.568594 0.100274
C32   C     C_R   0.089090 0.411001 0.418569 0.082673
C33   C     C_R   0.951229 0.490957 0.484121 -0.085927
C34   C     C_R   0.039856 0.522293 0.497816 -0.072567
C35   C     C_R   0.054939 0.598374 0.539392 0.469390
C36   C     C_R   0.935440 0.417655 0.438563 0.461167
C37   C     C_R   0.989994 0.631550 0.577276 -0.322003
C38   C     C_R   0.003403 0.382323 0.404477 -0.291712
C39   C     C_R   0.412322 0.515147 0.727635 -0.201136
C40   C     C_R   0.573160 0.526028 0.267817 -0.197040
C41   C     C_R   0.407465 0.529857 0.797936 -0.166204
C42   C     C_R   0.568754 0.539600 0.195606 -0.171321
C43   C     C_R   0.487427 0.542951 0.850952 0.088920
C44   C     C_R   0.485332 0.536237 0.143061 0.092529
C45   C     C_R   0.572088 0.542643 0.832305 -0.164560
C46   C     C_R   0.406239 0.518848 0.163931 -0.167061
C47   C     C_R   0.576917 0.528017 0.761777 -0.183859
C48   C     C_R   0.410705 0.505185 0.236512 -0.214672
C49   C     C_R   0.497154 0.513669 0.709158 -0.023973
C50   C     C_R   0.494238 0.508926 0.288839 -0.021564
C51   C     C_R   0.482759 0.546736 0.066787 0.287859
C52   C     C_R   0.483809 0.550727 0.926170 0.289592
H1    H     H_    0.349287 0.505560 0.687768 0.151837
H2    H     H_    0.638372 0.529888 0.307154 0.153953
H3    H     H_    0.000679 0.687786 0.610524 0.134552
H4    H     H_    0.993176 0.325677 0.371615 0.142211
H5    H     H_    0.231609 0.526034 0.537898 0.178707
H6    H     H_    0.759997 0.480414 0.456880 0.194763
H7    H     H_    0.862505 0.684641 0.646629 0.145500
H8    H     H_    0.138832 0.321208 0.345289 0.144316
H9    H     H_    0.341235 0.529953 0.810742 0.146780
H10   H     H_    0.631007 0.552419 0.181157 0.147912
H11   H     H_    0.634961 0.552277 0.872281 0.149464
H12   H     H_    0.341059 0.515600 0.124358 0.148426
H13   H     H_    0.642977 0.527568 0.748623 0.155087
H14   H     H_    0.348679 0.492929 0.251591 0.153281
H15   H     H_    0.277513 0.039458 0.347310 0.185905
H16   H     H_    0.754210 0.945144 0.551408 0.183118
H17   H     H_    0.470448 0.218021 0.442150 0.189985
H18   H     H_    0.533065 0.792036 0.528976 0.186943
H19   H     H_    0.392802 0.134853 0.375093 0.137186
H20   H     H_    0.643668 0.848676 0.510523 0.149479
N1    N     N_R   0.561035 0.562032 0.978018 -0.180510
N2    N     N_R   0.404806 0.537558 0.014858 -0.180996
N3    N     N_R   0.560461 0.560144 0.047071 -0.181736
N4    N     N_R   0.405362 0.539503 0.945749 -0.181222
N5    N     N_R   0.731690 0.552730 0.540620 -0.115462
N6    N     N_R   0.268310 0.447270 0.459380 -0.119053
O1    O     O_R   0.383120 0.605620 0.479520 -0.569310
O2    O     O_R   0.616880 0.394380 0.520480 -0.604816
O3    O     O_R   0.531890 0.639510 0.505590 -0.602299
O4    O     O_R   0.468110 0.360490 0.494410 -0.595280
O5    O     O_R   0.425590 0.483060 0.588820 -0.637626
O6    O     O_R   0.574410 0.516940 0.411180 -0.639627
O7    O     O_R   0.574360 0.516950 0.614890 -0.594938
O8    O     O_R   0.425640 0.483050 0.385110 -0.605819
Zn1   Zn    Zn3+2 0.400660 0.477370 0.482600 0.964904
Zn2   Zn    Zn3+2 0.599340 0.522630 0.517400 0.948890
N7    N     N_3   0.313844 0.351122 0.371032 -0.395241
H21   H     H_    0.317457 0.283111 0.375983 0.144624
H22   H     H_    0.290346 0.368845 0.316065 0.157854
N8    N     N_3   0.690895 0.647746 0.631182 -0.398032
H23   H     H_    0.680893 0.715878 0.622725 0.155444
H24   H     H_    0.720348 0.633900 0.686286 0.156285
O9    O     O_3   0.124646 0.646676 0.532593 -0.600518
C53   C     C_3   0.167583 0.683274 0.598307 0.058926
H25   H     H_    0.178407 0.636963 0.645456 0.124356
H26   H     H_    0.125075 0.745849 0.606181 0.152340
C54   C     C_3   0.262158 0.705156 0.595063 -0.789724
H27   H     H_    0.254126 0.750821 0.548370 0.268848
H28   H     H_    0.294220 0.737054 0.645337 0.199169
H29   H     H_    0.309084 0.644546 0.589987 0.255991
O10   O     O_3   0.863292 0.370033 0.438062 -0.659037
C55   C     C_3   0.809025 0.361781 0.366742 0.053242
H30   H     H_    0.847016 0.316018 0.335891 0.155811
H31   H     H_    0.787502 0.426763 0.337274 0.135682
C56   C     C_3   0.721969 0.323136 0.369530 -0.870040
H32   H     H_    0.679663 0.366304 0.398893 0.261447
H33   H     H_    0.679115 0.316442 0.313869 0.226401
H34   H     H_    0.741606 0.257367 0.397407 0.239274
O11   O     O_3   0.735436 0.259813 0.604515 -0.583458
C57   C     C_3   0.809117 0.291570 0.584169 0.161809
H35   H     H_    0.785231 0.324330 0.529738 0.191132
H36   H     H_    0.867021 0.238056 0.585295 0.174768
C58   C     C_3   0.847094 0.358031 0.638269 -0.783142
H37   H     H_    0.874969 0.325902 0.692842 0.251021
H38   H     H_    0.904087 0.385135 0.622343 0.210402
H39   H     H_    0.790964 0.412427 0.640313 0.264275
O12   O     O_3   0.254290 0.726338 0.399520 -0.570573
C59   C     C_3   0.257356 0.697396 0.330135 0.170659
H40   H     H_    0.328953 0.666625 0.329518 0.115334
H41   H     H_    0.233887 0.752794 0.289309 0.163336
C60   C     C_3   0.192549 0.629013 0.308612 -0.777305
H42   H     H_    0.120393 0.657442 0.308730 0.258672
H43   H     H_    0.193339 0.606667 0.253676 0.184034
H44   H     H_    0.215797 0.571710 0.347161 0.265378
O13   O     O_3   0.206179 0.902914 0.355102 -0.612871
C61   C     C_3   0.147887 0.925261 0.401682 0.119114
H45   H     H_    0.174080 0.976729 0.439148 0.123817
H46   H     H_    0.142804 0.866615 0.433734 0.182080
C62   C     C_3   0.050651 0.961418 0.356981 -0.818188
H47   H     H_    0.022004 0.911180 0.319635 0.265871
H48   H     H_    0.004200 0.979224 0.393127 0.199092
H49   H     H_    0.053042 0.020881 0.325086 0.249902
O14   O     O_3   0.812325 0.089029 0.582099 -0.591970
C63   C     C_3   0.865844 0.073830 0.531006 0.043114
H50   H     H_    0.861079 0.134130 0.497281 0.127351
H51   H     H_    0.842745 0.020764 0.494410 0.144335
C64   C     C_3   0.967377 0.045794 0.570531 -0.802951
H52   H     H_    0.974666 0.984405 0.603198 0.254217
H53   H     H_    0.009986 0.033851 0.530914 0.200174
H54   H     H_    0.993420 0.098078 0.606705 0.255937

loop_
_geom_bond_atom_site_label_1
_geom_bond_atom_site_label_2
_ccdc_geom_bond_type
N6    Zn1   S    
C15   C18   A    
O5    Zn1   S    
C27   C29   A    
C41   C43   A    
O9    C53   S    
C51   N2    A    
C41   H9    S    
C4    C8    A    
C62   H49   S    
C61   H45   S    
C55   H31   S    
C60   H42   S    
C39   C41   A    
C28   H5    S    
C26   N7    S    
C21   C31   A    
C26   N6    A    
C22   C32   A    
C36   O10   S    
C25   N5    A    
C35   C37   A    
C51   N3    A    
C21   H7    S    
C3    C7    A    
C22   H8    S    
C64   H54   S    
C43   C52   S    
C60   H43   S    
C1    O3    A    
O4    Zn1   S    
C53   C54   S    
C29   C33   A    
C11   C13   A    
C33   C36   A    
C34   C35   A    
C57   H35   S    
C11   C15   A    
C12   C16   A    
N5    Zn2   S    
C44   C46   A    
C16   C17   A    
C58   H38   S    
C53   H26   S    
C56   H32   S    
C19   H15   S    
C32   C38   A    
N7    H22   S    
C28   N6    A    
C42   H10   S    
C5    C13   A    
C59   C60   S    
C40   C42   A    
O1    Zn1   S    
C24   C50   S    
N1    N3    A    
C42   C44   A    
C63   C64   S    
C10   C12   A    
C57   H36   S    
C55   H30   S    
C59   H41   S    
C56   H33   S    
C45   C47   A    
C18   H20   S    
C46   C48   A    
C15   C16   A    
C30   C34   A    
C7    O12   S    
O14   C63   S    
C9    H18   S    
C63   H51   S    
C52   N1    A    
C8    O11   S    
C5    C7    A    
C13   C19   A    
O8    Zn1   S    
C60   H44   S    
C6    C8    A    
C62   H48   S    
C45   H11   S    
C31   C37   A    
C46   H12   S    
C1    C3    S    
C2    C4    S    
C6    O14   S    
C3    C9    A    
C14   C20   A    
C6    C14   A    
C43   C45   A    
C54   H27   S    
O12   C59   S    
C58   H39   S    
C53   H25   S    
C5    O13   S    
N8    H24   S    
C33   C34   A    
C9    C11   A    
C23   O5    A    
C44   C51   S    
C39   C49   A    
C12   C14   A    
C17   H19   S    
C40   H2    S    
C52   N4    A    
C1    O1    A    
C56   H34   S    
C2    O4    A    
N2    N4    A    
C4    C10   A    
C62   H47   S    
C61   C62   S    
C59   H40   S    
O7    Zn2   S    
C21   C25   A    
C25   N8    S    
O11   C57   S    
C54   H28   S    
C20   H16   S    
O6    Zn2   S    
C63   H50   S    
C27   N5    A    
C27   H6    S    
C61   H46   S    
C64   H52   S    
C35   O9    S    
C47   C49   A    
C23   C49   S    
C28   C30   A    
C24   O6    A    
O2    Zn2   S    
C36   C38   A    
C30   C32   A    
C64   H53   S    
C58   H37   S    
C39   H1    S    
C40   C50   A    
C48   C50   A    
N8    H23   S    
C17   C19   A    
C18   C20   A    
C55   C56   S    
O3    Zn2   S    
C2    O2    A    
C22   C26   A    
C37   H3    S    
C10   H17   S    
C54   H29   S    
C38   H4    S    
C29   C31   A    
C23   O7    A    
O10   C55   S    
C48   H14   S    
N7    H21   S    
C24   O8    A    
C47   H13   S    
C57   C58   S    
O13   C61   S    
