data_mof_unit_58222.cif
_audit_creation_date              2012-10-26T17:12:51-0400
_audit_creation_method            fapswitch 2.2
_symmetry_space_group_name_H-M    P1
_symmetry_Int_Tables_number       1
_space_group_crystal_system       triclinic
_cell_length_a                    27.761212
_cell_length_b                    18.668003
_cell_length_c                    16.802564
_cell_angle_alpha                 89.896065
_cell_angle_beta                  63.536973
_cell_angle_gamma                 89.814417
_cell_volume                      7795.4344825

loop_
_atom_site_label
_atom_site_type_symbol
_atom_type_description
_atom_site_fract_x
_atom_site_fract_y
_atom_site_fract_z
_atom_type_partial_charge
C1    C     C_R   0.295218 0.729761 0.328899 0.852103
C2    C     C_R   0.707617 0.275602 0.669529 0.867478
C3    C     C_R   0.704789 0.729179 0.671166 0.854667
C4    C     C_R   0.292467 0.275407 0.330417 0.873928
C5    C     C_R   0.795194 0.229755 0.328887 0.866685
C6    C     C_R   0.207523 0.775365 0.669641 0.875401
C7    C     C_R   0.204824 0.229651 0.671036 0.846676
C8    C     C_R   0.792583 0.775634 0.330379 0.860739
C9    C     C_R   0.396529 0.999164 0.511660 0.071491
C10   C     C_R   0.583334 0.999411 0.564270 0.079272
C11   C     C_R   0.915589 0.499096 0.441006 0.077112
C12   C     C_R   0.101965 0.499720 0.494764 0.070428
C13   C     C_R   0.579567 0.869710 0.572064 -0.212816
C14   C     C_R   0.380557 0.123464 0.559527 -0.178907
C15   C     C_R   0.412850 0.873053 0.472885 -0.213691
C16   C     C_R   0.575168 0.128118 0.586424 -0.161150
C17   C     C_R   0.084748 0.374785 0.539386 -0.218103
C18   C     C_R   0.924549 0.627256 0.414365 -0.166595
C19   C     C_R   0.918815 0.369356 0.438533 -0.226523
C20   C     C_R   0.118784 0.622885 0.442437 -0.179003
C21   C     C_R   0.246647 0.812997 0.931073 -0.006910
C22   C     C_R   0.801657 0.275979 0.031251 0.001832
C23   C     C_R   0.756507 0.813886 0.066520 -0.011702
C24   C     C_R   0.198831 0.274914 0.967972 0.001426
C25   C     C_R   0.747171 0.313789 0.930201 -0.004266
C26   C     C_R   0.301524 0.775923 0.031733 0.001531
C27   C     C_R   0.253733 0.312312 0.068380 -0.006829
C28   C     C_R   0.704496 0.766079 0.965975 0.005888
C29   C     C_R   0.294263 0.770630 0.891713 -0.081166
C30   C     C_R   0.755649 0.321491 0.069658 -0.062049
C31   C     C_R   0.709551 0.773336 0.107687 -0.079491
C32   C     C_R   0.244677 0.320462 0.929322 -0.058733
C33   C     C_R   0.795112 0.271998 0.890309 -0.081550
C34   C     C_R   0.255539 0.821496 0.070165 -0.058493
C35   C     C_R   0.206122 0.270199 0.108124 -0.081690
C36   C     C_R   0.744064 0.821505 0.929541 -0.059867
C37   C     C_R   0.324510 0.759107 0.940372 0.071423
C38   C     C_R   0.732120 0.345908 0.014104 0.074434
C39   C     C_R   0.688772 0.741365 0.053928 0.109903
C40   C     C_R   0.268521 0.344525 0.984515 0.061452
C41   C     C_R   0.825015 0.259751 0.939595 0.071002
C42   C     C_R   0.231803 0.845568 0.014701 0.061673
C43   C     C_R   0.175956 0.258247 0.059406 0.071434
C44   C     C_R   0.770046 0.845659 0.982601 0.065171
C45   C     C_R   0.167069 0.867395 0.924772 0.030635
C46   C     C_R   0.870105 0.199755 0.046062 0.005730
C47   C     C_R   0.834794 0.867859 0.073384 0.031846
C48   C     C_R   0.130136 0.199187 0.953876 0.005848
C49   C     C_R   0.667237 0.367771 0.924579 0.038036
C50   C     C_R   0.370192 0.699901 0.046081 0.005942
C51   C     C_R   0.333205 0.366843 0.074520 0.031265
C52   C     C_R   0.647822 0.672057 0.946688 0.018139
C53   C     C_R   0.127757 0.864568 0.890956 -0.161968
C54   C     C_R   0.883262 0.153788 0.101829 -0.227700
C55   C     C_R   0.873427 0.864559 0.108299 -0.164626
C56   C     C_R   0.116646 0.153744 0.898232 -0.228474
C57   C     C_R   0.627863 0.364792 0.890894 -0.164300
C58   C     C_R   0.383437 0.653992 0.101739 -0.227631
C59   C     C_R   0.372347 0.364472 0.108877 -0.161903
C60   C     C_R   0.625721 0.639340 0.893490 -0.222801
C61   C     C_R   0.138489 0.821331 0.816009 0.233671
C62   C     C_R   0.850285 0.156684 0.194551 0.371707
C63   C     C_R   0.862481 0.821250 0.183630 0.251121
C64   C     C_R   0.149520 0.156724 0.805526 0.374752
C65   C     C_R   0.638627 0.321522 0.815979 0.255972
C66   C     C_R   0.350500 0.656862 0.194429 0.374321
C67   C     C_R   0.361578 0.321396 0.184089 0.230817
C68   C     C_R   0.652270 0.650356 0.801447 0.368400
C69   C     C_R   0.191748 0.797964 0.762863 -0.172652
C70   C     C_R   0.818120 0.218066 0.231420 -0.219934
C71   C     C_R   0.809010 0.799024 0.237024 -0.166516
C72   C     C_R   0.181724 0.217936 0.768539 -0.216495
C73   C     C_R   0.691978 0.298656 0.762520 -0.165988
C74   C     C_R   0.318291 0.718214 0.231425 -0.213674
C75   C     C_R   0.308332 0.298139 0.237140 -0.172294
C76   C     C_R   0.682450 0.713835 0.768182 -0.223734
C77   C     C_R   0.229285 0.796273 0.800789 -0.036357
C78   C     C_R   0.803333 0.261532 0.175251 -0.043561
C79   C     C_R   0.771623 0.800022 0.199347 -0.051916
C80   C     C_R   0.196420 0.261232 0.824618 -0.049147
C81   C     C_R   0.729731 0.297682 0.799977 -0.042992
C82   C     C_R   0.303568 0.761801 0.175341 -0.048123
C83   C     C_R   0.270897 0.296564 0.199067 -0.037376
C84   C     C_R   0.695687 0.756610 0.826772 -0.050627
C85   C     C_R   0.200262 0.631030 0.514620 0.877387
C86   C     C_R   0.803439 0.368221 0.471794 0.772460
C87   C     C_R   0.804035 0.631985 0.469817 0.869302
C88   C     C_R   0.196838 0.368534 0.525999 0.768935
C89   C     C_R   0.695997 0.131943 0.530108 0.872703
C90   C     C_R   0.302943 0.868651 0.475241 0.771344
C91   C     C_R   0.299767 0.131054 0.485609 0.875428
C92   C     C_R   0.696429 0.868131 0.528842 0.774439
C93   C     C_R   0.213554 0.823773 0.886520 0.073351
C94   C     C_R   0.824561 0.245192 0.084540 0.080949
C95   C     C_R   0.788511 0.825476 0.112054 0.074970
C96   C     C_R   0.175600 0.244530 0.915140 0.078434
C97   C     C_R   0.713940 0.324581 0.885901 0.073587
C98   C     C_R   0.324667 0.745386 0.084724 0.078752
C99   C     C_R   0.286770 0.323383 0.112969 0.073668
C100  C     C_R   0.682409 0.731958 0.913267 0.074596
C101  C     C_R   0.164003 0.914469 0.992428 -0.108359
C102  C     C_R   0.900382 0.203460 0.953283 -0.152043
C103  C     C_R   0.837738 0.914657 0.005077 -0.114922
C104  C     C_R   0.100310 0.202464 0.046765 -0.150795
C105  C     C_R   0.664085 0.414662 0.992406 -0.123090
C106  C     C_R   0.400222 0.703286 0.953231 -0.145570
C107  C     C_R   0.336271 0.413443 0.006289 -0.109250
C108  C     C_R   0.640801 0.643054 0.028559 -0.149484
C109  C     C_R   0.196487 0.904226 0.035328 -0.089555
C110  C     C_R   0.878588 0.235159 0.901285 -0.102741
C111  C     C_R   0.805081 0.904473 0.962227 -0.085588
C112  C     C_R   0.122466 0.233627 0.098337 -0.101491
C113  C     C_R   0.696732 0.404511 0.035009 -0.109332
C114  C     C_R   0.378080 0.734503 0.901497 -0.102861
C115  C     C_R   0.303797 0.403019 0.963461 -0.089000
C116  C     C_R   0.659624 0.677719 0.081496 -0.100354
C117  C     C_R   0.281763 0.766877 0.758097 -0.207262
C118  C     C_R   0.765688 0.317956 0.206569 -0.217091
C119  C     C_R   0.716635 0.781645 0.246101 -0.207392
C120  C     C_R   0.233625 0.317871 0.793303 -0.217529
C121  C     C_R   0.782597 0.269838 0.756394 -0.203040
C122  C     C_R   0.266047 0.818357 0.206688 -0.216496
C123  C     C_R   0.218307 0.268020 0.242119 -0.203795
C124  C     C_R   0.726158 0.819598 0.799068 -0.205736
C125  C     C_R   0.308826 0.742663 0.805395 0.378375
C126  C     C_R   0.736086 0.339103 0.161644 0.312933
C127  C     C_R   0.685495 0.767868 0.201525 0.394869
C128  C     C_R   0.263590 0.338655 0.837577 0.310044
C129  C     C_R   0.810180 0.245565 0.802953 0.378918
C130  C     C_R   0.236296 0.839502 0.161993 0.309966
C131  C     C_R   0.191397 0.243191 0.195030 0.379512
C132  C     C_R   0.756704 0.844925 0.840779 0.311305
C133  C     C_R   0.923818 0.906739 0.068012 0.918398
C134  C     C_R   0.073083 0.098627 0.934442 0.813106
C135  C     C_R   0.076765 0.907104 0.931629 0.914363
C136  C     C_R   0.926821 0.098544 0.065602 0.813430
C137  C     C_R   0.423240 0.407123 0.068386 0.913426
C138  C     C_R   0.577029 0.592441 0.931554 0.814354
C139  C     C_R   0.576804 0.407171 0.931606 0.902232
C140  C     C_R   0.426924 0.598665 0.065513 0.832306
C141  C     C_R   0.071739 0.624179 0.431515 0.067538
C142  C     C_R   0.961168 0.369332 0.461087 0.072255
C143  C     C_R   0.974735 0.626269 0.415841 0.070662
C144  C     C_R   0.044064 0.372263 0.512570 0.074078
C145  C     C_R   0.524702 0.127109 0.585888 0.071351
C146  C     C_R   0.452413 0.870825 0.502333 0.068196
C147  C     C_R   0.427480 0.124830 0.570823 0.066855
C148  C     C_R   0.535636 0.869021 0.553318 0.085650
C149  C     C_R   0.055332 0.686609 0.403278 -0.134255
C150  C     C_R   0.979254 0.305354 0.482751 -0.122846
C151  C     C_R   0.006656 0.688049 0.397115 -0.120414
C152  C     C_R   0.018910 0.307271 0.512258 -0.121053
C153  C     C_R   0.493210 0.189383 0.602285 -0.115456
C154  C     C_R   0.476272 0.805638 0.507304 -0.087490
C155  C     C_R   0.444435 0.187893 0.596426 -0.129411
C156  C     C_R   0.515964 0.804441 0.536856 -0.072791
C157  C     C_R   0.993060 0.562581 0.437992 0.031832
C158  C     C_R   0.028756 0.435360 0.484310 0.030242
C159  C     C_R   0.040452 0.562152 0.449219 0.037123
C160  C     C_R   0.984823 0.434544 0.464296 0.031515
C161  C     C_R   0.458163 0.062282 0.555955 0.038259
C162  C     C_R   0.512459 0.934165 0.547221 0.037000
C163  C     C_R   0.505678 0.062894 0.566890 0.033278
C164  C     C_R   0.468365 0.934564 0.527473 0.035035
C165  C     C_R   0.441180 0.998787 0.531059 -0.027284
C166  C     C_R   0.533497 0.998869 0.560645 -0.029443
C167  C     C_R   0.964802 0.498771 0.446704 -0.032461
C168  C     C_R   0.056833 0.499260 0.476879 -0.030784
C169  C     C_R   0.380866 0.935141 0.484226 0.050951
C170  C     C_R   0.607558 0.065447 0.566996 0.036801
C171  C     C_R   0.609048 0.933679 0.562816 0.051358
C172  C     C_R   0.367377 0.063286 0.521083 0.046711
C173  C     C_R   0.889968 0.433369 0.443134 0.045811
C174  C     C_R   0.131846 0.563308 0.482225 0.045709
C175  C     C_R   0.117622 0.436111 0.523331 0.048129
C176  C     C_R   0.891995 0.564970 0.435122 0.033078
C177  C     C_R   0.332861 0.935172 0.472493 -0.106327
C178  C     C_R   0.662775 0.065637 0.550319 -0.100957
C179  C     C_R   0.663406 0.934254 0.548992 -0.106407
C180  C     C_R   0.326016 0.064347 0.492527 -0.064972
C181  C     C_R   0.836323 0.434152 0.453035 -0.106311
C182  C     C_R   0.173873 0.564369 0.509107 -0.067521
C183  C     C_R   0.166667 0.435474 0.531220 -0.109089
C184  C     C_R   0.837153 0.565466 0.450157 -0.102040
C185  C     C_R   0.308543 0.000268 0.471508 -0.220853
C186  C     C_R   0.689060 0.999987 0.543175 -0.213449
C187  C     C_R   0.811037 0.499991 0.456629 -0.217525
C188  C     C_R   0.191703 0.500279 0.529973 -0.221275
Cu1   Cu    Cu3+1 0.209920 0.785290 0.495070 1.070734
Cu2   Cu    Cu3+1 0.790080 0.214710 0.504930 1.060432
Cu3   Cu    Cu3+1 0.790080 0.785290 0.504930 1.084625
Cu4   Cu    Cu3+1 0.209920 0.214710 0.495070 1.059913
Cu5   Cu    Cu3+1 0.709920 0.285290 0.495070 1.071284
Cu6   Cu    Cu3+1 0.290080 0.714710 0.504930 1.059715
Cu7   Cu    Cu3+1 0.290080 0.285290 0.504930 1.071909
Cu8   Cu    Cu3+1 0.709920 0.714710 0.495070 1.040594
Cu9   Cu    Cu3+1 0.495240 0.500000 0.924150 1.109069
Cu10  Cu    Cu3+1 0.504760 0.500000 0.075850 1.104022
Cu11  Cu    Cu3+1 0.995240 0.000000 0.924150 1.106296
Cu12  Cu    Cu3+1 0.004760 0.000000 0.075850 1.105509
O1    O     O_R   0.255040 0.869590 0.478480 -0.585017
O2    O     O_R   0.744960 0.130410 0.521520 -0.550413
O3    O     O_R   0.744960 0.869590 0.521520 -0.582518
O4    O     O_R   0.255040 0.130410 0.478480 -0.554694
O5    O     O_R   0.755040 0.369590 0.478480 -0.590989
O6    O     O_R   0.244960 0.630410 0.521520 -0.556041
O7    O     O_R   0.244960 0.369590 0.521520 -0.585208
O8    O     O_R   0.755040 0.630410 0.478480 -0.556609
O9    O     O_R   0.182050 0.796550 0.624440 -0.536018
O10   O     O_R   0.817950 0.203450 0.375560 -0.526090
O11   O     O_R   0.817950 0.796550 0.375560 -0.543744
O12   O     O_R   0.182050 0.203450 0.624440 -0.524180
O13   O     O_R   0.682050 0.296550 0.624440 -0.546713
O14   O     O_R   0.317950 0.703450 0.375560 -0.522542
O15   O     O_R   0.317950 0.296550 0.375560 -0.535252
O16   O     O_R   0.682050 0.703450 0.624440 -0.519694
O17   O     O_R   0.250530 0.763330 0.367210 -0.601572
O18   O     O_R   0.749470 0.236670 0.632790 -0.598906
O19   O     O_R   0.749470 0.763330 0.632790 -0.572151
O20   O     O_R   0.250530 0.236670 0.367210 -0.594306
O21   O     O_R   0.750530 0.263330 0.367210 -0.581267
O22   O     O_R   0.249470 0.736670 0.632790 -0.596853
O23   O     O_R   0.249470 0.263330 0.632790 -0.600728
O24   O     O_R   0.750530 0.736670 0.367210 -0.611312
O25   O     O_R   0.177260 0.690030 0.513710 -0.582664
O26   O     O_R   0.822740 0.309970 0.486290 -0.617193
O27   O     O_R   0.822740 0.690030 0.486290 -0.581194
O28   O     O_R   0.177260 0.309970 0.513710 -0.614434
O29   O     O_R   0.677260 0.190030 0.513710 -0.579476
O30   O     O_R   0.322740 0.809970 0.486290 -0.617968
O31   O     O_R   0.322740 0.190030 0.486290 -0.581946
O32   O     O_R   0.677260 0.809970 0.513710 -0.608789
O33   O     O_R   0.051640 0.926880 0.885090 -0.519720
O34   O     O_R   0.948360 0.073120 0.114910 -0.530274
O35   O     O_R   0.948360 0.926880 0.114910 -0.522170
O36   O     O_R   0.051640 0.073120 0.885090 -0.529121
O37   O     O_R   0.551640 0.426880 0.885090 -0.518410
O38   O     O_R   0.448360 0.573120 0.114910 -0.517807
O39   O     O_R   0.448360 0.426880 0.114910 -0.518470
O40   O     O_R   0.551640 0.573120 0.885090 -0.530032
O41   O     O_R   0.940620 0.926560 0.986760 -0.586577
O42   O     O_R   0.059380 0.073440 0.013240 -0.612573
O43   O     O_R   0.059380 0.926560 0.013240 -0.583521
O44   O     O_R   0.940620 0.073440 0.986760 -0.611761
O45   O     O_R   0.440620 0.426560 0.986760 -0.583959
O46   O     O_R   0.559380 0.573440 0.013240 -0.629089
O47   O     O_R   0.559380 0.426560 0.013240 -0.586755
O48   O     O_R   0.440620 0.573440 0.986760 -0.611727
H1    H     H_    0.533649 0.753619 0.541114 0.159692
H2    H     H_    0.421007 0.236670 0.608738 0.208574
H3    H     H_    0.463535 0.755647 0.490061 0.163178
H4    H     H_    0.506500 0.239281 0.618731 0.194492
H5    H     H_    0.030975 0.257823 0.532263 0.161082
H6    H     H_    0.993852 0.737485 0.378344 0.196217
H7    H     H_    0.960922 0.254550 0.481161 0.164070
H8    H     H_    0.079212 0.734946 0.388825 0.208010
H9    H     H_    0.274232 0.000730 0.456956 0.190944
H10   H     H_    0.731177 0.000050 0.528791 0.203106
H11   H     H_    0.769285 0.500277 0.468842 0.200116
H12   H     H_    0.226806 0.500476 0.542394 0.192324
H13   H     H_    0.590019 0.819449 0.591866 0.173356
H14   H     H_    0.354667 0.169593 0.583507 0.189016
H15   H     H_    0.409448 0.825986 0.438820 0.178881
H16   H     H_    0.587748 0.177866 0.603737 0.210128
H17   H     H_    0.089139 0.328480 0.574078 0.175133
H18   H     H_    0.912330 0.676559 0.394993 0.211873
H19   H     H_    0.909691 0.318559 0.418464 0.180822
H20   H     H_    0.145009 0.668403 0.416860 0.188114
S1    S     S_3+6 0.084398 0.787412 0.796286 0.079392
O49   O     O_2   0.098902 0.714928 0.753028 -0.257572
O50   O     O_2   0.034462 0.779657 0.882811 -0.227574
O51   O     O_3   0.071178 0.843149 0.729491 -0.449043
H21   H     H_    0.097317 0.882858 0.715034 0.338522
S2    S     S_3+6 0.838142 0.076923 0.260280 0.017619
O52   O     O_2   0.781611 0.076594 0.333706 -0.302149
O53   O     O_2   0.845022 0.011990 0.203579 -0.347590
O54   O     O_3   0.881740 0.072657 0.304594 -0.504672
H22   H     H_    0.873836 0.026566 0.337222 0.363961
S3    S     S_3+6 0.916271 0.786566 0.203864 0.054673
O55   O     O_2   0.901690 0.713525 0.245457 -0.301387
O56   O     O_2   0.966684 0.779705 0.117856 -0.225168
O57   O     O_3   0.928541 0.840877 0.272642 -0.472592
H23   H     H_    0.903817 0.882175 0.284411 0.343045
S4    S     S_3+6 0.161779 0.076914 0.740164 0.009076
O58   O     O_2   0.218526 0.076064 0.667757 -0.327516
O59   O     O_2   0.154431 0.011938 0.797156 -0.351023
O60   O     O_3   0.118808 0.073246 0.694616 -0.501447
H24   H     H_    0.126929 0.027191 0.661957 0.364336
S5    S     S_3+6 0.584564 0.286655 0.796891 0.060312
O61   O     O_2   0.599267 0.213660 0.755164 -0.296888
O62   O     O_2   0.534563 0.279610 0.883449 -0.221588
O63   O     O_3   0.571378 0.340978 0.728819 -0.473606
H25   H     H_    0.596303 0.381983 0.715871 0.348256
S6    S     S_3+6 0.338195 0.576920 0.259752 0.008820
O64   O     O_2   0.281420 0.576381 0.332090 -0.328805
O65   O     O_2   0.345582 0.512088 0.202700 -0.352900
O66   O     O_3   0.381108 0.572640 0.305410 -0.496103
H26   H     H_    0.372352 0.527118 0.339272 0.364830
S7    S     S_3+6 0.415681 0.287467 0.204181 0.085898
O67   O     O_2   0.401386 0.215003 0.247548 -0.253185
O68   O     O_2   0.465743 0.279653 0.117814 -0.220134
O69   O     O_3   0.428548 0.343227 0.271038 -0.444191
H27   H     H_    0.402356 0.383039 0.285131 0.338485
S8    S     S_3+6 0.660861 0.574916 0.730536 0.009425
O70   O     O_2   0.717098 0.573490 0.656368 -0.307507
O71   O     O_2   0.652088 0.506362 0.781939 -0.357567
O72   O     O_3   0.616485 0.580016 0.687835 -0.505150
H28   H     H_    0.623218 0.536553 0.650599 0.364577
H29   H     H_    0.138127 0.960891 0.011845 0.186944
H30   H     H_    0.940905 0.182782 0.919697 0.166700
H31   H     H_    0.862888 0.961605 0.986155 0.188589
H32   H     H_    0.059883 0.181836 0.080801 0.167216
H33   H     H_    0.637956 0.460762 0.012278 0.157928
H34   H     H_    0.440693 0.682483 0.919380 0.169369
H35   H     H_    0.362037 0.459776 0.986458 0.186952
H36   H     H_    0.625010 0.590391 0.050980 0.172769
H37   H     H_    0.194162 0.943434 0.083599 0.220164
H38   H     H_    0.904009 0.239636 0.831148 0.207927
H39   H     H_    0.806437 0.945108 0.916362 0.230770
H40   H     H_    0.097438 0.237596 0.168698 0.206664
H41   H     H_    0.694315 0.443553 0.083535 0.199989
H42   H     H_    0.403062 0.738320 0.831090 0.205360
H43   H     H_    0.306017 0.442119 0.915026 0.220637
H44   H     H_    0.654519 0.651145 0.141998 0.190357
H45   H     H_    0.303614 0.758068 0.688141 0.212971
H46   H     H_    0.755301 0.343931 0.269083 0.190894
H47   H     H_    0.695580 0.782123 0.317495 0.215940
H48   H     H_    0.243316 0.344315 0.731213 0.197196
H49   H     H_    0.804283 0.262715 0.686028 0.212515
H50   H     H_    0.255929 0.844435 0.269068 0.197883
H51   H     H_    0.196285 0.260539 0.312344 0.213142
H52   H     H_    0.730450 0.846940 0.739756 0.187427
S9    S     S_3+6 0.350381 0.665997 0.757777 -0.003596
O73   O     O_2   0.350330 0.616541 0.828541 -0.261179
O74   O     O_2   0.329146 0.625571 0.702767 -0.267154
O75   O     O_3   0.413525 0.692267 0.690339 -0.589368
H53   H     H_    0.433752 0.647333 0.665755 0.388806
S10   S     S_3+6 0.670039 0.370971 0.233095 0.022992
O76   O     O_2   0.630040 0.346751 0.201206 -0.206500
O77   O     O_2   0.652550 0.341841 0.325361 -0.254694
O78   O     O_3   0.669726 0.460941 0.238893 -0.530739
H54   H     H_    0.697335 0.472619 0.259000 0.337892
S11   S     S_3+6 0.614815 0.761444 0.267172 -0.016593
O79   O     O_2   0.601129 0.687970 0.307706 -0.300147
O80   O     O_2   0.597738 0.816016 0.340381 -0.299044
O81   O     O_3   0.581403 0.777514 0.206490 -0.520639
H55   H     H_    0.542889 0.772066 0.248722 0.375671
S12   S     S_3+6 0.329221 0.370956 0.765398 0.005044
O82   O     O_2   0.369928 0.345987 0.795611 -0.236404
O83   O     O_2   0.346013 0.342992 0.672882 -0.300305
O84   O     O_3   0.329040 0.460964 0.760987 -0.463862
H56   H     H_    0.300342 0.473119 0.743436 0.358011
S13   S     S_3+6 0.853701 0.171245 0.751918 0.004487
O85   O     O_2   0.854441 0.119841 0.820353 -0.248282
O86   O     O_2   0.833978 0.131878 0.694106 -0.251919
O87   O     O_3   0.916272 0.200887 0.686754 -0.591032
H57   H     H_    0.937532 0.157243 0.659221 0.384185
S14   S     S_3+6 0.170482 0.871927 0.233666 0.005314
O88   O     O_2   0.130092 0.847206 0.202878 -0.235834
O89   O     O_2   0.153404 0.843826 0.326265 -0.300094
O90   O     O_3   0.170422 0.961925 0.238108 -0.464149
H58   H     H_    0.198850 0.973925 0.256221 0.358713
S15   S     S_3+6 0.149715 0.167174 0.244158 -0.003158
O91   O     O_2   0.149638 0.116885 0.174421 -0.260720
O92   O     O_2   0.170903 0.127354 0.299927 -0.269176
O93   O     O_3   0.086636 0.194411 0.311130 -0.581676
H59   H     H_    0.066330 0.149828 0.336728 0.387328
S16   S     S_3+6 0.815528 0.892405 0.767038 0.025618
O94   O     O_2   0.863257 0.871418 0.781777 -0.225179
O95   O     O_2   0.828722 0.875185 0.672085 -0.262416
O96   O     O_3   0.804820 0.981201 0.781397 -0.465631
H60   H     H_    0.773092 0.990507 0.770550 0.353370

loop_
_geom_bond_atom_site_label_1
_geom_bond_atom_site_label_2
_ccdc_geom_bond_type
C85   C182  S    
C139  O37   A    
Cu6   O30   S    
C9    C169  A    
C34   C42   A    
C139  O47   A    
C7    O12   A    
C181  C187  A    
C121  H49   S    
S9    O73   D    
C149  H8    S    
C5    O10   A    
C27   C99   A    
O57   H23   S    
C170  C178  A    
C12   C174  A    
S4    O58   D    
C42   C109  A    
C24   C96   A    
C92   O32   A    
C33   C129  A    
C62   C70   A    
S14   O90   S    
S2    O52   D    
C135  O43   A    
Cu3   Cu8   S    
Cu9   O37   S    
Cu1   Cu6   S    
S8    O72   S    
O51   H21   S    
C8    O11   A    
C147  C155  A    
Cu6   O22   S    
C131  S15   S    
C143  C151  A    
C90   C177  S    
Cu11  Cu12  S    
C11   C167  A    
C82   C98   A    
C20   H20   S    
Cu3   O3    S    
C73   C81   A    
S16   O94   D    
S13   O86   D    
Cu1   O17   S    
Cu11  O44   S    
C162  C164  A    
C130  S14   S    
C84   C100  A    
Cu4   Cu7   S    
C57   C65   A    
C18   H18   S    
C115  H43   S    
C156  H1    S    
C37   C114  A    
C27   C35   A    
C10   C171  A    
C55   C133  S    
C21   C29   A    
C81   C121  A    
C23   C31   A    
C24   C32   A    
C5    C70   S    
C138  O46   A    
C7    O23   A    
C146  C154  A    
Cu10  O47   S    
Cu4   O4    S    
C85   O25   A    
Cu5   O13   S    
Cu8   O24   S    
C92   O3    A    
C63   C71   A    
S1    O50   D    
C36   C44   A    
Cu12  O42   S    
C175  C183  A    
S9    O75   S    
C58   C140  S    
C176  C184  A    
C8    C71   S    
C48   C96   A    
S4    O60   S    
O75   H53   S    
C56   C134  S    
C111  H39   S    
C60   C68   A    
C148  C162  A    
Cu2   O10   S    
C183  C188  A    
C108  C116  A    
C152  H5    S    
C21   C93   A    
C124  H52   S    
C103  H31   S    
Cu9   O45   S    
S12   O82   D    
C23   C95   A    
S3    O56   D    
C15   H15   S    
C49   C97   A    
C21   C42   A    
C22   C41   A    
C107  H35   S    
C51   C107  A    
C91   O31   A    
C1    O14   A    
C2    O18   A    
C24   C43   A    
C134  O36   A    
C82   C122  A    
S16   O96   S    
C161  C165  A    
C17   C175  A    
C60   C138  S    
C6    O22   A    
C18   C176  A    
C6    C69   S    
Cu8   O8    S    
C29   C125  A    
C69   C77   A    
O84   H56   S    
C53   C135  S    
C31   C127  A    
C45   C93   A    
C174  C182  A    
C71   C79   A    
C179  C186  A    
C187  H11   S    
C11   C176  A    
C17   C144  A    
C1    C74   S    
C105  C113  A    
C18   C143  A    
C78   C118  A    
C78   C94   A    
C149  C151  A    
C66   S6    S    
C102  H30   S    
C49   C57   A    
C124  C132  A    
C62   S2    S    
Cu4   O12   S    
C52   C60   A    
C59   C67   A    
C53   C61   A    
C141  C159  A    
C20   C174  A    
Cu8   O32   S    
C136  O34   A    
C86   C181  S    
C56   C64   A    
C35   C43   A    
C91   O4    A    
S8    O71   D    
C89   O2    A    
C45   C53   A    
O54   H22   S    
C22   C94   A    
C171  C179  A    
C86   O5    A    
C169  C177  A    
C50   C98   A    
Cu5   O5    S    
C7    C72   S    
C104  C112  A    
Cu2   O2    S    
C145  C163  A    
C146  C164  A    
C14   C147  A    
C52   C100  A    
S12   O84   S    
C109  H37   S    
C16   C145  A    
C178  C186  A    
C137  O39   A    
C25   C38   A    
C137  O45   A    
C64   S4    S    
C46   C94   A    
C27   C40   A    
C10   C166  A    
C91   C180  S    
S5    O61   D    
C182  C188  A    
C89   C178  S    
S14   O89   D    
C127  S11   S    
C2    C73   S    
C25   C97   A    
S10   O77   D    
S11   O80   D    
S15   O93   S    
C67   C75   A    
C129  S13   S    
C19   H19   S    
C126  S10   S    
C22   C30   A    
C67   S7    S    
Cu2   O26   S    
Cu7   O15   S    
C20   C141  A    
C15   C146  A    
C112  H40   S    
S10   O78   S    
C184  C187  A    
C32   C128  A    
S4    O59   D    
C72   C80   A    
C63   S3    S    
C150  H7    S    
C88   O28   A    
C104  H32   S    
S2    O53   D    
Cu9   Cu10  S    
S7    O69   S    
C87   O8    A    
C13   C171  A    
C117  H45   S    
Cu3   O11   S    
C90   O30   A    
C113  H41   S    
C25   C33   A    
C119  C127  A    
S6    O65   D    
S2    O54   S    
C128  S12   S    
Cu12  O35   S    
Cu5   O29   S    
C76   C84   A    
C80   C120  A    
S13   O85   D    
C158  C168  A    
C6    O9    A    
C164  C165  A    
S6    O64   D    
Cu8   O16   S    
C40   C115  A    
C101  C109  A    
O96   H60   S    
S5    O63   S    
C177  C185  A    
C57   C139  S    
C103  C111  A    
O93   H59   S    
C134  O42   A    
C4    C75   S    
Cu10  O38   S    
Cu2   Cu5   S    
C161  C163  A    
C162  C166  A    
C4    O20   A    
C79   C119  A    
S15   O91   D    
C153  C155  A    
C154  C156  A    
C8    O24   A    
C172  C180  A    
Cu5   O21   S    
C68   S8    S    
C173  C181  A    
C157  C159  A    
C83   C99   A    
S1    O49   D    
C158  C160  A    
C74   C82   A    
Cu2   O18   S    
C61   S1    S    
S9    O74   D    
C153  H4    S    
C47   C103  A    
O72   H28   S    
C50   C58   A    
C163  C166  A    
S6    O66   S    
C147  C161  A    
C105  H33   S    
C38   C113  A    
C49   C105  A    
C54   C62   A    
C28   C39   A    
C3    O16   A    
C108  H36   S    
C23   C44   A    
S7    O67   D    
C19   C173  A    
C79   C95   A    
C92   C179  S    
O60   H24   S    
C123  H51   S    
C46   C54   A    
S12   O83   D    
C132  S16   S    
C45   C101  A    
C151  H6    S    
C185  H9    S    
C19   C142  A    
C87   O27   A    
C157  C167  A    
C102  C110  A    
C68   C76   A    
C88   O7    A    
C35   C131  A    
S13   O87   S    
Cu11  O41   S    
C65   S5    S    
C36   C132  A    
C123  C131  A    
C110  H38   S    
C121  C129  A    
Cu6   O14   S    
C120  C128  A    
C26   C37   A    
C10   C170  A    
C33   C41   A    
C142  C150  A    
C9    C165  A    
S3    O55   D    
Cu1   O9    S    
Cu11  O36   S    
C75   C83   A    
Cu10  O46   S    
C119  H47   S    
C77   C93   A    
C44   C111  A    
C16   C170  A    
Cu7   O7    S    
C28   C36   A    
C2    O13   A    
C3    O19   A    
C39   C116  A    
S1    O51   S    
C29   C37   A    
C50   C106  A    
C9    C172  A    
C1    O17   A    
C148  C156  A    
C83   C123  A    
C144  C152  A    
C66   C74   A    
C5    O21   A    
S11   O79   D    
C30   C126  A    
C70   C78   A    
O66   H26   S    
C141  C149  A    
O78   H54   S    
C46   C102  A    
C106  C114  A    
C125  S9    S    
O63   H25   S    
Cu12  O34   S    
C77   C117  A    
Cu9   O40   S    
C160  C167  A    
C154  H3    S    
C59   C137  S    
C48   C104  A    
C65   C73   A    
C159  C168  A    
C15   C169  A    
C133  O35   A    
S3    O57   S    
C17   H17   S    
Cu11  O33   S    
C133  O41   A    
C58   C66   A    
C135  O33   A    
C138  O40   A    
C80   C96   A    
C14   H14   S    
C90   O1    A    
C145  C153  A    
C28   C100  A    
C32   C40   A    
C52   C108  A    
C4    O15   A    
S15   O92   D    
C188  H12   S    
C155  H2    S    
C26   C34   A    
C85   O6    A    
C143  C157  A    
C51   C99   A    
Cu6   O6    S    
C11   C173  A    
C136  O44   A    
C14   C172  A    
Cu10  O39   S    
Cu3   O19   S    
C87   C184  S    
C88   C183  S    
Cu1   O1    S    
C55   C63   A    
C118  H46   S    
S16   O95   D    
C54   C136  S    
C140  O38   A    
Cu7   O31   S    
C3    C76   S    
S7    O68   D    
Cu12  O43   S    
C107  C115  A    
C26   C98   A    
C12   C175  A    
S8    O70   D    
C120  H48   S    
C41   C110  A    
C86   O26   A    
C150  C152  A    
C122  H50   S    
C51   C59   A    
C43   C112  A    
Cu4   O20   S    
C144  C158  A    
C116  H44   S    
C106  H34   S    
C47   C55   A    
C61   C69   A    
C48   C56   A    
O69   H27   S    
Cu3   O27   S    
Cu1   O25   S    
C142  C160  A    
C12   C168  A    
C84   C124  A    
C118  C126  A    
O90   H58   S    
Cu9   O48   S    
C13   C148  A    
Cu7   O23   S    
O81   H55   S    
C81   C97   A    
C186  H10   S    
O87   H57   S    
S5    O62   D    
C31   C39   A    
C140  O48   A    
C64   C72   A    
S14   O88   D    
C180  C185  A    
C16   H16   S    
Cu4   O28   S    
C101  H29   S    
C34   C130  A    
S10   O76   D    
S11   O81   S    
C47   C95   A    
C114  H42   S    
C30   C38   A    
C89   O29   A    
C117  C125  A    
C13   H13   S    
C122  C130  A    
