data_mof_unit_51926.cif
_audit_creation_date              2012-12-10T17:17:25-0500
_audit_creation_method            fapswitch 2.2
_symmetry_space_group_name_H-M    P1
_symmetry_Int_Tables_number       1
_space_group_crystal_system       triclinic
_cell_length_a                    27.723381
_cell_length_b                    13.059577
_cell_length_c                    11.690869
_cell_angle_alpha                 99.052445
_cell_angle_beta                  93.467261
_cell_angle_gamma                 91.67283
_cell_volume                      4169.1554487

loop_
_atom_site_label
_atom_site_type_symbol
_atom_type_description
_atom_site_fract_x
_atom_site_fract_y
_atom_site_fract_z
_atom_type_partial_charge
C1    C     C_R   0.499372 0.299386 0.479838 0.802628
C2    C     C_R   0.501661 0.700535 0.520576 0.820302
C3    C     C_R   0.101398 0.487567 0.526579 -0.122727
C4    C     C_R   0.898569 0.477376 0.544755 -0.115996
C5    C     C_R   0.127930 0.401774 0.550327 -0.127129
C6    C     C_R   0.874393 0.570467 0.575665 -0.128214
C7    C     C_R   0.102870 0.312659 0.574486 0.467415
C8    C     C_R   0.901553 0.665512 0.600016 0.463485
C9    C     C_R   0.125752 0.575947 0.500151 -0.077060
C10   C     C_R   0.871921 0.382507 0.518021 -0.079303
C11   C     C_R   0.354631 0.496840 0.503566 -0.192385
C12   C     C_R   0.644957 0.482368 0.499716 -0.169598
C13   C     C_R   0.974152 0.384911 0.523276 0.034932
C14   C     C_R   0.024659 0.576398 0.522226 0.034279
C15   C     C_R   0.975237 0.575295 0.547835 -0.009614
C16   C     C_R   0.025411 0.391339 0.539208 -0.011169
C17   C     C_R   0.949384 0.479117 0.538737 0.055763
C18   C     C_R   0.050419 0.485099 0.529087 0.055749
C19   C     C_R   0.946372 0.289764 0.491130 0.137696
C20   C     C_R   0.049547 0.663138 0.488686 0.137445
C21   C     C_R   0.896032 0.290328 0.489118 -0.140941
C22   C     C_R   0.099390 0.661295 0.478196 -0.134668
C23   C     C_R   0.407578 0.499006 0.500685 0.866802
C24   C     C_R   0.592395 0.496368 0.499312 0.891230
C25   C     C_R   0.052301 0.309522 0.570957 -0.320934
C26   C     C_R   0.951527 0.666316 0.588104 -0.321799
C27   C     C_R   0.502165 0.813343 0.532003 -0.152920
C28   C     C_R   0.500214 0.186608 0.470542 -0.140212
C29   C     C_R   0.507418 0.020464 0.349583 -0.196310
C30   C     C_R   0.489872 0.977962 0.650890 -0.187901
C31   C     C_R   0.504193 0.127082 0.361035 -0.288544
C32   C     C_R   0.491176 0.871005 0.638040 -0.285317
C33   C     C_R   0.497895 0.137473 0.569836 0.393828
C34   C     C_R   0.512266 0.864254 0.437704 0.423098
C35   C     C_R   0.497411 0.029015 0.556333 0.014161
C36   C     C_R   0.505374 0.970859 0.447064 0.017260
C37   C     C_R   0.452298 0.406002 0.023267 -0.388816
C38   C     C_R   0.547639 0.594476 0.976635 -0.376040
C39   C     C_R   0.457265 0.413346 0.145063 0.386253
C40   C     C_R   0.542861 0.586531 0.854668 0.388291
C41   C     C_R   0.521079 0.539791 0.155669 0.028305
C42   C     C_R   0.478929 0.460058 0.844191 0.010788
C43   C     C_R   0.517379 0.534146 0.033415 0.042325
C44   C     C_R   0.482446 0.466474 0.966516 0.035824
C45   C     C_R   0.178799 0.408646 0.550078 0.603783
C46   C     C_R   0.823563 0.565295 0.578252 0.610887
C47   C     C_R   0.175989 0.575723 0.492139 0.587930
C48   C     C_R   0.821307 0.382477 0.513584 0.590526
C49   C     C_R   0.282396 0.572568 0.584926 0.397946
C50   C     C_R   0.717017 0.417359 0.589784 0.412775
C51   C     C_R   0.332909 0.576305 0.576907 0.010358
C52   C     C_R   0.666237 0.417534 0.572966 -0.010152
C53   C     C_R   0.325738 0.415119 0.436529 -0.017454
C54   C     C_R   0.674098 0.535466 0.432018 0.004927
C55   C     C_R   0.275025 0.419471 0.434580 0.433305
C56   C     C_R   0.724624 0.528960 0.442364 0.380889
C57   C     C_R   0.253421 0.495564 0.511838 0.086363
C58   C     C_R   0.746183 0.473234 0.525005 0.087923
Cu1   Cu    Cu3+1 0.503580 0.507730 0.615930 0.976628
Cu2   Cu    Cu3+1 0.496420 0.492270 0.384070 0.975446
H1    H     H_    0.483518 0.833436 0.711588 0.187450
H2    H     H_    0.506018 0.163116 0.283957 0.182963
H3    H     H_    0.511453 0.977013 0.264066 0.187454
H4    H     H_    0.481694 0.020000 0.734336 0.182371
H5    H     H_    0.452388 0.407294 0.792019 0.153056
H6    H     H_    0.548039 0.590915 0.207610 0.138623
H7    H     H_    0.425268 0.352523 0.973677 0.145189
H8    H     H_    0.574771 0.647727 0.026203 0.140090
H9    H     H_    0.875723 0.217480 0.462200 0.194826
H10   H     H_    0.117392 0.727505 0.451400 0.191777
H11   H     H_    0.034588 0.244039 0.598799 0.161007
H12   H     H_    0.971814 0.738506 0.615796 0.159197
N1    N     N_R   0.201576 0.493273 0.517915 -0.437076
N2    N     N_R   0.798129 0.473194 0.542095 -0.434170
N3    N     N_R   0.508960 0.519350 0.790140 -0.179282
N4    N     N_R   0.491040 0.480650 0.209860 -0.178193
O1    O     O_R   0.502540 0.354460 0.582000 -0.564856
O2    O     O_R   0.497460 0.645540 0.418000 -0.549351
O3    O     O_R   0.496500 0.341410 0.386200 -0.579066
O4    O     O_R   0.503500 0.658590 0.613800 -0.570115
O5    O     O_R   0.433290 0.506540 0.597890 -0.567752
O6    O     O_R   0.566710 0.493460 0.402110 -0.581951
O7    O     O_R   0.427240 0.493490 0.402090 -0.556568
O8    O     O_R   0.572760 0.506510 0.597910 -0.548866
O9    O     O_2   0.205508 0.331958 0.582163 -0.488369
O10   O     O_2   0.799418 0.651551 0.613723 -0.492774
O11   O     O_2   0.795383 0.292861 0.477685 -0.536872
O12   O     O_2   0.199103 0.657050 0.458021 -0.536742
N5    N     N_3   0.346637 0.325492 0.372609 -0.572840
H13   H     H_    0.329190 0.259285 0.393085 0.250730
H14   H     H_    0.382563 0.319056 0.401798 0.225907
N6    N     N_3   0.652394 0.598225 0.354666 -0.597643
H15   H     H_    0.667267 0.673505 0.378065 0.245054
H16   H     H_    0.661869 0.570061 0.270615 0.225126
N7    N     N_3   0.573669 0.649591 0.798191 -0.526269
H17   H     H_    0.568632 0.727316 0.831737 0.190682
H18   H     H_    0.609516 0.633301 0.819394 0.194468
N8    N     N_3   0.426804 0.349272 0.200898 -0.523568
H19   H     H_    0.432632 0.271814 0.167757 0.189337
H20   H     H_    0.390908 0.363943 0.178091 0.214520
O13   O     O_3   0.246125 0.341523 0.367389 -0.581036
C59   C     C_3   0.244230 0.354945 0.249442 0.063809
H21   H     H_    0.238850 0.276668 0.196206 0.174581
H22   H     H_    0.278326 0.389313 0.222876 0.146358
C60   C     C_3   0.201393 0.420527 0.222166 -0.369544
H23   H     H_    0.168160 0.389974 0.255973 0.229815
H24   H     H_    0.208789 0.501903 0.265342 0.237307
C61   C     C_3   0.192856 0.419365 0.091858 -0.895222
H25   H     H_    0.225666 0.449703 0.056299 0.256375
H26   H     H_    0.162201 0.469059 0.075314 0.263507
H27   H     H_    0.183771 0.339162 0.046688 0.262905
O14   O     O_3   0.752878 0.587726 0.381185 -0.586231
C62   C     C_3   0.774777 0.522599 0.292247 0.044974
H28   H     H_    0.750280 0.512831 0.212426 0.145113
H29   H     H_    0.781693 0.443643 0.312892 0.155428
C63   C     C_3   0.822706 0.574632 0.268959 -0.326830
H30   H     H_    0.815374 0.635448 0.214221 0.210757
H31   H     H_    0.841157 0.612973 0.352164 0.224658
C64   C     C_3   0.857016 0.496981 0.209462 -0.909693
H32   H     H_    0.866537 0.438691 0.265971 0.264080
H33   H     H_    0.890798 0.538554 0.193144 0.258603
H34   H     H_    0.840279 0.456605 0.125341 0.263948
O15   O     O_3   0.127565 0.230561 0.608180 -0.568156
C65   C     C_3   0.123119 0.145397 0.516718 0.082011
H35   H     H_    0.136124 0.167968 0.435352 0.153972
H36   H     H_    0.084832 0.115731 0.500763 0.118057
C66   C     C_3   0.153924 0.058253 0.550265 -0.291729
H37   H     H_    0.192425 0.086082 0.564597 0.250970
H38   H     H_    0.141983 0.036319 0.632517 0.219460
C67   C     C_3   0.149649 0.962689 0.455967 -0.907859
H39   H     H_    0.111569 0.932123 0.442130 0.256508
H40   H     H_    0.172605 0.901248 0.482910 0.282130
H41   H     H_    0.161998 0.982382 0.373157 0.262568
O16   O     O_3   0.879861 0.757055 0.641364 -0.565640
C68   C     C_3   0.879555 0.822881 0.556196 0.083193
H42   H     H_    0.863321 0.781646 0.471192 0.138636
H43   H     H_    0.916931 0.851525 0.545113 0.119639
C69   C     C_3   0.849234 0.916317 0.595238 -0.288612
H44   H     H_    0.811596 0.889111 0.605450 0.249462
H45   H     H_    0.864579 0.957719 0.680656 0.220579
C70   C     C_3   0.848330 0.991555 0.507626 -0.911743
H46   H     H_    0.885566 0.021085 0.497496 0.255394
H47   H     H_    0.826120 0.058474 0.538674 0.279485
H48   H     H_    0.832250 0.952380 0.422003 0.263432
N9    N     N_3   0.635716 0.352003 0.628984 -0.580737
H49   H     H_    0.655860 0.305848 0.677736 0.246833
H50   H     H_    0.616379 0.300283 0.563664 0.197110
N10   N     N_3   0.362813 0.659776 0.643076 -0.555215
H51   H     H_    0.342719 0.710514 0.697771 0.256131
H52   H     H_    0.377163 0.703159 0.584318 0.215637
O17   O     O_3   0.738544 0.359631 0.666756 -0.576879
C71   C     C_3   0.739624 0.417338 0.779649 0.040798
H53   H     H_    0.703779 0.449989 0.799892 0.151468
H54   H     H_    0.767252 0.482263 0.788759 0.158577
C72   C     C_3   0.753035 0.345809 0.867034 -0.295838
H55   H     H_    0.729179 0.274407 0.849279 0.225736
H56   H     H_    0.791109 0.323029 0.857931 0.224994
C73   C     C_3   0.747349 0.399138 0.990739 -0.976355
H57   H     H_    0.768530 0.474053 0.007974 0.260259
H58   H     H_    0.760548 0.348521 0.052950 0.263068
H59   H     H_    0.708673 0.414103 0.004012 0.258308
O18   O     O_3   0.260817 0.648766 0.658312 -0.577980
C74   C     C_3   0.253100 0.612179 0.763342 0.041001
H60   H     H_    0.288293 0.598407 0.808636 0.146291
H61   H     H_    0.230451 0.538818 0.747682 0.159284
C75   C     C_3   0.226708 0.694145 0.841392 -0.313672
H62   H     H_    0.249741 0.766619 0.861864 0.223935
H63   H     H_    0.192510 0.711615 0.794815 0.232677
C76   C     C_3   0.214817 0.657151 0.954225 -0.915046
H64   H     H_    0.190230 0.587073 0.935291 0.261251
H65   H     H_    0.196454 0.719080 0.009693 0.265425
H66   H     H_    0.248415 0.638759 0.002357 0.259956
N11   N     N_3   0.966697 0.194243 0.441640 -0.613050
H67   H     H_    0.974375 0.149557 0.506642 0.207818
H68   H     H_    0.997373 0.207856 0.397684 0.229503
N12   N     N_3   0.025188 0.746813 0.446763 -0.614039
H69   H     H_    0.023265 0.808571 0.514726 0.208201
H70   H     H_    0.990885 0.722491 0.408469 0.228838
O19   O     O_3   0.529257 0.811117 0.336793 -0.612762
C77   C     C_3   0.580048 0.801809 0.352377 0.056727
H71   H     H_    0.590275 0.737558 0.285833 0.173339
H72   H     H_    0.591364 0.780318 0.438425 0.129940
C78   C     C_3   0.608176 0.900275 0.333386 -0.397253
H73   H     H_    0.595573 0.921937 0.248691 0.226824
H74   H     H_    0.601903 0.965248 0.403686 0.220963
C79   C     C_3   0.662481 0.884361 0.333596 -0.884899
H75   H     H_    0.676298 0.864913 0.418428 0.262156
H76   H     H_    0.681466 0.956957 0.319561 0.265967
H77   H     H_    0.670530 0.821210 0.262757 0.252108
O20   O     O_3   0.494513 0.194211 0.679635 -0.611707
C80   C     C_3   0.541158 0.209534 0.738257 0.049282
H78   H     H_    0.556713 0.285762 0.725356 0.205945
H79   H     H_    0.567119 0.148925 0.707403 0.114251
C81   C     C_3   0.536795 0.210332 0.868216 -0.346933
H80   H     H_    0.505238 0.255176 0.897232 0.239325
H81   H     H_    0.530776 0.129668 0.884862 0.199583
C82   C     C_3   0.582195 0.258306 0.939330 -0.904070
H82   H     H_    0.614406 0.214510 0.911902 0.253831
H83   H     H_    0.578102 0.255787 0.032761 0.256715
H84   H     H_    0.587745 0.340634 0.927958 0.261116

loop_
_geom_bond_atom_site_label_1
_geom_bond_atom_site_label_2
_ccdc_geom_bond_type
C68   C69   S    
C81   H81   S    
C29   H3    S    
Cu2   O3    S    
O20   C80   S    
C30   H4    S    
C72   H56   S    
C1    O1    A    
C76   H64   S    
C14   C18   A    
C45   O9    S    
N7    H17   S    
C78   H73   S    
Cu1   O1    S    
C66   H38   S    
N9    H49   S    
C49   C57   A    
O15   C65   S    
C20   N12   S    
N11   H67   S    
C61   H25   S    
C60   H24   S    
C29   C36   A    
Cu2   O2    S    
C42   N3    A    
C52   N9    S    
C23   O7    A    
C30   C35   A    
C3    C18   A    
C2    O2    A    
C19   C21   A    
N10   H52   S    
C32   H1    S    
O18   C74   S    
C10   C48   A    
C70   H47   S    
Cu2   O7    S    
C9    C22   A    
C81   C82   S    
C8    C26   A    
C63   H30   S    
C59   C60   S    
C45   N1    A    
C57   N1    S    
C11   C23   S    
C82   H83   S    
C24   O6    A    
C73   H59   S    
N9    H50   S    
Cu2   O6    S    
C50   O17   S    
C73   H58   S    
C74   H60   S    
C61   H26   S    
C49   C51   A    
C1    C28   S    
C50   C52   A    
O17   C71   S    
C2    C27   S    
C25   H11   S    
C56   C58   A    
N5    H14   S    
C23   O5    A    
C41   C43   A    
C11   C53   A    
C77   C78   S    
C62   C63   S    
C64   H33   S    
C81   H80   S    
Cu1   Cu2   S    
C27   C34   A    
C38   C40   A    
C72   C73   S    
C75   H63   S    
C76   H65   S    
C31   H2    S    
C34   O19   S    
C82   H82   S    
C42   C44   A    
O14   C62   S    
C12   C52   A    
C77   H72   S    
C53   C55   A    
C10   C21   A    
C60   C61   S    
C54   C56   A    
C13   C19   A    
C8    O16   S    
C80   H78   S    
C50   C58   A    
O13   C59   S    
C14   C20   A    
C68   H42   S    
C74   C75   S    
C11   C51   A    
Cu1   O8    S    
C47   N1    A    
C4    C6    A    
C78   C79   S    
C7    O15   S    
C5    C7    A    
C15   C26   A    
C6    C8    A    
C5    C45   A    
Cu2   N4    S    
C21   H9    S    
C33   O20   S    
C35   C36   A    
C82   H84   S    
C67   H40   S    
C43   C44   A    
C80   H79   S    
C40   N3    A    
C54   N6    S    
C3    C9    A    
C48   N2    A    
C42   H5    S    
C39   N8    S    
C71   C72   S    
C64   H32   S    
N6    H16   S    
C48   O11   S    
C61   H27   S    
C39   N4    A    
N10   H51   S    
C59   H22   S    
C49   O18   S    
O16   C68   S    
N11   H68   S    
C69   H45   S    
C79   H75   S    
C65   C66   S    
C4    C17   A    
C16   C18   A    
N12   H69   S    
C38   H8    S    
C28   C33   A    
C9    C47   A    
N8    H20   S    
C55   C57   A    
C53   N5    S    
C73   H57   S    
C1    O3    A    
C76   H66   S    
C70   H48   S    
C67   H41   S    
C56   O14   S    
C40   N7    S    
C79   H76   S    
C66   H37   S    
Cu1   N3    S    
C46   N2    A    
C77   H71   S    
C58   N2    S    
C65   H36   S    
C62   H28   S    
C71   H54   S    
C64   H34   S    
C16   C25   A    
C68   H43   S    
C55   O13   S    
C6    C46   A    
C74   H61   S    
C27   C32   A    
C28   C31   A    
Cu1   O5    S    
C20   C22   A    
C3    C5    A    
C69   C70   S    
Cu1   O4    S    
C19   N11   S    
N7    H18   S    
C15   C17   A    
C41   H6    S    
C60   H23   S    
C12   C24   S    
C7    C25   A    
C63   C64   S    
C13   C17   A    
C47   O12   S    
C37   C44   A    
C78   H74   S    
C67   H39   S    
C24   O8    A    
C66   C67   S    
C38   C43   A    
C37   C39   A    
C70   H46   S    
C41   N4    A    
C30   C32   A    
C75   H62   S    
C51   N10   S    
C79   H77   S    
C37   H7    S    
N12   H70   S    
N6    H15   S    
C33   C35   A    
C63   H31   S    
C34   C36   A    
C59   H21   S    
C80   C81   S    
C2    O4    A    
C69   H44   S    
O19   C77   S    
C71   H53   S    
C75   C76   S    
C29   C31   A    
N8    H19   S    
C26   H12   S    
C13   C16   A    
C72   H55   S    
C14   C15   A    
C62   H29   S    
N5    H13   S    
C4    C10   A    
C22   H10   S    
C12   C54   A    
C65   H35   S    
C46   O10   S    
