data_mof_unit_50466.cif
_audit_creation_date              2012-12-11T15:13:38-0500
_audit_creation_method            fapswitch 2.2
_symmetry_space_group_name_H-M    P1
_symmetry_Int_Tables_number       1
_space_group_crystal_system       triclinic
_cell_length_a                    6.944364
_cell_length_b                    13.552965
_cell_length_c                    20.08569
_cell_angle_alpha                 104.09954
_cell_angle_beta                  90.32191
_cell_angle_gamma                 90.303724
_cell_volume                      1833.3767916

loop_
_atom_site_label
_atom_site_type_symbol
_atom_type_description
_atom_site_fract_x
_atom_site_fract_y
_atom_site_fract_z
_atom_type_partial_charge
O1    O     O_R   0.506780 0.600060 0.449950 -0.537454
O2    O     O_R   0.179840 0.597110 0.589410 -0.546553
O3    O     O_R   0.004570 0.399940 0.550050 -0.539993
C1    C     C_R   0.348760 0.618875 0.616908 0.701442
O4    O     O_R   0.177380 0.612160 0.452890 -0.543270
O5    O     O_R   0.002100 0.415100 0.412560 -0.540633
C2    C     C_R   0.346024 0.638837 0.436276 0.694399
O6    O     O_R   0.509250 0.584900 0.587440 -0.544070
O7    O     O_3   0.337570 0.435330 0.486930 -0.367906
V1    V     V_3+5 0.064650 0.512000 0.502430 1.445758
O8    O     O_R   0.672090 0.402890 0.410590 -0.542187
C3    C     C_R   0.840271 0.381035 0.383106 0.716957
O9    O     O_R   0.674540 0.387840 0.547110 -0.538885
C4    C     C_R   0.843340 0.361198 0.563702 0.786294
V2    V     V_3+5 0.564040 0.488000 0.497570 1.461031
O10   O     O_3   0.840990 0.564670 0.513070 -0.378170
C5    C     C_R   0.858224 0.107446 0.607679 -0.245320
H1    H     H_    0.864615 0.981821 0.690145 0.116251
H2    H     H_    0.860418 0.027694 0.580860 0.143090
C6    C     C_R   0.851454 0.283671 0.602989 -0.158042
C7    C     C_R   0.860789 0.319071 0.933519 -0.293039
C8    C     C_R   0.855835 0.395716 0.898555 0.727022
C9    C     C_R   0.853279 0.371642 0.826982 -0.241062
C10   C     C_R   0.855839 0.269065 0.788245 0.003332
C11   C     C_R   0.859357 0.190862 0.824593 0.067313
C12   C     C_R   0.855664 0.241456 0.714823 0.124106
C13   C     C_R   0.858747 0.136719 0.679728 0.058359
C14   C     C_R   0.862113 0.061750 0.716592 -0.185587
C15   C     C_R   0.862358 0.088165 0.787793 -0.165515
C16   C     C_R   0.852494 0.313996 0.674731 -0.312574
C17   C     C_R   0.854158 0.180481 0.569479 0.603715
C18   C     C_R   0.861257 0.217053 0.897317 -0.169168
H3    H     H_    0.849732 0.394686 0.697352 0.128908
H4    H     H_    0.864741 0.339297 0.989155 0.131783
H5    H     H_    0.849941 0.435254 0.803711 0.160374
H6    H     H_    0.865233 0.026939 0.813778 0.108796
C19   C     C_3   0.682675 0.205579 0.233687 -0.140930
C20   C     C_3   0.807632 0.195549 0.295781 -0.122646
H7    H     H_    0.767875 0.151469 0.333617 0.150560
H8    H     H_    0.539844 0.168577 0.220583 0.107625
C21   C     C_3   0.848417 0.310686 0.312603 -0.018152
C22   C     C_3   0.723365 0.321603 0.251352 -0.124333
C23   C     C_3   0.903682 0.303426 0.204964 -0.144418
C24   C     C_3   0.028736 0.293232 0.267053 -0.117798
C25   C     C_3   0.987929 0.177257 0.249347 -0.121949
C26   C     C_3   0.863165 0.188231 0.187996 -0.009499
H9    H     H_    0.613811 0.381410 0.252718 0.159180
H10   H     H_    0.941726 0.347954 0.167231 0.113257
H11   H     H_    0.171572 0.329569 0.281528 0.112242
H12   H     H_    0.097514 0.117645 0.248039 0.103474
C27   C     C_3   0.539101 0.725126 0.730646 -0.193711
C28   C     C_3   0.457813 0.834879 0.749542 -0.224901
H13   H     H_    0.540628 0.905216 0.749672 0.132787
H14   H     H_    0.689442 0.703781 0.715216 0.125986
C29   C     C_3   0.356341 0.811921 0.812300 -0.105525
C30   C     C_3   0.436041 0.703639 0.793440 0.682214
C31   C     C_3   0.254534 0.665609 0.750115 -0.188645
C32   C     C_3   0.173982 0.775511 0.768947 -0.183730
C33   C     C_3   0.275237 0.797817 0.705439 -0.113187
C34   C     C_3   0.356274 0.688876 0.687484 -0.089268
H15   H     H_    0.172505 0.595152 0.750365 0.131551
H16   H     H_    0.023842 0.796712 0.784774 0.141709
H17   H     H_    0.208823 0.836625 0.668386 0.112890
C35   C     C_R   0.336422 0.892416 0.392613 -0.127825
H18   H     H_    0.329772 0.842427 0.486030 0.108972
H19   H     H_    0.312290 0.017188 0.310050 0.123348
H20   H     H_    0.320852 0.971650 0.419418 0.143197
C36   C     C_R   0.354272 0.716515 0.397141 -0.071950
C37   C     C_R   0.404693 0.684782 0.067472 -0.253691
C38   C     C_R   0.443050 0.610126 0.102090 0.416874
C39   C     C_R   0.444033 0.634606 0.174259 0.478892
C40   C     C_R   0.388600 0.732976 0.212549 -0.086583
C41   C     C_R   0.358382 0.809652 0.175985 -0.000847
C42   C     C_R   0.371047 0.759684 0.285760 0.124234
C43   C     C_R   0.347659 0.863627 0.320695 0.129194
C44   C     C_R   0.330723 0.937941 0.283714 -0.194455
C45   C     C_R   0.331012 0.911240 0.212537 -0.143493
C46   C     C_R   0.366593 0.686807 0.325565 -0.157677
C47   C     C_R   0.340943 0.819225 0.430626 -0.164180
C48   C     C_R   0.365431 0.784102 0.103401 -0.165347
H21   H     H_    0.361026 0.606286 0.302566 0.175233
H22   H     H_    0.415508 0.666159 0.011963 0.203115
H23   H     H_    0.312427 0.971551 0.186335 0.100591
O11   O     O_R   0.203580 0.914920 0.912610 -0.541228
O12   O     O_R   0.535710 0.887810 0.047120 -0.532452
O13   O     O_R   0.710730 0.084950 0.087430 -0.549516
C49   C     C_R   0.367786 0.862108 0.064414 0.761407
O14   O     O_R   0.533010 0.902850 0.910600 -0.531644
O15   O     O_R   0.708010 0.100090 0.949930 -0.543537
C50   C     C_R   0.364089 0.881318 0.883045 0.742717
O16   O     O_R   0.206300 0.899780 0.050100 -0.537032
O17   O     O_3   0.375170 0.064580 0.013100 -0.384927
V3    V     V_3+5 0.648200 0.988020 0.997570 1.471294
O18   O     O_R   0.038030 0.112330 0.952840 -0.544142
C51   C     C_R   0.869193 0.139216 0.936590 0.711329
O19   O     O_R   0.040730 0.097300 0.089360 -0.551236
C52   C     C_R   0.872395 0.118572 0.117115 0.668133
V4    V     V_3+5 0.148780 0.012220 0.002360 1.420768
O20   O     O_3   0.871930 0.935430 0.986900 -0.354871
F1    F     F_    0.852511 0.150621 0.499854 -0.710793
F2    F     F_    0.518769 0.655225 0.839537 -0.670671
F3    F     F_    0.518500 0.564343 0.204845 -0.724996
O21   O     O_3   0.502060 0.515851 0.064393 -0.532491
C53   C     C_3   0.367674 0.439904 0.070753 0.174451
H24   H     H_    0.285040 0.415707 0.021859 0.122280
H25   H     H_    0.259303 0.465434 0.112315 0.106712
C54   C     C_3   0.477079 0.348437 0.083216 -0.289055
H26   H     H_    0.536313 0.303289 0.033963 0.178775
H27   H     H_    0.599117 0.374831 0.119245 0.232591
C55   C     C_3   0.345578 0.281404 0.113891 -0.786265
H28   H     H_    0.301169 0.323180 0.166004 0.216735
H29   H     H_    0.423105 0.212307 0.118439 0.244338
H30   H     H_    0.216398 0.259277 0.080747 0.230810
F4    F     F_    0.854337 0.494491 0.934324 -0.639369

loop_
_geom_bond_atom_site_label_1
_geom_bond_atom_site_label_2
_ccdc_geom_bond_type
C24   H11   S    
C32   H16   S    
C29   C30   S    
H18   C47   S    
C49   O16   A    
C21   C22   S    
O12   V3    S    
C1    O6    A    
C53   H25   S    
O17   V4    S    
C6    C16   A    
C25   C26   S    
C24   C25   S    
C15   H6    S    
C12   C13   A    
C19   C20   S    
C14   C15   A    
C28   C33   S    
C10   C12   A    
C30   F2    S    
C48   C49   S    
O5    C3    A    
C20   H7    S    
O18   V4    S    
V2    O10   S    
C30   C31   S    
C27   C30   S    
C19   C22   S    
O13   C52   A    
C55   H28   S    
C20   C25   S    
C37   H22   S    
C5    H2    S    
C2    C36   S    
O8    V2    S    
C41   C48   A    
O19   V4    S    
C54   H26   S    
C38   C39   A    
O1    V2    S    
C23   H10   S    
V3    O20   S    
C28   C29   S    
C11   C18   A    
C33   C34   S    
O9    C4    A    
C11   C15   A    
C54   H27   S    
O18   C51   A    
O11   C50   A    
C53   H24   S    
O12   C49   A    
C36   C46   A    
C7    C18   A    
C42   C43   A    
C27   C28   S    
C5    C13   A    
C35   H20   S    
C4    C6    S    
H1    C14   S    
C10   C11   A    
C20   C21   S    
C40   C42   A    
O4    C2    A    
C38   O21   S    
C29   C50   S    
C31   C34   S    
C7    H4    S    
C32   C33   S    
O15   C51   A    
O2    C1    A    
C43   C44   A    
C3    C21   S    
O13   V3    S    
C9    C10   A    
H19   C44   S    
O19   C52   A    
C1    C34   S    
C17   F1    S    
C44   C45   A    
C55   H30   S    
O3    C4    A    
C26   C52   S    
O14   C50   A    
C12   C16   A    
O6    V2    S    
C9    H5    S    
O9    V2    S    
C23   C24   S    
C5    C17   A    
C21   C24   S    
C22   C23   S    
O2    V1    S    
O21   C53   S    
C28   H13   S    
O7    V1    S    
O14   V3    S    
C41   C45   A    
C16   H3    S    
O1    C2    A    
C39   F3    S    
C40   C41   A    
O5    V1    S    
O8    C3    A    
C31   H15   S    
C19   H8    S    
C33   H17   S    
C54   C55   S    
C27   H14   S    
O11   V4    S    
O7    V2    S    
O4    V1    S    
O3    V1    S    
V1    O10   S    
C46   H21   S    
C31   C32   S    
C25   H12   S    
C36   C47   A    
O17   V3    S    
C35   C47   A    
C35   C43   A    
C22   H9    S    
O16   V4    S    
O15   V3    S    
C37   C38   A    
C23   C26   S    
C55   H29   S    
C8    F4    S    
C18   C51   S    
C39   C40   A    
V4    O20   S    
C42   C46   A    
C29   C32   S    
C13   C14   A    
C45   H23   S    
C8    C9    A    
C37   C48   A    
C27   C34   S    
C19   C26   S    
C7    C8    A    
C53   C54   S    
C6    C17   A    
