data_mof_unit_8142.cif
_audit_creation_date              2012-12-11T15:20:36-0500
_audit_creation_method            fapswitch 2.2
_symmetry_space_group_name_H-M    P1
_symmetry_Int_Tables_number       1
_space_group_crystal_system       triclinic
_cell_length_a                    13.048531
_cell_length_b                    13.02494
_cell_length_c                    15.296011
_cell_angle_alpha                 116.940266
_cell_angle_beta                  64.090081
_cell_angle_gamma                 97.179946
_cell_volume                      2075.93176828

loop_
_atom_site_label
_atom_site_type_symbol
_atom_type_description
_atom_site_fract_x
_atom_site_fract_y
_atom_site_fract_z
_atom_type_partial_charge
C1    C     C_R   0.002221 0.833446 0.054815 -0.119024
C2    C     C_R   0.301618 0.588328 0.787397 -0.139074
C3    C     C_R   0.258237 0.423842 0.055827 -0.192981
C4    C     C_R   0.689295 0.428224 0.215100 -0.213355
C5    C     C_R   0.049654 0.277522 0.683218 0.341248
C6    C     C_R   0.360801 0.452569 0.994224 0.117736
C7    C     C_R   0.046496 0.167166 0.677234 -0.008995
C8    C     C_R   0.294271 0.560498 0.692618 0.050662
C9    C     C_R   0.008345 0.152337 0.044538 0.056659
C10   C     C_R   0.175089 0.959550 0.383840 -0.185807
C11   C     C_R   0.169723 0.053038 0.478851 -0.165110
C12   C     C_R   0.690218 0.463634 0.314106 0.003649
C13   C     C_R   0.092489 0.057045 0.579530 0.155710
C14   C     C_R   0.047401 0.955387 0.583729 -0.165917
C15   C     C_R   0.055980 0.860996 0.489572 -0.171738
C16   C     C_R   0.756410 0.512503 0.889209 0.321036
C17   C     C_R   0.108230 0.868395 0.390853 0.140818
C18   C     C_R   0.568614 0.593529 0.497496 -0.180263
C19   C     C_R   0.468098 0.622602 0.589703 -0.197288
C20   C     C_R   0.389252 0.541248 0.593131 0.126008
C21   C     C_R   0.409883 0.430812 0.506496 -0.230580
C22   C     C_R   0.513721 0.397143 0.416322 0.146138
C23   C     C_R   0.664041 0.451930 0.923121 0.109553
C24   C     C_R   0.591552 0.481669 0.411417 0.098439
C25   C     C_2   0.470462 0.410334 0.970629 -0.225809
C26   C     C_2   0.566221 0.427855 0.898416 -0.181500
C27   C     C_2   0.837352 0.960494 0.093220 -0.216723
C28   C     C_R   0.016045 0.698183 0.302480 -0.122048
C29   C     C_2   0.829021 0.045953 0.188075 -0.147268
C30   C     C_R   0.678746 0.418760 0.989753 -0.199047
C31   C     C_R   0.096742 0.799355 0.209819 -0.150741
C32   C     C_R   0.793929 0.504753 0.309775 0.327806
C33   C     C_R   0.900111 0.749169 0.959556 -0.164042
C34   C     C_R   0.074725 0.793334 0.304509 0.034406
C35   C     C_R   0.914153 0.853923 0.035146 0.145384
C36   C     C_3   0.060022 0.304291 0.594236 -1.085536
C37   C     C_3   0.536634 0.272140 0.330242 -0.473301
C38   C     C_3   0.536655 0.187821 0.375349 -0.208875
C39   C     C_3   0.526682 0.064474 0.300154 -0.931610
C40   C     C_3   0.791155 0.536764 0.793818 -1.105267
C41   C     C_3   0.843556 0.513922 0.384398 -1.072535
C42   C     C_3   0.404231 0.641277 0.970176 -0.465280
C43   C     C_3   0.434935 0.703111 0.067039 -0.206398
C44   C     C_3   0.502976 0.805827 0.061655 -0.966431
C45   C     C_R   0.337405 0.538557 0.973810 0.154112
C46   C     C_R   0.977470 0.178796 0.781249 -0.192933
C47   C     C_R   0.195212 0.511422 0.697332 -0.143983
C48   C     C_R   0.052705 0.255806 0.087787 -0.123727
C49   C     C_R   0.950424 0.172117 0.995214 -0.112613
H1    H     H_    0.033095 0.895109 0.112103 0.094841
H2    H     H_    0.994659 0.950988 0.659182 0.108859
H3    H     H_    0.622643 0.388634 0.190073 0.116794
H4    H     H_    0.008826 0.789299 0.498194 0.109668
H5    H     H_    0.627793 0.659142 0.492637 0.136117
H6    H     H_    0.451797 0.707458 0.657873 0.123253
H7    H     H_    0.347644 0.367927 0.512042 0.123735
H8    H     H_    0.470194 0.383303 0.028076 0.132057
H9    H     H_    0.565170 0.449114 0.838088 0.147686
H10   H     H_    0.781937 0.968023 0.059911 0.131240
H11   H     H_    0.879742 0.043074 0.227416 0.130591
H12   H     H_    0.951560 0.110943 0.805781 0.111044
H13   H     H_    0.005639 0.655555 0.351234 0.105938
H14   H     H_    0.635530 0.354757 0.016305 0.110168
H15   H     H_    0.153905 0.854419 0.178288 0.091198
H16   H     H_    0.834049 0.734321 0.931980 0.129159
H17   H     H_    0.150745 0.307729 0.543029 0.237793
H18   H     H_    0.022687 0.237177 0.542435 0.264408
H19   H     H_    0.010821 0.387765 0.629177 0.261095
H20   H     H_    0.441106 0.057483 0.299804 0.256234
H21   H     H_    0.593293 0.039354 0.216108 0.269928
H22   H     H_    0.537440 0.003861 0.328912 0.257458
H23   H     H_    0.157719 0.496715 0.642929 0.119370
H24   H     H_    0.617355 0.191066 0.384111 0.202491
H25   H     H_    0.464283 0.211241 0.456615 0.192701
H26   H     H_    0.469238 0.253671 0.300429 0.192250
H27   H     H_    0.620339 0.255098 0.259300 0.198629
H28   H     H_    0.789544 0.457276 0.723602 0.264290
H29   H     H_    0.730758 0.605900 0.814662 0.251461
H30   H     H_    0.879248 0.564119 0.769806 0.256905
H31   H     H_    0.832662 0.605110 0.445988 0.245684
H32   H     H_    0.799011 0.460496 0.427369 0.260818
H33   H     H_    0.935329 0.480937 0.337081 0.250046
H34   H     H_    0.090782 0.275772 0.143088 0.090008
H35   H     H_    0.582377 0.777145 0.984539 0.263955
H36   H     H_    0.450595 0.871758 0.067634 0.260561
H37   H     H_    0.527393 0.845424 0.130242 0.264035
H38   H     H_    0.355222 0.734376 0.144135 0.193965
H39   H     H_    0.486942 0.643579 0.068713 0.211723
H40   H     H_    0.481672 0.615747 0.892116 0.183110
H41   H     H_    0.349113 0.705422 0.976901 0.185349
H42   H     H_    0.893190 0.114721 0.965930 0.088505
H43   H     H_    0.367199 0.634356 0.810073 0.094880
H44   H     H_    0.246893 0.368120 0.093684 0.108837
H45   H     H_    0.223425 0.963334 0.307268 0.112962
H46   H     H_    0.217891 0.125153 0.473163 0.130841
N1    N     N_R   0.037310 0.720000 0.995790 -0.044802
N2    N     N_R   0.824890 0.517960 0.936420 -0.059636
N3    N     N_R   0.003210 0.648190 0.211380 -0.035934
N4    N     N_R   0.774330 0.457010 0.995840 -0.055161
N5    N     N_R   0.053760 0.709140 0.151960 -0.038998
N6    N     N_R   0.853860 0.498840 0.211410 -0.054239
N7    N     N_R   0.974240 0.667310 0.936390 -0.040565
N8    N     N_R   0.225670 0.542990 0.004160 -0.063121
N9    N     N_R   0.946240 0.290860 0.848040 -0.051087
N10   N     N_R   0.146140 0.501160 0.788590 -0.037589
N11   N     N_R   0.025760 0.332690 0.063610 -0.038639
N12   N     N_R   0.962690 0.280000 0.004210 -0.039361
N13   N     N_R   0.209210 0.553840 0.847990 -0.043475
N14   N     N_R   0.175110 0.482040 0.063580 -0.049049
N15   N     N_R   0.996790 0.351810 0.788620 -0.053319
N16   N     N_R   0.790790 0.446160 0.152010 -0.047059
Ni1   Ni    Ni4+2 0.130310 0.630310 0.999970 0.197314
Ni2   Ni    Ni4+2 0.869690 0.369690 0.000030 0.203736
Ni3   Ni    Ni4+2 0.985640 0.509470 0.863740 0.208448
Ni4   Ni    Ni4+2 0.014360 0.490530 0.136260 0.206333

loop_
_geom_bond_atom_site_label_1
_geom_bond_atom_site_label_2
_ccdc_geom_bond_type
C6    C45   A    
N1    N7    A    
C27   C29   D    
C19   C20   A    
C3    C6    A    
C41   H31   S    
C36   H18   S    
C33   H16   S    
C49   N12   A    
N1    Ni1   S    
C8    C20   S    
C4    H3    S    
C18   C24   A    
C43   H39   S    
C15   H4    S    
C21   C22   A    
C38   C39   S    
C36   H17   S    
C16   N2    A    
C6    C25   S    
N11   N12   A    
C10   H45   S    
C10   C17   A    
C11   H46   S    
C5    C36   S    
C18   C19   A    
C23   C26   S    
N12   Ni2   S    
C45   N8    A    
C48   N11   A    
C42   C43   S    
C47   N10   A    
C32   C41   S    
C4    C12   A    
C1    H1    S    
N15   Ni3   S    
C37   H26   S    
C28   C34   A    
C13   C14   A    
C12   C32   A    
C25   H8    S    
C49   H42   S    
C44   H37   S    
N2    N4    A    
N10   N13   A    
C40   H30   S    
C46   H12   S    
C33   N7    A    
C7    C46   A    
N10   Ni3   S    
C9    C49   A    
N16   Ni2   S    
C5    C7    A    
N14   Ni4   S    
C27   C35   S    
C25   C26   D    
C22   C37   S    
C46   N9    A    
C30   N4    A    
N13   Ni1   S    
N8    Ni1   S    
C42   H41   S    
C42   C45   S    
C43   C44   S    
C23   C30   A    
C37   C38   S    
N7    Ni3   S    
C14   H2    S    
C14   C15   A    
C29   H11   S    
C41   H32   S    
C39   H20   S    
C31   C34   A    
C3    H44   S    
C31   N5    A    
C2    H43   S    
C26   H9    S    
C16   C40   S    
C4    N16   A    
N5    Ni1   S    
C16   C23   A    
N3    N5    A    
N6    Ni4   S    
C40   H29   S    
C17   C34   S    
C44   H36   S    
C1    C35   A    
C38   H25   S    
C28   N3    A    
C15   C17   A    
C40   H28   S    
C31   H15   S    
C37   H27   S    
C2    C8    A    
C44   H35   S    
N4    Ni2   S    
C21   H7    S    
C36   H19   S    
C19   H6    S    
N6    N16   A    
C12   C24   S    
C48   H34   S    
N11   Ni4   S    
N8    N14   A    
C42   H40   S    
C43   H38   S    
C8    C47   A    
C27   H10   S    
N9    N15   A    
C11   C13   A    
N3    Ni4   S    
C3    N14   A    
C1    N1    A    
C41   H33   S    
C2    N13   A    
C33   C35   A    
C39   H21   S    
C22   C24   A    
C47   H23   S    
C10   C11   A    
C18   H5    S    
N9    Ni2   S    
C7    C13   S    
C20   C21   A    
C9    C48   A    
C5    N15   A    
C39   H22   S    
C32   N6    A    
N2    Ni3   S    
C30   H14   S    
C38   H24   S    
C28   H13   S    
