data_mof_unit_48560.cif
_audit_creation_date              2012-12-11T15:15:41-0500
_audit_creation_method            fapswitch 2.2
_symmetry_space_group_name_H-M    P1
_symmetry_Int_Tables_number       1
_space_group_crystal_system       triclinic
_cell_length_a                    20.630982
_cell_length_b                    22.768231
_cell_length_c                    6.937149
_cell_angle_alpha                 90.000014
_cell_angle_beta                  86.598204
_cell_angle_gamma                 90.000077
_cell_volume                      3252.85194169

loop_
_atom_site_label
_atom_site_type_symbol
_atom_type_description
_atom_site_fract_x
_atom_site_fract_y
_atom_site_fract_z
_atom_type_partial_charge
O1    O     O_R   0.387100 0.552640 0.378490 -0.537298
O2    O     O_R   0.612900 0.052640 0.621510 -0.537298
O3    O     O_R   0.249610 0.559600 0.072250 -0.545820
O4    O     O_R   0.750390 0.059600 0.927750 -0.545821
O5    O     O_R   0.249120 0.447360 0.902040 -0.550314
O6    O     O_R   0.750880 0.947360 0.097960 -0.550314
C1    C     C_R   0.227399 0.573378 0.244768 0.742084
C2    C     C_R   0.772601 0.073378 0.755232 0.742088
O7    O     O_R   0.386610 0.559560 0.048860 -0.535766
O8    O     O_R   0.613390 0.059560 0.951140 -0.535766
O9    O     O_R   0.387100 0.447320 0.878470 -0.538497
O10   O     O_R   0.612900 0.947320 0.121530 -0.538496
C3    C     C_R   0.407964 0.574726 0.213667 0.693720
C4    C     C_R   0.592036 0.074726 0.786333 0.693720
O11   O     O_R   0.249120 0.552680 0.402050 -0.521322
O12   O     O_R   0.750880 0.052680 0.597950 -0.521326
O13   O     O_3   0.318110 0.463180 0.223790 -0.369202
O14   O     O_3   0.681890 0.963180 0.776210 -0.369202
V1    V     V_3+5 0.318110 0.506830 0.948930 1.504352
V2    V     V_3+5 0.681890 0.006830 0.051070 1.504347
O15   O     O_R   0.386610 0.440400 0.548840 -0.549122
O16   O     O_R   0.613390 0.940400 0.451160 -0.549123
C5    C     C_R   0.407863 0.425175 0.714083 0.751300
C6    C     C_R   0.592137 0.925176 0.285917 0.751298
O17   O     O_R   0.249610 0.440440 0.572240 -0.511773
O18   O     O_R   0.750390 0.940440 0.427760 -0.511772
C7    C     C_R   0.227500 0.426057 0.744984 0.783770
C8    C     C_R   0.772500 0.926057 0.255016 0.783771
V3    V     V_3+5 0.318110 0.493170 0.448930 1.530681
V4    V     V_3+5 0.681890 0.993170 0.551070 1.530675
O19   O     O_3   0.318110 0.536820 0.723940 -0.360626
O20   O     O_3   0.681890 0.036820 0.276060 -0.360628
C9    C     C_R   0.175072 0.381759 0.765584 -0.301220
C10   C     C_R   0.824927 0.881759 0.234416 -0.301219
C11   C     C_R   0.161875 0.343909 0.612833 0.551124
C12   C     C_R   0.838124 0.843909 0.387166 0.551123
C13   C     C_R   0.114548 0.300109 0.638217 0.280996
C14   C     C_R   0.885451 0.800108 0.361781 0.280997
C15   C     C_R   0.076133 0.296335 0.813911 -0.264419
C16   C     C_R   0.923866 0.796334 0.186086 -0.264416
C17   C     C_R   0.088403 0.334746 0.967269 0.544399
C18   C     C_R   0.911596 0.834746 0.032729 0.544398
C19   C     C_R   0.139086 0.376005 0.942725 -0.345871
C20   C     C_R   0.860913 0.876005 0.057275 -0.345870
C21   C     C_R   0.931078 0.147168 0.842197 -0.046795
C22   C     C_R   0.068925 0.647171 0.157776 -0.046804
C23   C     C_R   0.879034 0.108094 0.855779 -0.280886
C24   C     C_R   0.120970 0.608098 0.144196 -0.280874
C25   C     C_R   0.827051 0.161657 0.605466 0.594397
C26   C     C_R   0.172942 0.661651 0.394555 0.594397
C27   C     C_R   0.878352 0.201816 0.596051 -0.195685
C28   C     C_R   0.121640 0.701809 0.403967 -0.195694
C29   C     C_R   0.930276 0.195713 0.716657 0.073534
C30   C     C_R   0.069722 0.695711 0.283339 0.073524
C31   C     C_2   0.023883 0.251616 0.841554 0.666289
C32   C     C_2   0.976115 0.751615 0.158441 0.666292
C33   C     C_2   0.983465 0.239617 0.700808 -0.244373
C34   C     C_2   0.016532 0.739614 0.299187 -0.244367
C35   C     C_R   0.826709 0.115108 0.738194 -0.150195
C36   C     C_R   0.173290 0.615107 0.261805 -0.150202
H1    H     H_    0.880292 0.071452 0.955219 0.140702
H2    H     H_    0.119717 0.571460 0.044739 0.140712
H3    H     H_    0.987410 0.265589 0.569210 0.162943
H4    H     H_    0.012587 0.765585 0.430787 0.162944
H5    H     H_    0.972004 0.138096 0.927544 0.185232
H6    H     H_    0.028004 0.638100 0.072410 0.185246
H7    H     H_    0.150554 0.403771 0.062539 0.192582
H8    H     H_    0.849445 0.903771 0.937460 0.192584
H9    H     H_    0.877267 0.238114 0.495272 0.155395
H10   H     H_    0.122720 0.738103 0.504765 0.155405
C37   C     C_R   0.577053 0.361254 0.688446 -0.241383
C38   C     C_R   0.422946 0.861254 0.311555 -0.241381
H11   H     H_    0.666267 0.277858 0.668366 0.146317
H12   H     H_    0.333733 0.777857 0.331635 0.146308
H13   H     H_    0.626573 0.377151 0.670191 0.131711
H14   H     H_    0.373427 0.877150 0.329811 0.131714
C39   C     C_R   0.461820 0.382214 0.713956 -0.161645
C40   C     C_R   0.538179 0.882214 0.286044 -0.161646
C41   C     C_R   0.475718 0.095069 0.845379 -0.249947
C42   C     C_R   0.524282 0.595069 0.154621 -0.249948
C43   C     C_R   0.423078 0.132509 0.875524 -0.181499
C44   C     C_R   0.576922 0.632509 0.124477 -0.181500
C45   C     C_R   0.429966 0.193335 0.853906 0.449088
C46   C     C_R   0.570034 0.693336 0.146095 0.449089
C47   C     C_R   0.490619 0.217883 0.783413 -0.013304
C48   C     C_R   0.509381 0.717883 0.216587 -0.013305
C49   C     C_R   0.545310 0.178649 0.761169 -0.004042
C50   C     C_R   0.454690 0.678649 0.238831 -0.004036
C51   C     C_R   0.500343 0.279765 0.744861 0.088828
C52   C     C_R   0.499657 0.779765 0.255140 0.088827
C53   C     C_R   0.564830 0.300885 0.710515 0.057461
C54   C     C_R   0.435170 0.800885 0.289485 0.057465
C55   C     C_R   0.617164 0.261830 0.697279 -0.144065
C56   C     C_R   0.382835 0.761830 0.302721 -0.144072
C57   C     C_R   0.607490 0.201770 0.716993 -0.137019
C58   C     C_R   0.392510 0.701770 0.283008 -0.137023
C59   C     C_R   0.449140 0.321665 0.735418 -0.279723
C60   C     C_R   0.550860 0.821665 0.264582 -0.279722
C61   C     C_R   0.526131 0.401921 0.690865 0.454359
C62   C     C_R   0.473868 0.901921 0.309136 0.454357
C63   C     C_R   0.537169 0.117072 0.791200 -0.075194
C64   C     C_R   0.462831 0.617072 0.208800 -0.075195
H15   H     H_    0.398942 0.308893 0.737202 0.191574
H16   H     H_    0.601058 0.808894 0.262798 0.191574
H17   H     H_    0.468882 0.048514 0.871972 0.140691
H18   H     H_    0.531118 0.548515 0.128028 0.140691
H19   H     H_    0.376539 0.114321 0.925263 0.146303
H20   H     H_    0.623461 0.614322 0.074738 0.146302
H21   H     H_    0.649717 0.173531 0.701924 0.147081
H22   H     H_    0.350283 0.673531 0.298077 0.147063
F1    F     F_    0.196604 0.347289 0.440546 -0.667295
F2    F     F_    0.803396 0.847289 0.559454 -0.667298
O21   O     O_3   0.539252 0.461457 0.682521 -0.559548
C65   C     C_3   0.556519 0.476863 0.489524 -0.255414
H23   H     H_    0.516863 0.466291 0.393038 0.134104
H24   H     H_    0.602523 0.455232 0.436460 0.135995
H25   H     H_    0.564658 0.524983 0.482862 0.173352
O22   O     O_3   0.460747 0.961457 0.317480 -0.559547
C66   C     C_3   0.443485 0.976864 0.510479 -0.255418
H26   H     H_    0.483148 0.966300 0.606948 0.134111
H27   H     H_    0.397488 0.955226 0.563565 0.135992
H28   H     H_    0.435336 0.024981 0.517138 0.173352
O23   O     O_3   0.377109 0.227490 0.911995 -0.569387
C67   C     C_3   0.381141 0.241279 0.109254 -0.248288
H29   H     H_    0.426366 0.266030 0.135120 0.142503
H30   H     H_    0.377995 0.201025 0.200409 0.143524
H31   H     H_    0.339448 0.269841 0.154938 0.190430
O24   O     O_3   0.622891 0.727490 0.088006 -0.569387
C68   C     C_3   0.618859 0.741279 0.890747 -0.248292
H32   H     H_    0.573634 0.766030 0.864880 0.142504
H33   H     H_    0.622006 0.701025 0.799592 0.143524
H34   H     H_    0.660552 0.769841 0.845064 0.190429
F3    F     F_    0.777008 0.169266 0.489366 -0.697237
F4    F     F_    0.222978 0.669256 0.510679 -0.697225
O25   O     O_3   0.053142 0.327878 0.143224 -0.475701
C69   C     C_3   0.032200 0.382355 0.221698 -0.142603
H35   H     H_    0.990245 0.374268 0.325815 0.145688
H36   H     H_    0.015564 0.413078 0.109727 0.082962
H37   H     H_    0.070973 0.402701 0.303829 0.134350
O26   O     O_3   0.946856 0.827878 0.856773 -0.475700
C70   C     C_3   0.967802 0.882355 0.778310 -0.142605
H38   H     H_    0.009757 0.874267 0.674191 0.145692
H39   H     H_    0.984442 0.913075 0.890287 0.082964
H40   H     H_    0.929031 0.902706 0.696186 0.134343
F5    F     F_    0.014442 0.226518 0.018958 -0.653107
F6    F     F_    0.985556 0.726519 0.981035 -0.653113
O27   O     O_3   0.105534 0.261570 0.488154 -0.504301
C71   C     C_3   0.147409 0.213231 0.506534 -0.081179
H41   H     H_    0.136538 0.189451 0.644931 0.093221
H42   H     H_    0.199262 0.227006 0.494088 0.146047
H43   H     H_    0.139733 0.182023 0.387234 0.161983
O28   O     O_3   0.894464 0.761568 0.511842 -0.504305
C72   C     C_3   0.852584 0.713233 0.493476 -0.081179
H44   H     H_    0.863445 0.689455 0.355074 0.093219
H45   H     H_    0.800732 0.727013 0.505946 0.146060
H46   H     H_    0.860263 0.682024 0.612768 0.161981

loop_
_geom_bond_atom_site_label_1
_geom_bond_atom_site_label_2
_ccdc_geom_bond_type
C46   O24   S    
V4    O20   S    
C43   H19   S    
O15   V3    S    
O13   V3    S    
C23   H1    S    
H12   C56   S    
O27   C71   S    
C71   H43   S    
H11   C55   S    
C38   H14   S    
V1    O19   S    
O24   C68   S    
C50   C58   A    
C65   H23   S    
O25   C69   S    
C15   C17   A    
C7    C9    S    
O9    V1    S    
C11   C13   A    
C71   H42   S    
C22   H6    S    
O3    C1    A    
C70   H39   S    
C2    C35   S    
C30   C34   S    
C38   C54   A    
C48   C50   A    
C31   F5    S    
O12   V4    S    
C42   H18   S    
C41   H17   S    
O7    C3    A    
O22   C66   S    
O21   C65   S    
C9    C11   A    
O5    C7    A    
C21   H5    S    
C52   C54   A    
O7    V1    S    
O6    C8    A    
O8    V2    S    
C16   C32   S    
C49   C57   A    
C40   C60   A    
C26   C28   A    
C24   C36   A    
O14   V4    S    
C44   H20   S    
C51   C53   A    
C10   C12   A    
V2    O20   S    
O4    C2    A    
C68   H34   S    
C15   C31   S    
C21   C23   A    
C8    C10   S    
C2    O12   A    
C49   C63   A    
C34   H4    S    
C17   C19   A    
O10   V2    S    
C18   C20   A    
C69   H37   S    
C14   O28   S    
C43   C45   A    
C28   C30   A    
O11   V3    S    
C47   C49   A    
O17   V3    S    
C22   C24   A    
C37   H13   S    
C23   C35   A    
C18   O26   S    
C9    C19   A    
O23   C67   S    
C10   C20   A    
O26   C70   S    
C42   C44   A    
C48   C52   A    
C70   H40   S    
C41   C43   A    
C29   C33   S    
C69   H35   S    
C4    C63   S    
C1    O11   A    
C25   C27   A    
C37   C61   A    
C5    C39   S    
C51   C59   A    
C65   H24   S    
C27   C29   A    
C40   C62   A    
C56   C58   A    
C19   H7    S    
C12   F2    S    
C53   C55   A    
C24   H2    S    
C22   C30   A    
C54   C56   A    
C37   C53   A    
C13   O27   S    
C72   H46   S    
O3    V1    S    
C72   H45   S    
C59   H15   S    
C66   H27   S    
C67   H31   S    
C69   H36   S    
C45   C47   A    
O18   V4    S    
C44   C46   A    
C31   C33   D    
C26   F4    S    
O16   C6    A    
C20   H8    S    
O1    C3    A    
C12   C14   A    
C1    C36   S    
C17   O25   S    
C11   F1    S    
C67   H30   S    
C68   H32   S    
C38   C62   A    
C66   H28   S    
C6    C40   S    
C25   F3    S    
C47   C51   A    
O16   V4    S    
C33   H3    S    
C46   C48   A    
C16   C18   A    
C61   O21   S    
C50   C64   A    
C66   H26   S    
O5    V1    S    
O17   C7    A    
O6    V2    S    
O10   C6    A    
O18   C8    A    
C25   C35   A    
O2    V4    S    
C26   C36   A    
O15   C5    A    
C72   H44   S    
V3    O19   S    
C70   H38   S    
C14   C16   A    
O1    V3    S    
C55   C57   A    
C58   H22   S    
C60   H16   S    
O9    C5    A    
O13   V1    S    
C32   C34   D    
C39   C61   A    
O14   V2    S    
C71   H41   S    
C32   F6    S    
O2    C4    A    
C65   H25   S    
C28   H10   S    
C21   C29   A    
O4    V2    S    
C62   O22   S    
O28   C72   S    
C13   C15   A    
C42   C64   A    
C41   C63   A    
C57   H21   S    
C39   C59   A    
C27   H9    S    
C45   O23   S    
C3    C64   S    
C52   C60   A    
O8    C4    A    
C67   H29   S    
C68   H33   S    
