data_mof_unit_17157.cif
_audit_creation_date              2012-10-26T19:57:53-0400
_audit_creation_method            fapswitch 2.2
_symmetry_space_group_name_H-M    P1
_symmetry_Int_Tables_number       1
_space_group_crystal_system       triclinic
_cell_length_a                    7.445846
_cell_length_b                    8.701977
_cell_length_c                    12.969194
_cell_angle_alpha                 87.969535
_cell_angle_beta                  79.079416
_cell_angle_gamma                 101.629555
_cell_volume                      805.793358588

loop_
_atom_site_label
_atom_site_type_symbol
_atom_type_description
_atom_site_fract_x
_atom_site_fract_y
_atom_site_fract_z
_atom_type_partial_charge
C1    C     C_R   0.455803 0.200826 0.500696 0.582489
C2    C     C_R   0.731821 0.543256 0.119378 -0.123889
C3    C     C_R   0.607146 0.522009 0.858609 -0.111448
C4    C     C_R   0.392854 0.477990 0.141391 -0.111447
C5    C     C_R   0.589995 0.517711 0.967106 0.051384
C6    C     C_R   0.410005 0.482289 0.032894 0.051384
C7    C     C_2   0.442712 0.039587 0.481773 0.049748
C8    C     C_2   0.557289 0.960413 0.518227 0.049748
C9    C     C_R   0.544197 0.799174 0.499304 0.582489
C10   C     C_R   0.466335 0.495768 0.701414 0.554507
C11   C     C_R   0.533665 0.504232 0.298586 0.554506
C12   C     C_R   0.553215 0.508300 0.184903 0.015102
C13   C     C_R   0.446786 0.491700 0.815097 0.015102
C14   C     C_R   0.249953 0.451747 0.989207 -0.130336
C15   C     C_R   0.750047 0.548253 0.010793 -0.130336
C16   C     C_R   0.268179 0.456744 0.880622 -0.123889
Cu1   Cu    Cu3+1 0.686350 0.517570 0.488220 1.023003
Cu2   Cu    Cu3+1 0.313650 0.482430 0.511780 1.023003
H1    H     H_    0.254664 0.450710 0.191680 0.133671
H2    H     H_    0.745336 0.549290 0.808320 0.133671
H3    H     H_    0.857443 0.567639 0.151873 0.136540
H4    H     H_    0.142557 0.432361 0.848127 0.136541
H5    H     H_    0.111399 0.423778 0.038862 0.110943
H6    H     H_    0.888601 0.576222 0.961138 0.110943
H7    H     H_    0.935496 0.386515 0.588178 0.258387
H8    H     H_    0.064504 0.613485 0.411822 0.258387
I1    I     I_    0.270839 0.958457 0.371378 -0.323606
I2    I     I_    0.729162 0.041543 0.628622 -0.323606
N1    N     N_2   0.033570 0.455950 0.529530 -0.245036
N2    N     N_2   0.966430 0.544050 0.470470 -0.245035
O1    O     O_R   0.621060 0.286250 0.492350 -0.493681
O2    O     O_R   0.378940 0.713750 0.507650 -0.493681
O3    O     O_R   0.306310 0.256580 0.512240 -0.466039
O4    O     O_R   0.693690 0.743420 0.487760 -0.466039
O5    O     O_R   0.631800 0.512400 0.642670 -0.510440
O6    O     O_R   0.368200 0.487600 0.357330 -0.510440
O7    O     O_R   0.317060 0.482730 0.662570 -0.511299
O8    O     O_R   0.682940 0.517270 0.337430 -0.511299

loop_
_geom_bond_atom_site_label_1
_geom_bond_atom_site_label_2
_ccdc_geom_bond_type
C14   H5    S    
C11   O8    A    
C11   C12   S    
C10   O5    A    
Cu1   N2    S    
C4    C12   A    
C3    C13   A    
C1    O1    A    
C2    C12   A    
C2    H3    S    
Cu1   Cu2   S    
C1    O3    A    
C3    H2    S    
C6    C14   A    
Cu2   N1    S    
C2    C15   A    
N1    N2    D    
C10   O7    A    
Cu1   O1    S    
C15   H6    S    
Cu2   O7    S    
C9    O4    A    
H8    N2    S    
Cu1   O8    S    
H7    N1    S    
C5    C6    A    
C8    I2    S    
Cu2   O3    S    
C14   C16   A    
C5    C15   A    
Cu2   O2    S    
Cu1   O4    S    
C7    C8    D    
C7    I1    S    
C4    C6    A    
C13   C16   A    
C11   O6    A    
C16   H4    S    
Cu1   O5    S    
C9    O2    A    
C1    C7    S    
C4    H1    S    
Cu2   O6    S    
C8    C9    S    
C3    C5    A    
C10   C13   S    
