data_mof_unit_48134.cif
_audit_creation_date              2012-12-10T19:46:51-0500
_audit_creation_method            fapswitch 2.2
_symmetry_space_group_name_H-M    P1
_symmetry_Int_Tables_number       1
_space_group_crystal_system       triclinic
_cell_length_a                    11.014903
_cell_length_b                    11.107131
_cell_length_c                    13.094357
_cell_angle_alpha                 89.973566
_cell_angle_beta                  92.181269
_cell_angle_gamma                 88.711127
_cell_volume                      1600.44841353

loop_
_atom_site_label
_atom_site_type_symbol
_atom_type_description
_atom_site_fract_x
_atom_site_fract_y
_atom_site_fract_z
_atom_type_partial_charge
C1    C     C_R   0.497669 0.259166 0.500464 0.828568
C2    C     C_R   0.486420 0.740377 0.499879 0.828587
C3    C     C_R   0.873814 0.497317 0.504500 -0.107200
C4    C     C_R   0.127165 0.499732 0.495141 -0.098501
C5    C     C_R   0.946520 0.503492 0.595971 0.010267
C6    C     C_R   0.055267 0.493319 0.403848 0.005949
C7    C     C_R   0.506104 0.202762 0.146447 -0.198056
C8    C     C_R   0.638951 0.828465 0.839410 -0.158355
C9    C     C_R   0.460631 0.171256 0.240792 -0.122319
C10   C     C_R   0.618197 0.867026 0.738418 -0.157726
C11   C     C_R   0.536443 0.113442 0.315075 0.152769
C12   C     C_R   0.499494 0.876200 0.695986 0.151692
C13   C     C_R   0.660000 0.095076 0.296133 -0.208561
C14   C     C_R   0.401843 0.842635 0.754877 -0.172684
C15   C     C_R   0.706189 0.129487 0.202775 -0.162983
C16   C     C_R   0.422451 0.807065 0.856777 -0.177413
C17   C     C_R   0.628872 0.180950 0.126129 0.178411
C18   C     C_R   0.541144 0.801905 0.900596 0.169872
C19   C     C_R   0.455556 0.940098 0.409189 0.061040
C20   C     C_R   0.465436 0.064586 0.595150 0.044940
C21   C     C_R   0.472760 0.873561 0.501378 -0.169608
C22   C     C_R   0.485206 0.127054 0.502165 -0.172089
C23   C     C_R   0.259388 0.499447 0.497899 0.809651
C24   C     C_R   0.740980 0.499263 0.502020 0.830645
C25   C     C_R   0.477477 0.937615 0.595731 -0.049930
C26   C     C_R   0.487253 0.061946 0.409682 -0.044398
C27   C     C_1   0.499088 0.496166 0.173522 0.147357
C28   C     C_1   0.498248 0.496518 0.826401 0.132250
C29   C     C_1   0.497252 0.491397 0.050643 -0.134424
C30   C     C_1   0.496631 0.491748 0.949116 -0.132810
C31   C     C_R   0.208143 0.567327 0.158162 -0.171089
C32   C     C_R   0.785533 0.427459 0.836627 -0.199325
C33   C     C_R   0.161344 0.579768 0.255391 -0.099298
C34   C     C_R   0.825389 0.420904 0.737319 -0.094210
C35   C     C_R   0.106207 0.482010 0.301342 0.099621
C36   C     C_R   0.899552 0.510581 0.700462 0.105653
C37   C     C_R   0.095380 0.373156 0.247919 -0.207860
C38   C     C_R   0.942425 0.599958 0.768127 -0.221628
C39   C     C_R   0.141718 0.360433 0.150020 0.146865
C40   C     C_R   0.911624 0.600294 0.871035 0.157359
C41   C     C_R   0.198531 0.458342 0.105647 -0.136769
C42   C     C_R   0.829789 0.514022 0.904080 -0.133339
C43   C     C_R   0.929626 0.491571 0.409936 -0.238012
C44   C     C_R   0.071929 0.503769 0.589227 -0.247192
Cu1   Cu    Cu3+1 0.499990 0.499990 0.592680 0.969008
Cu2   Cu    Cu3+1 0.500010 0.500010 0.407320 0.966746
H1    H     H_    0.236871 0.449935 0.031046 0.134408
H2    H     H_    0.799925 0.510870 0.981623 0.116020
H3    H     H_    0.719978 0.051206 0.352855 0.126469
H4    H     H_    0.309598 0.849881 0.723411 0.122037
H5    H     H_    0.801595 0.113318 0.189357 0.127970
H6    H     H_    0.345616 0.783503 0.901376 0.120245
H7    H     H_    0.252906 0.641831 0.123509 0.121334
H8    H     H_    0.720260 0.364743 0.861810 0.153670
H9    H     H_    0.168997 0.664780 0.295239 0.117028
H10   H     H_    0.796352 0.347255 0.688697 0.125789
H11   H     H_    0.052582 0.297829 0.283632 0.120681
H12   H     H_    0.003307 0.667481 0.741310 0.121656
H13   H     H_    0.875034 0.486097 0.339408 0.161236
H14   H     H_    0.127480 0.506259 0.659399 0.162318
H15   H     H_    0.445255 0.243511 0.088898 0.128322
H16   H     H_    0.731207 0.821096 0.870437 0.137142
H17   H     H_    0.366122 0.190346 0.255000 0.133402
H18   H     H_    0.694446 0.892442 0.693881 0.121342
N1    N     N_1   0.500030 0.500030 0.268070 -0.142803
N2    N     N_1   0.499970 0.499970 0.731930 -0.140183
O1    O     O_R   0.499980 0.319630 0.578260 -0.589279
O2    O     O_R   0.500020 0.680370 0.421740 -0.598603
O3    O     O_R   0.500000 0.319650 0.421740 -0.567439
O4    O     O_R   0.500000 0.680350 0.578260 -0.558585
O5    O     O_R   0.319630 0.500000 0.578260 -0.591667
O6    O     O_R   0.680370 0.500000 0.421740 -0.578505
O7    O     O_R   0.319650 0.500020 0.421740 -0.577822
O8    O     O_R   0.680350 0.499980 0.578260 -0.573555
C45   C     C_3   0.399732 0.888907 0.310457 -0.400682
C46   C     C_3   0.272556 0.942774 0.284640 -0.355353
C47   C     C_3   0.248984 0.946614 0.168970 -0.902774
H19   H     H_    0.309271 0.011809 0.133295 0.258704
H20   H     H_    0.267500 0.856931 0.135026 0.247855
H21   H     H_    0.153342 0.974262 0.151285 0.252355
H22   H     H_    0.203078 0.886466 0.319733 0.205336
H23   H     H_    0.260749 0.034907 0.315861 0.217729
H24   H     H_    0.460416 0.909237 0.247987 0.229271
H25   H     H_    0.388178 0.790851 0.309941 0.208857
C48   C     C_3   0.426345 0.130503 0.692083 -0.371391
C49   C     C_3   0.295619 0.180870 0.677352 -0.308978
C50   C     C_3   0.261596 0.264650 0.764333 -0.857187
H26   H     H_    0.282656 0.221107 0.839419 0.253435
H27   H     H_    0.312483 0.349143 0.760011 0.268209
H28   H     H_    0.162982 0.287655 0.757591 0.239451
H29   H     H_    0.283137 0.231175 0.604253 0.219838
H30   H     H_    0.232052 0.104460 0.674463 0.200123
H31   H     H_    0.427101 0.072075 0.760341 0.191607
H32   H     H_    0.491709 0.199859 0.716540 0.212440
C51   C     C_3   0.138753 0.240115 0.097211 -0.445586
C52   C     C_3   0.069318 0.244578 0.993709 -0.334980
C53   C     C_3   0.073016 0.120796 0.942654 -0.868060
H33   H     H_    0.167523 0.083717 0.942257 0.257620
H34   H     H_    0.016110 0.057224 0.984121 0.252362
H35   H     H_    0.038311 0.128180 0.862205 0.245857
H36   H     H_    0.973390 0.273116 0.004463 0.223393
H37   H     H_    0.110509 0.310893 0.942745 0.220563
H38   H     H_    0.233700 0.209338 0.085899 0.194524
H39   H     H_    0.095536 0.173141 0.146340 0.198941
C54   C     C_3   0.969790 0.692591 0.941445 -0.438808
C55   C     C_3   0.926380 0.688371 0.050980 -0.360790
C56   C     C_3   0.975069 0.791399 0.115487 -0.866263
H40   H     H_    0.075046 0.784397 0.119678 0.267355
H41   H     H_    0.945434 0.879514 0.081868 0.241016
H42   H     H_    0.941264 0.785234 0.194087 0.248333
H43   H     H_    0.826809 0.696072 0.047748 0.226279
H44   H     H_    0.954602 0.601423 0.087708 0.234276
H45   H     H_    0.070027 0.677653 0.943040 0.197250
H46   H     H_    0.949485 0.783762 0.909100 0.192753
C57   C     C_3   0.676882 0.211890 0.023126 -0.437657
C58   C     C_3   0.714698 0.097949 0.965414 -0.358051
C59   C     C_3   0.758919 0.124035 0.859065 -0.881591
H47   H     H_    0.683730 0.162113 0.809443 0.246125
H48   H     H_    0.834986 0.187231 0.863575 0.267835
H49   H     H_    0.792776 0.039445 0.824088 0.240519
H50   H     H_    0.789182 0.050023 0.009323 0.211141
H51   H     H_    0.634742 0.039623 0.956434 0.234857
H52   H     H_    0.605469 0.260605 0.976256 0.202435
H53   H     H_    0.755478 0.272020 0.034258 0.190520
C60   C     C_3   0.563885 0.754521 0.007914 -0.426550
C61   C     C_3   0.622573 0.842406 0.083500 -0.406961
C62   C     C_3   0.648917 0.781350 0.187347 -0.819219
H54   H     H_    0.566079 0.739856 0.215295 0.258012
H55   H     H_    0.718095 0.708052 0.182836 0.246168
H56   H     H_    0.682500 0.848245 0.243886 0.246314
H57   H     H_    0.709784 0.872583 0.054628 0.225995
H58   H     H_    0.560827 0.921629 0.093079 0.233074
H59   H     H_    0.476584 0.727005 0.039697 0.203539
H60   H     H_    0.625918 0.675232 0.002846 0.214523

loop_
_geom_bond_atom_site_label_1
_geom_bond_atom_site_label_2
_ccdc_geom_bond_type
C60   H60   S    
C33   H9    S    
C50   H26   S    
C34   H10   S    
C61   C62   S    
C52   H37   S    
C27   C29   S    
C51   C52   S    
C24   O8    A    
C53   H33   S    
C39   C41   A    
C55   H44   S    
C47   H19   S    
C58   C59   S    
C3    C43   A    
C58   H51   S    
C54   H45   S    
C35   C37   A    
C2    O2    A    
C49   H29   S    
C59   H48   S    
C18   C60   S    
C48   C49   S    
C45   H25   S    
Cu1   O5    S    
C20   C25   A    
C57   C58   S    
C5    C36   S    
C6    C35   S    
C15   C17   A    
C19   C26   A    
C7    H15   S    
Cu2   O3    S    
C1    O1    A    
C38   H12   S    
C48   H31   S    
C7    C17   A    
Cu1   O1    S    
C56   H40   S    
C31   C33   A    
C15   H5    S    
Cu2   O6    S    
C43   H13   S    
C40   C42   A    
C1    C22   S    
C52   H36   S    
C52   C53   S    
C56   H41   S    
C3    C24   S    
C23   O7    A    
C32   H8    S    
C53   H34   S    
C51   H38   S    
C55   H43   S    
C47   H20   S    
C24   O6    A    
C57   H52   S    
C58   H50   S    
C23   O5    A    
C54   H46   S    
C46   C47   S    
Cu2   N1    S    
C4    C6    A    
C59   H49   S    
C46   H23   S    
C4    C23   S    
C49   C50   S    
C4    C44   A    
C11   C26   S    
Cu1   Cu2   S    
C8    C18   A    
Cu1   O8    S    
C32   C34   A    
C28   N2    T    
C45   C46   S    
C62   H55   S    
Cu2   O2    S    
C29   C30   T    
C27   N1    T    
C48   H32   S    
C61   H58   S    
C20   C48   S    
C2    C21   S    
C41   H1    S    
C42   H2    S    
C55   C56   S    
C31   H7    S    
C9    C11   A    
C39   C51   S    
C10   C12   A    
C13   H3    S    
C16   C18   A    
C5    C44   A    
C12   C14   A    
C6    C43   A    
C13   C15   A    
C60   C61   S    
C56   H42   S    
C14   C16   A    
C62   H54   S    
C53   H35   S    
C51   H39   S    
C17   C57   S    
C47   H21   S    
C60   H59   S    
C7    C9    A    
C21   C25   A    
C57   H53   S    
C31   C41   A    
C19   C21   A    
Cu1   O4    S    
C9    H17   S    
C10   H18   S    
C16   H6    S    
C20   C22   A    
C3    C5    A    
C46   H22   S    
C54   C55   S    
C12   C25   S    
C19   C45   S    
C62   H56   S    
C37   C39   A    
C49   H30   S    
C59   H47   S    
C36   C38   A    
C38   C40   A    
C11   C13   A    
C45   H24   S    
C14   H4    S    
C61   H57   S    
C44   H14   S    
C28   C30   S    
C33   C35   A    
C34   C36   A    
C1    O3    A    
C8    C10   A    
C22   C26   A    
C50   H28   S    
Cu1   N2    S    
C50   H27   S    
C32   C42   A    
C2    O4    A    
Cu2   O7    S    
C37   H11   S    
C8    H16   S    
C40   C54   S    
