data_mof_unit_56343.cif
_audit_creation_date              2012-12-11T15:28:40-0500
_audit_creation_method            fapswitch 2.2
_symmetry_space_group_name_H-M    P1
_symmetry_Int_Tables_number       1
_space_group_crystal_system       triclinic
_cell_length_a                    7.022105
_cell_length_b                    19.545946
_cell_length_c                    23.175198
_cell_angle_alpha                 95.614855
_cell_angle_beta                  90.807149
_cell_angle_gamma                 89.150398
_cell_volume                      3165.01643682

loop_
_atom_site_label
_atom_site_type_symbol
_atom_type_description
_atom_site_fract_x
_atom_site_fract_y
_atom_site_fract_z
_atom_type_partial_charge
O1    O     O_R   0.617180 0.809390 0.808140 -0.515938
O2    O     O_R   0.382820 0.190610 0.191860 -0.516917
O3    O     O_R   0.293300 0.672410 0.795490 -0.540085
O4    O     O_R   0.706700 0.327590 0.204510 -0.515205
O5    O     O_R   0.117220 0.690610 0.691850 -0.532327
O6    O     O_R   0.882780 0.309390 0.308150 -0.526919
C1    C     C_R   0.463971 0.647739 0.805752 0.819883
C2    C     C_R   0.536492 0.352764 0.194935 0.771135
O7    O     O_R   0.287840 0.807750 0.814460 -0.521022
O8    O     O_R   0.712160 0.192250 0.185540 -0.512566
O9    O     O_R   0.111720 0.826910 0.710960 -0.529222
O10   O     O_R   0.888280 0.173090 0.289040 -0.528804
C3    C     C_R   0.456461 0.830542 0.833120 0.756772
C4    C     C_R   0.543641 0.169156 0.167090 0.756674
O11   O     O_R   0.622680 0.673080 0.789040 -0.522432
O12   O     O_R   0.377320 0.326920 0.210960 -0.558401
O13   O     O_3   0.448820 0.756130 0.716020 -0.374738
O14   O     O_3   0.551180 0.243870 0.283980 -0.379575
V1    V     V_3+5 0.176220 0.748860 0.756300 1.465487
V2    V     V_3+5 0.823780 0.251140 0.243700 1.497160
O15   O     O_R   0.781670 0.827580 0.704500 -0.533910
O16   O     O_R   0.218330 0.172420 0.295500 -0.532577
C5    C     C_R   0.949210 0.852361 0.695014 0.851544
C6    C     C_R   0.051164 0.147535 0.304813 0.857788
O17   O     O_R   0.787130 0.692240 0.685530 -0.526563
O18   O     O_R   0.212870 0.307760 0.314470 -0.541179
C7    C     C_R   0.956035 0.669289 0.666973 0.732206
C8    C     C_R   0.043932 0.330443 0.333208 0.706543
V3    V     V_3+5 0.675510 0.751130 0.743690 1.469557
V4    V     V_3+5 0.324490 0.248870 0.256310 1.420822
O19   O     O_3   0.952780 0.743870 0.783980 -0.367026
O20   O     O_3   0.047220 0.256130 0.216020 -0.355883
C9    C     C_1   0.966824 0.616998 0.615020 -0.220580
C10   C     C_1   0.033020 0.382299 0.385444 -0.215689
C11   C     C_1   0.978351 0.573349 0.572227 -0.006706
C12   C     C_1   0.021071 0.425746 0.428368 -0.007703
C13   C     C_1   0.993213 0.521422 0.521644 0.003972
C14   C     C_1   0.006043 0.477600 0.479000 0.002062
C15   C     C_R   0.959243 0.914186 0.663299 -0.271097
C16   C     C_R   0.047851 0.084217 0.334648 -0.266846
C17   C     C_R   0.976369 0.037369 0.664871 0.353333
C18   C     C_R   0.054501 0.960505 0.330312 0.352833
C19   C     C_R   0.938302 0.979188 0.693083 0.162897
C20   C     C_R   0.043368 0.020434 0.302112 0.155742
C21   C     C_R   0.998115 0.907132 0.603586 0.345358
C22   C     C_R   0.045541 0.088396 0.395514 0.345551
C23   C     C_R   0.055900 0.965296 0.574369 -0.078829
C24   C     C_R   0.088795 0.028652 0.425549 -0.085001
C25   C     C_R   0.057070 0.030115 0.608644 -0.182601
C26   C     C_R   0.100292 0.964401 0.390519 -0.176949
C27   C     C_R   0.107285 0.964086 0.513372 -0.133443
C28   C     C_R   0.117782 0.028479 0.487930 -0.138965
C29   C     C_R   0.164652 0.087549 0.526821 0.386108
C30   C     C_R   0.155823 0.903740 0.476094 0.388602
C31   C     C_R   0.142744 0.086123 0.586287 0.286645
C32   C     C_R   0.162486 0.905788 0.416231 0.278328
C33   C     C_R   0.484200 0.582722 0.834116 -0.330125
C34   C     C_R   0.520988 0.418441 0.167630 -0.267445
C35   C     C_R   0.655188 0.473025 0.836866 0.411066
C36   C     C_R   0.446785 0.542057 0.173637 0.442757
C37   C     C_R   0.584510 0.526869 0.805282 0.233450
C38   C     C_R   0.493547 0.482188 0.201733 0.213310
C39   C     C_R   0.429561 0.579584 0.891994 0.386314
C40   C     C_R   0.529890 0.417143 0.106743 0.410493
C41   C     C_R   0.524394 0.532995 0.927036 -0.096347
C42   C     C_R   0.522832 0.479591 0.079415 -0.077828
C43   C     C_R   0.636356 0.478435 0.898505 -0.208494
C44   C     C_R   0.459221 0.540428 0.112127 -0.199672
C45   C     C_R   0.511072 0.538452 0.989366 -0.054737
C46   C     C_R   0.572374 0.482375 0.019855 -0.054230
C47   C     C_R   0.711915 0.438165 0.993119 0.229964
C48   C     C_R   0.464821 0.600297 0.023655 0.233967
C49   C     C_R   0.734882 0.432358 0.932617 0.402693
C50   C     C_R   0.423573 0.600063 0.082944 0.434744
C51   C     C_1   0.467129 0.882498 0.885305 -0.128773
C52   C     C_1   0.533211 0.116668 0.115265 -0.162810
C53   C     C_1   0.478658 0.925927 0.928257 0.062169
C54   C     C_1   0.521777 0.073040 0.072452 0.047379
C55   C     C_1   0.493731 0.977620 0.979004 0.042434
C56   C     C_1   0.506731 0.021280 0.021757 0.041327
Br1   Br    Br    0.264305 0.158786 0.635804 -0.443208
Br2   Br    Br    0.293150 0.829690 0.372867 -0.467355
Br3   Br    Br    0.922392 0.407949 0.039514 -0.605314
Br4   Br    Br    0.530258 0.689450 0.000255 -0.524419
O21   O     O_3   0.018401 0.153418 0.422648 -0.550587
C57   C     C_3   0.841853 0.159950 0.450182 0.151402
H1    H     H_    0.824689 0.121128 0.481626 0.120556
H2    H     H_    0.726122 0.153405 0.417131 0.088220
C58   C     C_3   0.832001 0.231719 0.483155 -0.651754
H3    H     H_    0.799096 0.270859 0.452691 0.184805
H4    H     H_    0.723978 0.233978 0.517580 0.185548
H5    H     H_    0.969009 0.245549 0.505197 0.274712
O22   O     O_3   0.990118 0.841189 0.577372 -0.547032
C59   C     C_3   0.817473 0.831312 0.546943 0.141452
H6    H     H_    0.800812 0.867713 0.513105 0.129945
H7    H     H_    0.698163 0.839044 0.577804 0.079666
C60   C     C_3   0.816427 0.757901 0.517286 -0.646769
H8    H     H_    0.799175 0.720843 0.550073 0.183385
H9    H     H_    0.699454 0.751422 0.484766 0.189123
H10   H     H_    0.951015 0.745246 0.493980 0.273524
Br5   Br    Br    0.017242 0.015664 0.218685 -0.461567
Br6   Br    Br    0.858114 0.987984 0.772903 -0.477454
Br7   Br    Br    0.877534 0.124612 0.699436 -0.416185
Br8   Br    Br    0.964723 0.876831 0.287577 -0.382564
O23   O     O_3   0.202730 0.151785 0.510287 -0.521706
C61   C     C_3   0.376265 0.154828 0.481480 0.198805
H11   H     H_    0.388877 0.114890 0.444165 0.098273
H12   H     H_    0.495849 0.148068 0.512316 0.108444
C62   C     C_3   0.384053 0.226271 0.459244 -0.642934
H13   H     H_    0.415829 0.265796 0.495671 0.202861
H14   H     H_    0.490036 0.227980 0.424697 0.157377
H15   H     H_    0.246904 0.241404 0.439844 0.250781
O24   O     O_3   0.182614 0.839283 0.494270 -0.519615
C63   C     C_3   0.353530 0.834077 0.525594 0.194650
H16   H     H_    0.361813 0.873410 0.563570 0.105439
H17   H     H_    0.474415 0.840405 0.496472 0.105163
C64   C     C_3   0.362336 0.762398 0.547261 -0.639839
H18   H     H_    0.382043 0.722649 0.510135 0.208761
H19   H     H_    0.479151 0.758126 0.579273 0.157184
H20   H     H_    0.229567 0.750775 0.569363 0.249418
O25   O     O_3   0.876943 0.389239 0.908329 -0.513004
C65   C     C_3   0.823623 0.319992 0.910087 0.155284
H21   H     H_    0.691816 0.308956 0.883930 0.108347
H22   H     H_    0.797001 0.307344 0.954934 0.152483
C66   C     C_3   0.984840 0.273177 0.886104 -0.627888
H23   H     H_    0.113399 0.281070 0.914251 0.213165
H24   H     H_    0.941716 0.218600 0.884684 0.194537
H25   H     H_    0.021167 0.284895 0.841748 0.241661
O26   O     O_3   0.362374 0.660931 0.113022 -0.497612
C67   C     C_3   0.168251 0.672183 0.099097 0.126396
H26   H     H_    0.077515 0.637659 0.122035 0.120433
H27   H     H_    0.137192 0.662823 0.051730 0.129210
C68   C     C_3   0.113991 0.746674 0.117657 -0.526125
H28   H     H_    0.195017 0.781329 0.092074 0.239761
H29   H     H_    0.959261 0.754894 0.109934 0.197445
H30   H     H_    0.146730 0.759790 0.164353 0.242486
O27   O     O_3   0.553248 0.354168 0.074432 -0.542655
C69   C     C_3   0.375112 0.332860 0.050923 0.091557
H31   H     H_    0.322208 0.368432 0.019432 0.171395
H32   H     H_    0.268961 0.329952 0.085892 0.158262
C70   C     C_3   0.396375 0.261661 0.018744 -0.687567
H33   H     H_    0.463494 0.225982 0.047596 0.217005
H34   H     H_    0.254143 0.241827 0.004618 0.195094
H35   H     H_    0.486289 0.263864 0.979998 0.202698
O28   O     O_3   0.287495 0.623681 0.914130 -0.529833
C71   C     C_3   0.109788 0.592633 0.901530 0.085012
H36   H     H_    0.090319 0.549098 0.928418 0.146669
H37   H     H_    0.094570 0.573597 0.854726 0.125978
C72   C     C_3   0.953706 0.645942 0.915686 -0.580019
H38   H     H_    0.974793 0.691129 0.891074 0.230358
H39   H     H_    0.813478 0.623543 0.903521 0.180987
H40   H     H_    0.955714 0.662975 0.962762 0.228164
O29   O     O_3   0.551074 0.491646 0.259893 -0.549921
C73   C     C_3   0.447510 0.451632 0.296033 0.102014
H41   H     H_    0.522073 0.401696 0.298926 0.145322
H42   H     H_    0.297370 0.443372 0.280975 0.101180
C74   C     C_3   0.446604 0.486497 0.357847 -0.722856
H43   H     H_    0.340068 0.529040 0.362292 0.200040
H44   H     H_    0.408515 0.448672 0.388373 0.188665
H45   H     H_    0.590042 0.506688 0.370246 0.242656
O30   O     O_3   0.632870 0.528108 0.747471 -0.543453
C75   C     C_3   0.466999 0.520375 0.711803 0.078479
H46   H     H_    0.368747 0.565235 0.718680 0.119688
H47   H     H_    0.387067 0.473553 0.719917 0.103809
C76   C     C_3   0.524063 0.514288 0.648405 -0.685428
H48   H     H_    0.624443 0.470334 0.638970 0.217735
H49   H     H_    0.395519 0.506058 0.620242 0.183245
H50   H     H_    0.593336 0.562334 0.638406 0.222957
O31   O     O_3   0.763039 0.419205 0.809323 -0.516192
C77   C     C_3   0.655821 0.381285 0.765181 0.090841
H51   H     H_    0.666648 0.405455 0.724216 0.172908
H52   H     H_    0.503390 0.376487 0.776961 0.099558
C78   C     C_3   0.740245 0.309333 0.752202 -0.592638
H53   H     H_    0.711407 0.277209 0.787757 0.220259
H54   H     H_    0.673693 0.284128 0.711993 0.219836
H55   H     H_    0.896213 0.311980 0.745587 0.238449
O32   O     O_3   0.417921 0.605575 0.205526 -0.507104
C79   C     C_3   0.288369 0.602374 0.251402 0.138756
H56   H     H_    0.371350 0.600240 0.292144 0.182710
H57   H     H_    0.189845 0.557933 0.244875 0.086333
C80   C     C_3   0.167749 0.667857 0.258733 -0.572206
H58   H     H_    0.061971 0.668332 0.222863 0.206191
H59   H     H_    0.089186 0.670165 0.300158 0.198625
H60   H     H_    0.259609 0.713721 0.259558 0.275762

loop_
_geom_bond_atom_site_label_1
_geom_bond_atom_site_label_2
_ccdc_geom_bond_type
C34   C38   A    
C42   C44   A    
C39   C41   A    
C76   H48   S    
C5    C15   S    
O13   V3    S    
O31   C77   S    
O23   C61   S    
O4    C2    A    
C21   O22   S    
C60   H8    S    
C23   C25   A    
C42   C46   A    
C78   H53   S    
C7    C9    S    
C16   C22   A    
O9    V1    S    
O22   C59   S    
C61   H12   S    
C37   O30   S    
C35   O31   S    
C11   C13   S    
C52   C54   T    
O5    V1    S    
C71   H36   S    
O3    C1    A    
C62   H14   S    
O28   C71   S    
C9    C11   T    
C57   H2    S    
C78   H55   S    
C61   H11   S    
O12   V4    S    
C71   C72   S    
C30   O24   S    
C80   H58   S    
C36   C38   A    
C2    O12   A    
C21   C23   A    
C33   C37   A    
O7    C3    A    
C61   C62   S    
C2    C34   S    
O5    C7    A    
C70   H33   S    
O7    V1    S    
C74   H43   S    
O6    C8    A    
C3    C51   S    
O8    V2    S    
C41   C43   A    
C66   H25   S    
O3    V1    S    
C46   C47   A    
O14   V4    S    
C58   H4    S    
C62   H15   S    
C71   H37   S    
C15   C21   A    
C22   O21   S    
C35   C43   A    
C53   C55   S    
V1    O19   S    
C76   H49   S    
C34   C40   A    
C17   C19   A    
C72   H39   S    
C45   C46   A    
C18   C20   A    
C17   C25   A    
C60   H9    S    
O11   V3    S    
C75   H47   S    
C40   O27   S    
C29   C31   A    
O17   V3    S    
C22   C24   A    
C35   C37   A    
C65   H21   S    
C27   C28   A    
C63   C64   S    
C79   H56   S    
C73   C74   S    
C48   C50   A    
O8    C4    A    
C80   H59   S    
C47   C49   A    
C57   H1    S    
C23   C27   A    
C1    O11   A    
C59   C60   S    
C36   O32   S    
O21   C57   S    
O15   V3    S    
C69   C70   S    
C26   C32   A    
C17   Br7   S    
C63   H17   S    
C70   H34   S    
C40   C42   A    
C45   C48   A    
C67   H27   S    
C13   C14   T    
C68   H30   S    
C75   C76   S    
C79   H57   S    
C24   C28   A    
O10   V2    S    
O1    V3    S    
O25   C65   S    
C54   C56   S    
C58   H5    S    
C59   H7    S    
C24   C26   A    
C51   C53   T    
C73   H41   S    
C48   Br4   S    
C78   H54   S    
C69   H32   S    
C32   Br2   S    
C18   C26   A    
C43   C49   A    
C72   H40   S    
O18   V4    S    
C76   H50   S    
C49   O25   S    
O15   C5    A    
C66   H23   S    
O16   C6    A    
C64   H20   S    
C67   C68   S    
C31   Br1   S    
C65   H22   S    
C12   C14   S    
O30   C75   S    
C60   H10   S    
C28   C29   A    
C66   H24   S    
O24   C63   S    
V2    O20   S    
C80   H60   S    
C6    C16   S    
O16   V4    S    
C73   H42   S    
C33   C39   A    
C57   C58   S    
C18   Br8   S    
C15   C19   A    
C20   Br5   S    
C30   C32   A    
C63   H16   S    
C70   H35   S    
C74   H45   S    
C75   H46   S    
O6    V2    S    
O27   C69   S    
O10   C6    A    
O18   C8    A    
C38   O29   S    
O2    V4    S    
C27   C30   A    
C65   C66   S    
C64   H19   S    
C67   H26   S    
O26   C67   S    
C19   Br6   S    
V3    O19   S    
C25   C31   A    
C64   H18   S    
V4    O20   S    
C68   H28   S    
C77   H52   S    
C41   C45   A    
C77   C78   S    
O9    C5    A    
O13   V1    S    
C10   C12   T    
C1    C33   S    
O14   V2    S    
C59   H6    S    
O2    C4    A    
C79   C80   S    
C69   H31   S    
C8    C10   S    
C55   C56   T    
O4    V2    S    
C29   O23   S    
C16   C20   A    
O1    C3    A    
C36   C44   A    
C74   H44   S    
O32   C79   S    
C77   H51   S    
C50   O26   S    
C62   H13   S    
C68   H29   S    
C47   Br3   S    
C58   H3    S    
C72   H38   S    
C44   C50   A    
C39   O28   S    
C4    C52   S    
O29   C73   S    
O17   C7    A    
