data_mof_unit_13149.cif
_audit_creation_date              2012-12-10T16:59:14-0500
_audit_creation_method            fapswitch 2.2
_symmetry_space_group_name_H-M    P1
_symmetry_Int_Tables_number       1
_space_group_crystal_system       triclinic
_cell_length_a                    7.732358
_cell_length_b                    8.556698
_cell_length_c                    27.719834
_cell_angle_alpha                 91.007484
_cell_angle_beta                  86.197723
_cell_angle_gamma                 93.714627
_cell_volume                      1825.99565917

loop_
_atom_site_label
_atom_site_type_symbol
_atom_type_description
_atom_site_fract_x
_atom_site_fract_y
_atom_site_fract_z
_atom_type_partial_charge
C1    C     C_R   0.545954 0.794882 0.498798 0.959902
C2    C     C_R   0.481815 0.656695 0.128461 -0.024681
C3    C     C_R   0.508220 0.497180 0.646607 -0.165070
C4    C     C_R   0.488523 0.505181 0.353407 -0.162514
C5    C     C_R   0.494066 0.656034 0.026260 0.047350
C6    C     C_R   0.426411 0.368256 0.975274 0.047515
C7    C     C_R   0.413521 0.371184 0.026537 0.047451
C8    C     C_R   0.505949 0.653300 0.974988 0.047725
C9    C     C_R   0.449993 0.514588 0.051665 0.073153
C10   C     C_R   0.472842 0.509281 0.949854 0.073164
C11   C     C_R   0.525914 0.795737 0.053322 -0.226219
C12   C     C_R   0.454085 0.205133 0.501357 0.960091
C13   C     C_R   0.396636 0.228154 0.948253 -0.225252
C14   C     C_R   0.520309 0.795558 0.103355 -0.140537
C15   C     C_R   0.411051 0.226741 0.898199 -0.141486
C16   C     C_R   0.502799 0.498914 0.593957 0.892606
C17   C     C_R   0.497179 0.500957 0.406005 0.899757
C18   C     C_R   0.552354 0.789785 0.947671 -0.225634
C19   C     C_R   0.366088 0.234904 0.053858 -0.225510
C20   C     C_2   0.570301 0.958354 0.498225 -0.384310
C21   C     C_2   0.429818 0.041688 0.502206 -0.375335
C22   C     C_R   0.542283 0.639441 0.822186 0.517048
C23   C     C_R   0.486818 0.506161 0.898591 -0.050070
C24   C     C_R   0.404743 0.379968 0.179108 0.518612
C25   C     C_R   0.468256 0.364384 0.822472 0.516576
C26   C     C_R   0.482376 0.654420 0.178869 0.513088
C27   C     C_R   0.651933 0.445666 0.719322 -0.195769
C28   C     C_R   0.624349 0.527461 0.272293 -0.198447
C29   C     C_R   0.651234 0.441593 0.668977 0.489977
C30   C     C_R   0.640087 0.525447 0.322153 0.505795
C31   C     C_R   0.366598 0.550684 0.675187 -0.268889
C32   C     C_R   0.324456 0.492503 0.334062 -0.287909
C33   C     C_R   0.367820 0.551831 0.725147 -0.102240
C34   C     C_R   0.444020 0.516250 0.102899 -0.049939
C35   C     C_R   0.310599 0.497989 0.284528 -0.089612
C36   C     C_R   0.510321 0.499831 0.747105 0.250028
C37   C     C_R   0.460361 0.515066 0.253735 0.247079
C38   C     C_3   0.867847 0.692574 0.339664 -0.278618
C39   C     C_3   0.773654 0.225194 0.637837 -0.247695
C40   C     C_R   0.531854 0.644712 0.872726 -0.026199
C41   C     C_R   0.402270 0.377099 0.128719 -0.027102
C42   C     C_R   0.564508 0.785231 0.897614 -0.141633
C43   C     C_R   0.361462 0.238064 0.103880 -0.141966
C44   C     C_R   0.455648 0.364506 0.873019 -0.025117
H1    H     H_    0.255161 0.593048 0.658957 0.200430
H2    H     H_    0.762056 0.406059 0.736846 0.158764
H3    H     H_    0.548154 0.905243 0.122296 0.194917
H4    H     H_    0.386360 0.116491 0.879273 0.192605
H5    H     H_    0.557056 0.908343 0.037269 0.140712
H6    H     H_    0.362434 0.116099 0.964356 0.139910
H7    H     H_    0.581544 0.903149 0.963530 0.140935
H8    H     H_    0.331614 0.122563 0.038022 0.141401
H9    H     H_    0.702929 0.009554 0.494476 0.179359
H10   H     H_    0.297198 0.990492 0.505993 0.179934
H11   H     H_    0.778763 0.768183 0.361266 0.162202
H12   H     H_    0.206280 0.477283 0.357193 0.205383
H13   H     H_    0.891493 0.736673 0.302135 0.174053
H14   H     H_    0.994079 0.701154 0.356647 0.191771
H15   H     H_    0.653473 0.187083 0.619639 0.150090
H16   H     H_    0.773277 0.168909 0.673757 0.173706
H17   H     H_    0.885599 0.183767 0.615135 0.190200
H18   H     H_    0.014164 0.383356 0.463371 0.196011
H19   H     H_    0.985825 0.616652 0.536624 0.201889
H20   H     H_    0.258146 0.593295 0.746941 0.156917
H21   H     H_    0.183691 0.488042 0.269978 0.167855
H22   H     H_    0.600346 0.893030 0.878455 0.192609
H23   H     H_    0.326533 0.130084 0.123032 0.192253
H24   H     H_    0.739723 0.538373 0.247886 0.151907
N1    N     N_R   0.509567 0.500829 0.798410 -0.347699
N2    N     N_R   0.446699 0.516921 0.202815 -0.347770
N3    N     N_2   0.950320 0.457960 0.486880 -0.166677
N4    N     N_2   0.049680 0.542040 0.513120 -0.166217
O1    O     O_R   0.389250 0.738570 0.503220 -0.615058
O2    O     O_2   0.368610 0.246782 0.204245 -0.533511
O3    O     O_2   0.519215 0.787978 0.203855 -0.540301
O4    O     O_2   0.437531 0.229733 0.797457 -0.540638
O5    O     O_3   0.803525 0.534564 0.339867 -0.604356
O6    O     O_3   0.793730 0.389790 0.642027 -0.599436
O7    O     O_R   0.610750 0.261430 0.496780 -0.616425
O8    O     O_R   0.678390 0.711630 0.494810 -0.638461
O9    O     O_R   0.321610 0.288370 0.505190 -0.630776
O10   O     O_R   0.355440 0.513440 0.575450 -0.618467
O11   O     O_R   0.644560 0.486560 0.424550 -0.562892
O12   O     O_R   0.644590 0.486500 0.567040 -0.578631
O13   O     O_R   0.355410 0.513500 0.432960 -0.641103
O14   O     O_2   0.584079 0.771462 0.796881 -0.538339
Zn1   Zn    Zn3+2 0.306940 0.517990 0.505620 0.953226
Zn2   Zn    Zn3+2 0.693060 0.482010 0.494380 0.978555

loop_
_geom_bond_atom_site_label_1
_geom_bond_atom_site_label_2
_ccdc_geom_bond_type
C27   C29   A    
C24   N2    A    
C17   O13   A    
C28   H24   S    
C15   C44   A    
C5    C11   A    
C18   C42   A    
C21   H10   S    
C11   C14   A    
C35   H21   S    
C23   C40   A    
C12   O7    A    
C16   O12   A    
C33   C36   A    
C3    C29   A    
O1    Zn1   S    
C10   C23   A    
C38   H14   S    
C30   O5    S    
C19   H8    S    
C29   O6    S    
H18   N3    S    
C31   C33   A    
C22   N1    A    
C2    C34   A    
C40   C42   A    
O11   Zn2   S    
C22   C40   A    
C37   N2    S    
C24   C41   A    
C41   C43   A    
C34   C41   A    
C15   H4    S    
C25   C44   A    
O7    Zn2   S    
C19   C43   A    
C18   H7    S    
O13   Zn1   S    
C39   H17   S    
C38   H11   S    
C32   C35   A    
C12   C21   S    
C8    C18   A    
C23   C44   A    
N3    Zn2   S    
C17   O11   A    
C39   O6    S    
C5    C9    A    
C11   H5    S    
C38   H13   S    
C39   H15   S    
C16   O10   A    
C26   O3    S    
C2    C26   A    
O9    Zn1   S    
H19   N4    S    
C3    C31   A    
C14   H3    S    
C4    C17   S    
C27   H2    S    
C43   H23   S    
C7    C19   A    
C13   C15   A    
C9    C34   A    
C26   N2    A    
C25   N1    A    
N4    Zn1   S    
C36   N1    S    
C7    C9    A    
C1    C20   S    
C35   C37   A    
O12   Zn2   S    
C20   H9    S    
C6    C10   A    
C5    C8    A    
C6    C7    A    
C38   O5    S    
C27   C36   A    
C25   O4    S    
C1    O1    A    
C28   C30   A    
N3    N4    D    
O8    Zn2   S    
C6    C13   A    
C24   O2    S    
C28   C37   A    
C33   H20   S    
C39   H16   S    
C13   H6    S    
C12   O9    A    
C22   O14   S    
C2    C14   A    
C4    C32   A    
C20   C21   D    
C8    C10   A    
C31   H1    S    
C42   H22   S    
C1    O8    A    
C32   H12   S    
C4    C30   A    
C3    C16   S    
O10   Zn1   S    
