data_mof_unit_23436.cif
_audit_creation_date              2012-12-10T17:25:35-0500
_audit_creation_method            fapswitch 2.2
_symmetry_space_group_name_H-M    P1
_symmetry_Int_Tables_number       1
_space_group_crystal_system       triclinic
_cell_length_a                    10.108584
_cell_length_b                    10.788749
_cell_length_c                    23.435715
_cell_angle_alpha                 90.220093
_cell_angle_beta                  81.515211
_cell_angle_gamma                 95.346238
_cell_volume                      2516.77704119

loop_
_atom_site_label
_atom_site_type_symbol
_atom_type_description
_atom_site_fract_x
_atom_site_fract_y
_atom_site_fract_z
_atom_type_partial_charge
C1    C     C_R   0.556229 0.732820 0.497985 0.950446
C2    C     C_R   0.375429 0.502703 0.305632 -0.212733
C3    C     C_R   0.390256 0.535308 0.769245 -0.191397
C4    C     C_R   0.373568 0.500220 0.246569 -0.188494
C5    C     C_R   0.507535 0.514365 0.791054 0.244352
C6    C     C_R   0.492536 0.490220 0.208860 0.236943
C7    C     C_2   0.588344 0.864963 0.502768 -0.371225
C8    C     C_2   0.412150 0.135211 0.514764 -0.367020
C9    C     C_2   0.488602 0.933943 0.521810 -0.142638
C10   C     C_2   0.512553 0.066509 0.520148 -0.139051
C11   C     C_2   0.927138 0.510069 0.504798 -0.128765
C12   C     C_R   0.443871 0.267208 0.505621 0.949019
C13   C     C_2   0.072816 0.489797 0.495271 -0.125702
C14   C     C_R   0.500873 0.500914 0.610650 0.901078
C15   C     C_R   0.499173 0.499253 0.389349 0.908599
C16   C     C_R   0.452448 0.386121 0.121434 0.499113
C17   C     C_R   0.541541 0.619948 0.878834 0.516896
C18   C     C_R   0.529272 0.602361 0.119412 0.574515
C19   C     C_R   0.466859 0.403249 0.880732 0.560666
C20   C     C_R   0.533291 0.607801 0.059811 -0.071759
C21   C     C_R   0.461469 0.398116 0.940409 -0.070910
C22   C     C_R   0.494732 0.499708 0.030265 -0.032489
C23   C     C_R   0.624931 0.492105 0.754139 0.585174
C24   C     C_R   0.499546 0.506317 0.969985 -0.032755
C25   C     C_R   0.451367 0.385672 0.061039 -0.073446
C26   C     C_R   0.542570 0.620428 0.939229 -0.075247
C27   C     C_R   0.576670 0.719548 0.029918 -0.145587
C28   C     C_R   0.417763 0.286452 0.970309 -0.146414
C29   C     C_R   0.584281 0.728751 0.969858 0.136618
C30   C     C_R   0.409740 0.277329 0.030389 0.137173
C31   C     C_3   0.638051 0.852286 0.939062 -0.317957
C32   C     C_3   0.692145 0.957662 0.975828 -0.926048
C33   C     C_3   0.356324 0.153654 0.061133 -0.321037
C34   C     C_R   0.613911 0.479811 0.229830 0.583146
C35   C     C_3   0.303509 0.047878 0.024253 -0.929292
C36   C     C_3   0.841382 0.561819 0.761689 -0.305631
C37   C     C_3   0.769561 0.352491 0.191457 -0.304099
C38   C     C_R   0.621572 0.485360 0.694789 -0.321078
C39   C     C_R   0.615987 0.484801 0.289173 -0.310596
C40   C     C_R   0.503526 0.505627 0.672701 -0.103783
C41   C     C_R   0.496825 0.495786 0.327264 -0.110550
C42   C     C_R   0.388186 0.531483 0.710269 -0.206891
H1    H     H_    0.605504 0.799926 0.054366 0.206978
H2    H     H_    0.280140 0.507394 0.229915 0.161467
H3    H     H_    0.615709 0.107148 0.518605 0.189668
H4    H     H_    0.385740 0.893431 0.534350 0.187970
H5    H     H_    0.309307 0.094102 0.516163 0.152284
H6    H     H_    0.690886 0.905941 0.490127 0.153007
H7    H     H_    0.109149 0.421961 0.463879 0.162093
H8    H     H_    0.890778 0.577821 0.536230 0.161519
H9    H     H_    0.611259 0.987233 0.008930 0.264785
H10   H     H_    0.776062 0.928234 0.996722 0.271937
H11   H     H_    0.731248 0.039525 0.947692 0.275178
H12   H     H_    0.389173 0.206037 0.945836 0.208275
H13   H     H_    0.723037 0.834558 0.905131 0.249005
H14   H     H_    0.556467 0.888162 0.918705 0.249760
H15   H     H_    0.219534 0.076599 0.003189 0.271644
H16   H     H_    0.384992 0.018888 0.991285 0.267118
H17   H     H_    0.264827 0.965840 0.052341 0.272185
H18   H     H_    0.437832 0.118339 0.081744 0.247302
H19   H     H_    0.270753 0.170978 0.094844 0.249873
H20   H     H_    0.807604 0.655270 0.773238 0.188877
H21   H     H_    0.881732 0.558726 0.714997 0.151709
H22   H     H_    0.925079 0.547778 0.786014 0.199070
H23   H     H_    0.119696 0.614820 0.553046 0.158918
H24   H     H_    0.688905 0.284002 0.179632 0.191526
H25   H     H_    0.797532 0.327009 0.233755 0.159016
H26   H     H_    0.859380 0.347083 0.158380 0.201793
H27   H     H_    0.880330 0.385252 0.446924 0.162904
H28   H     H_    0.710342 0.462876 0.666290 0.176192
H29   H     H_    0.710785 0.481067 0.305147 0.179117
H30   H     H_    0.296100 0.547780 0.694228 0.172621
H31   H     H_    0.282194 0.510743 0.334220 0.173671
H32   H     H_    0.300404 0.553173 0.798228 0.155979
N1    N     N_R   0.490527 0.493024 0.148314 -0.328680
N2    N     N_R   0.505941 0.512502 0.851821 -0.326856
N3    N     N_2   0.842710 0.448880 0.476480 -0.195084
N4    N     N_2   0.157290 0.551120 0.523520 -0.195200
O1    O     O_R   0.431060 0.692470 0.504730 -0.610623
O2    O     O_2   0.573898 0.724679 0.846725 -0.604607
O3    O     O_2   0.564511 0.705425 0.148661 -0.554431
O4    O     O_2   0.432685 0.299962 0.851415 -0.554191
O5    O     O_3   0.737691 0.465941 0.777244 -0.597942
O6    O     O_3   0.731494 0.474940 0.191733 -0.599966
O7    O     O_R   0.568940 0.307530 0.495270 -0.611428
O8    O     O_R   0.651120 0.659650 0.489640 -0.610615
O9    O     O_R   0.348880 0.340350 0.510360 -0.610561
O10   O     O_R   0.389950 0.516450 0.591390 -0.618133
O11   O     O_R   0.610050 0.483550 0.408610 -0.613807
O12   O     O_R   0.610020 0.483630 0.576300 -0.621256
O13   O     O_R   0.389980 0.516370 0.423700 -0.617657
O14   O     O_2   0.417941 0.281784 0.153667 -0.605842
Zn1   Zn    Zn3+2 0.353060 0.521920 0.510080 0.946068
Zn2   Zn    Zn3+2 0.646940 0.478080 0.489920 0.946228

loop_
_geom_bond_atom_site_label_1
_geom_bond_atom_site_label_2
_ccdc_geom_bond_type
C38   H28   S    
C3    C42   A    
C18   N1    A    
C27   C29   A    
C16   N1    A    
H27   N3    S    
C6    N1    S    
C39   C41   A    
C23   O5    S    
C12   O7    A    
C35   H16   S    
C17   C26   A    
C19   N2    A    
C19   C21   A    
C24   C26   A    
O1    Zn1   S    
O13   Zn1   S    
N4    Zn1   S    
C37   H26   S    
C37   H25   S    
N3    Zn2   S    
C25   C30   A    
C18   O3    S    
C35   H17   S    
O11   Zn2   S    
C3    H32   S    
C14   O12   A    
O8    Zn2   S    
C13   N4    D    
C32   H10   S    
C22   C25   A    
C17   N2    A    
C37   O6    S    
C31   H14   S    
C36   H21   S    
C11   N3    D    
C9    C10   S    
C12   O9    A    
C40   C42   A    
C9    H4    S    
C34   O6    S    
C36   H20   S    
O12   Zn2   S    
C34   C39   A    
C15   C41   S    
C4    C6    A    
C28   H12   S    
C4    H2    S    
C15   O13   A    
C17   O2    S    
C6    C34   A    
C2    C4    A    
C32   H9    S    
C15   O11   A    
O7    Zn2   S    
C31   C32   S    
C5    C23   A    
C8    C12   S    
C37   H24   S    
C10   H3    S    
C42   H30   S    
C2    H31   S    
C13   H7    S    
C33   H19   S    
C21   C28   A    
C20   C22   A    
C16   O14   S    
C33   H18   S    
C1    O1    A    
C22   C24   A    
C19   O4    S    
C32   H11   S    
C16   C25   A    
C7    C9    D    
O10   Zn1   S    
H23   N4    S    
C30   C33   S    
C1    C7    S    
C3    C5    A    
C20   C27   A    
C23   C38   A    
C35   H15   S    
C7    H6    S    
C5    N2    S    
C28   C30   A    
C8    H5    S    
C14   O10   A    
C2    C41   A    
C29   C31   S    
C11   H8    S    
C38   C40   A    
C11   C13   S    
O9    Zn1   S    
C33   C35   S    
C18   C20   A    
C14   C40   S    
C27   H1    S    
C1    O8    A    
C26   C29   A    
C8    C10   D    
C21   C24   A    
C39   H29   S    
C36   O5    S    
C31   H13   S    
C36   H22   S    
