data_mof_unit_13838.cif
_audit_creation_date              2012-10-26T21:14:55-0400
_audit_creation_method            fapswitch 2.2
_symmetry_space_group_name_H-M    P1
_symmetry_Int_Tables_number       1
_space_group_crystal_system       triclinic
_cell_length_a                    14.977452
_cell_length_b                    10.951982
_cell_length_c                    13.819681
_cell_angle_alpha                 91.287339
_cell_angle_beta                  90.540352
_cell_angle_gamma                 87.549943
_cell_volume                      2264.15546108

loop_
_atom_site_label
_atom_site_type_symbol
_atom_type_description
_atom_site_fract_x
_atom_site_fract_y
_atom_site_fract_z
_atom_type_partial_charge
C1    C     C_R   0.495741 0.262382 0.498615 0.540451
C2    C     C_R   0.511982 0.887856 0.686901 -0.040283
C3    C     C_R   0.591910 0.110196 0.258402 -0.045140
C4    C     C_R   0.444859 0.889322 0.756868 -0.099675
C5    C     C_R   0.589404 0.134885 0.159440 0.252862
C6    C     C_R   0.464832 0.860657 0.852995 0.261540
C7    C     C_R   0.507234 0.170770 0.114623 0.250178
C8    C     C_R   0.552386 0.818421 0.878590 0.256795
C9    C     C_R   0.526661 0.931902 0.415265 0.102177
C10   C     C_R   0.476444 0.067575 0.583529 0.093714
C11   C     C_R   0.512454 0.871681 0.503058 -0.028179
C12   C     C_R   0.506056 0.737355 0.501170 0.533242
C13   C     C_R   0.491408 0.127848 0.496018 -0.026321
C14   C     C_R   0.495564 0.941046 0.589465 -0.044268
C15   C     C_R   0.512261 0.058921 0.410481 -0.029708
C16   C     C_R   0.329145 0.505008 0.499544 0.563078
C17   C     C_R   0.670857 0.498274 0.500193 0.563535
C18   C     C_R   0.569110 0.442186 0.793495 0.246923
C19   C     C_R   0.427154 0.547728 0.204962 0.219737
C20   C     C_R   0.431911 0.560351 0.793056 0.358902
C21   C     C_R   0.572740 0.450047 0.206948 0.349708
C22   C     C_R   0.429463 0.558889 0.896240 -0.007537
C23   C     C_R   0.056993 0.282549 0.464626 0.149004
C24   C     C_R   0.576893 0.455638 0.103265 -0.003706
C25   C     C_R   0.502757 0.506741 0.947888 0.034469
C26   C     C_R   0.503090 0.506204 0.051429 0.034500
C27   C     C_R   0.574951 0.452992 0.896162 -0.002513
C28   C     C_R   0.429031 0.555407 0.102521 -0.021843
C29   C     C_R   0.356266 0.608056 0.949177 -0.107822
C30   C     C_R   0.652454 0.414030 0.049461 -0.108280
C31   C     C_R   0.357422 0.609926 0.049811 -0.135639
C32   C     C_R   0.650719 0.410555 0.948279 -0.116256
C33   C     C_R   0.808716 0.604641 0.521925 -0.154071
C34   C     C_R   0.943656 0.721244 0.532638 0.141964
C35   C     C_R   0.191507 0.397388 0.486979 -0.172052
C36   C     C_R   0.767239 0.496085 0.500314 0.021037
C37   C     C_R   0.232786 0.508100 0.498034 0.025536
C38   C     C_R   0.816716 0.389039 0.473707 0.130808
C39   C     C_R   0.182754 0.619466 0.501286 0.127858
C40   C     C_R   0.910865 0.389615 0.476836 -0.010995
C41   C     C_R   0.088868 0.616829 0.507067 -0.002284
C42   C     C_R   0.953060 0.500848 0.497440 -0.005365
C43   C     C_R   0.046830 0.503767 0.496063 -0.003952
C44   C     C_R   0.901512 0.609591 0.517961 0.043058
C45   C     C_R   0.429221 0.186831 0.172324 0.214085
C46   C     C_R   0.098593 0.393942 0.481937 0.026869
C47   C     C_R   0.963521 0.281922 0.460438 -0.105475
C48   C     C_R   0.036416 0.724191 0.524718 -0.121784
C49   C     C_3   0.507530 0.841038 0.251826 -0.238072
C50   C     C_3   0.347695 0.168177 0.661637 -0.257989
C51   C     C_3   0.635271 0.237946 0.761701 -0.297475
C52   C     C_3   0.273827 0.509673 0.245666 -0.255951
C53   C     C_3   0.744053 0.203654 0.513868 -0.308688
C54   C     C_3   0.261842 0.792075 0.569036 -0.302654
C55   C     C_3   0.078378 0.057980 0.477453 -0.327457
C56   C     C_R   0.618194 0.803715 0.805153 0.218370
C57   C     C_3   0.874013 0.854027 0.653964 -0.303193
C58   C     C_R   0.432650 0.153690 0.269487 -0.070813
C59   C     C_R   0.598294 0.843997 0.711756 -0.068136
C60   C     C_R   0.513351 0.113927 0.312851 -0.008432
Cu1   Cu    Cu3+1 0.500010 0.499980 0.597420 1.033080
Cu2   Cu    Cu3+1 0.499990 0.500020 0.402580 1.033146
H1    H     H_    0.767419 0.686089 0.538309 0.137217
H2    H     H_    0.650338 0.839503 0.657655 0.128644
H3    H     H_    0.654617 0.079847 0.291534 0.157030
H4    H     H_    0.377391 0.919593 0.738090 0.137724
H5    H     H_    0.615535 0.802697 0.347791 0.265278
H6    H     H_    0.516201 0.743502 0.230976 0.163319
H7    H     H_    0.527145 0.893698 0.188496 0.172564
H8    H     H_    0.436075 0.863051 0.268487 0.144793
H9    H     H_    0.466160 0.112952 0.732965 0.254271
H10   H     H_    0.328750 0.225392 0.726169 0.157285
H11   H     H_    0.308088 0.084795 0.660222 0.120707
H12   H     H_    0.232998 0.314269 0.479789 0.114516
H13   H     H_    0.331329 0.221583 0.596134 0.153362
H14   H     H_    0.695707 0.403721 0.739986 0.240188
H15   H     H_    0.702034 0.207900 0.790280 0.113616
H16   H     H_    0.622583 0.185057 0.694154 0.162899
H17   H     H_    0.584067 0.215190 0.815420 0.176735
H18   H     H_    0.331099 0.680649 0.244734 0.224289
H19   H     H_    0.248824 0.502280 0.170200 0.126930
H20   H     H_    0.218007 0.546253 0.291530 0.142381
H21   H     H_    0.293701 0.416235 0.269771 0.198590
H22   H     H_    0.340766 0.690806 0.777343 0.304558
H23   H     H_    0.296474 0.645298 0.914579 0.134001
H24   H     H_    0.676000 0.334738 0.220026 0.317194
H25   H     H_    0.798703 0.239921 0.379897 0.253353
H26   H     H_    0.704805 0.129453 0.480883 0.140797
H27   H     H_    0.701375 0.254854 0.567047 0.179858
H28   H     H_    0.803564 0.162383 0.551330 0.124323
H29   H     H_    0.191196 0.789106 0.438631 0.240012
H30   H     H_    0.287021 0.881726 0.548397 0.125296
H31   H     H_    0.319048 0.737427 0.598190 0.229024
H32   H     H_    0.209937 0.807537 0.625396 0.136788
H33   H     H_    0.144205 0.170433 0.382106 0.254201
H34   H     H_    0.714448 0.383796 0.083401 0.122719
H35   H     H_    0.135921 0.991442 0.482585 0.140040
H36   H     H_    0.029799 0.022538 0.423696 0.134902
H37   H     H_    0.047210 0.067912 0.550034 0.153086
H38   H     H_    0.917919 0.907368 0.520717 0.239916
H39   H     H_    0.829024 0.936791 0.662309 0.141928
H40   H     H_    0.936994 0.869044 0.694876 0.145225
H41   H     H_    0.840196 0.775505 0.684658 0.204009
H42   H     H_    0.444160 0.172753 0.990951 0.343369
H43   H     H_    0.635987 0.803885 0.986630 0.342552
H44   H     H_    0.360736 0.287894 0.082644 0.330578
H45   H     H_    0.300557 0.654670 0.085198 0.118174
H46   H     H_    0.698376 0.692791 0.874929 0.330675
H47   H     H_    0.657716 0.138318 0.039947 0.371101
H48   H     H_    0.420615 0.859897 0.985430 0.372770
H49   H     H_    0.710076 0.375515 0.911308 0.116084
H50   H     H_    0.932407 0.196408 0.445239 0.119914
H51   H     H_    0.067150 0.810655 0.536716 0.108369
H52   H     H_    0.371788 0.158345 0.311474 0.129320
N1    N     N_R   0.499960 0.499900 0.743810 -0.186801
N2    N     N_2   0.892929 0.831826 0.552506 -0.543333
N3    N     N_R   0.500040 0.500100 0.256190 -0.199567
N4    N     N_2   0.565419 0.867585 0.333635 -0.512848
N5    N     N_2   0.442378 0.136009 0.665516 -0.491860
N6    N     N_2   0.633213 0.367737 0.741498 -0.463888
N7    N     N_2   0.348700 0.589746 0.254696 -0.454646
N8    N     N_2   0.770873 0.284688 0.439463 -0.491796
N9    N     N_2   0.225773 0.730871 0.484605 -0.526491
N10   N     N_2   0.110398 0.173393 0.446841 -0.529823
O1    O     O_R   0.500000 0.319630 0.582270 -0.455404
O2    O     O_3   0.638924 0.391238 0.260632 -0.649897
O3    O     O_3   0.505159 0.186853 0.015746 -0.738208
O4    O     O_3   0.571402 0.794354 0.974471 -0.737607
O5    O     O_3   0.348734 0.233049 0.136585 -0.726653
O6    O     O_3   0.702094 0.751049 0.821488 -0.735099
O7    O     O_3   0.668300 0.119012 0.108836 -0.715477
O8    O     O_3   0.397333 0.878512 0.919895 -0.715612
O9    O     O_R   0.500000 0.680370 0.417730 -0.491107
O10   O     O_R   0.499990 0.319660 0.417730 -0.485051
O11   O     O_R   0.500010 0.680340 0.582270 -0.489234
O12   O     O_R   0.370260 0.499960 0.582280 -0.450256
O13   O     O_R   0.629740 0.500040 0.417720 -0.424272
O14   O     O_R   0.370250 0.499990 0.417740 -0.482406
O15   O     O_R   0.629750 0.500010 0.582260 -0.507462
O16   O     O_3   0.366405 0.620384 0.739758 -0.686290

loop_
_geom_bond_atom_site_label_1
_geom_bond_atom_site_label_2
_ccdc_geom_bond_type
H33   N10   S    
C40   C47   A    
C38   C40   A    
C54   N9    S    
C35   H12   S    
C45   O5    S    
C49   H6    S    
H44   O5    S    
C15   C60   S    
H38   N2    S    
C8    C56   A    
C39   C41   A    
C54   H30   S    
C57   H40   S    
C59   H2    S    
H14   N6    S    
C7    C45   A    
Cu2   O9    S    
C17   O13   A    
C22   C29   A    
C1    O1    A    
C53   N8    S    
C11   C14   A    
H24   O2    S    
C34   N2    S    
C47   H50   S    
C33   C36   A    
C39   N9    S    
C50   H10   S    
C54   H31   S    
C21   N3    A    
C10   N5    S    
C8    O4    S    
Cu2   N3    S    
C12   O11   A    
Cu1   N1    S    
C30   H34   S    
H48   O8    S    
C17   C36   S    
C29   H23   S    
Cu1   Cu2   S    
C16   C37   S    
C3    C60   A    
C40   C42   A    
C23   C46   A    
H29   N9    S    
C9    N4    S    
C41   C43   A    
C3    H3    S    
C42   C44   A    
C43   C46   A    
C57   N2    S    
C51   H17   S    
H18   N7    S    
C57   H41   S    
C45   C58   A    
C23   C47   A    
C50   N5    S    
C34   C44   A    
C4    C6    A    
C10   C14   A    
C50   H11   S    
C5    C7    A    
C2    C59   A    
Cu1   O15   S    
C6    C8    A    
C32   H49   S    
C25   C26   A    
C22   C25   A    
C52   H21   S    
C2    C4    A    
C51   H15   S    
H47   O7    S    
C20   N1    A    
C52   N7    S    
C49   N4    S    
C33   H1    S    
C55   H35   S    
C51   N6    S    
C17   O15   A    
Cu2   O14   S    
C52   H20   S    
C19   C28   A    
C9    C11   A    
H22   O16   S    
C38   N8    S    
C6    O8    S    
C20   C22   A    
C12   O9    A    
C13   C15   A    
C53   H27   S    
C1    C13   S    
C42   C43   A    
C1    O10   A    
C16   O12   A    
C18   N6    S    
Cu1   O11   S    
C4    H4    S    
C55   N10   S    
C19   N7    S    
H43   O4    S    
C35   C37   A    
C27   C32   A    
C33   C44   A    
C31   H45   S    
C28   C31   A    
C16   O14   A    
C18   C27   A    
C24   C26   A    
C3    C5    A    
C10   C13   A    
C18   N1    A    
H25   N8    S    
Cu1   O1    S    
C11   C12   S    
C23   N10   S    
C25   C27   A    
C57   H39   S    
C26   C28   A    
C56   C59   A    
H9    N5    S    
C49   H8    S    
Cu2   O10   S    
C36   C38   A    
C9    C15   A    
C51   H16   S    
C37   C39   A    
C50   H13   S    
C30   C32   A    
C20   O16   S    
H42   O3    S    
C55   H36   S    
C41   C48   A    
C53   H26   S    
Cu2   O13   S    
C52   H19   S    
C2    C14   S    
H5    N4    S    
C24   C30   A    
C54   H32   S    
C5    O7    S    
C34   C48   A    
C19   N3    A    
C29   C31   A    
C21   C24   A    
C55   H37   S    
C53   H28   S    
C58   H52   S    
C49   H7    S    
C7    O3    S    
C21   O2    S    
C35   C46   A    
C58   C60   A    
H46   O6    S    
C56   O6    S    
Cu1   O12   S    
C48   H51   S    
