data_mof_unit_39048.cif
_audit_creation_date              2012-12-11T15:57:36-0500
_audit_creation_method            fapswitch 2.2
_symmetry_space_group_name_H-M    P1
_symmetry_Int_Tables_number       1
_space_group_crystal_system       triclinic
_cell_length_a                    10.724646
_cell_length_b                    10.765138
_cell_length_c                    17.060412
_cell_angle_alpha                 100.220607
_cell_angle_beta                  100.256619
_cell_angle_gamma                 60.778363
_cell_volume                      1682.10930303

loop_
_atom_site_label
_atom_site_type_symbol
_atom_type_description
_atom_site_fract_x
_atom_site_fract_y
_atom_site_fract_z
_atom_type_partial_charge
C1    C     C_R   0.354387 0.775522 0.401257 0.558136
C2    C     C_2   0.829158 0.333005 0.159310 -0.109066
C3    C     C_2   0.849455 0.220662 0.193672 -0.143253
C4    C     C_2   0.820129 0.236899 0.275868 -0.157963
C5    C     C_2   0.324135 0.859716 0.334641 0.087261
C6    C     C_2   0.343884 0.834861 0.160737 -0.094184
C7    C     C_2   0.399196 0.900004 0.219824 -0.096068
C8    C     C_2   0.430120 0.862252 0.301985 0.018483
C9    C     C_2   0.366712 0.371640 0.671929 0.081143
C10   C     C_2   0.338978 0.335479 0.833257 -0.039531
C11   C     C_2   0.371799 0.240113 0.768169 0.051608
C12   C     C_R   0.365728 0.342901 0.358232 0.565336
C13   C     C_2   0.447182 0.259104 0.714114 0.024596
C14   C     C_1   0.846483 0.329252 0.705294 -0.057467
C15   C     C_1   0.893609 0.293089 0.771578 -0.051962
C16   C     C_1   0.359822 0.762712 0.713636 -0.065880
C17   C     C_1   0.326323 0.809872 0.780424 -0.058163
C18   C     C_R   0.894333 0.308559 0.086858 0.553579
C19   C     C_R   0.290483 0.260777 0.121705 0.565114
C20   C     C_R   0.294541 0.892359 0.084214 0.543554
C21   C     C_R   0.943704 0.272579 0.853936 0.556077
C22   C     C_R   0.311127 0.296795 0.899685 0.536915
C23   C     C_R   0.775687 0.376610 0.404430 0.553103
C24   C     C_R   0.280668 0.880364 0.857187 0.538564
C25   C     C_R   0.382307 0.713612 0.631315 0.533348
C26   C     C_R   0.407553 0.378161 0.598000 0.548397
C27   C     C_R   0.777432 0.379145 0.629128 0.530890
C28   C     C_1   0.324264 0.316471 0.276432 -0.050872
C29   C     C_1   0.304270 0.292003 0.205745 -0.051573
C30   C     C_2   0.844964 0.329412 0.331502 -0.119389
Cr1   Cr    Cr6+3 0.608020 0.610770 0.522990 1.001389
Cr2   Cr    Cr6+3 0.289390 0.599570 0.488050 1.013232
Cr3   Cr    Cr6+3 0.602610 0.289690 0.489020 0.993989
Cr4   Cr    Cr6+3 0.053780 0.052210 0.965970 1.011784
Cr5   Cr    Cr6+3 0.060060 0.372530 0.992430 1.028809
Cr6   Cr    Cr6+3 0.372600 0.061970 0.991430 1.006584
H1    H     H_    0.891866 0.113521 0.162211 0.169686
H2    H     H_    0.362958 0.424654 0.842740 0.092904
H3    H     H_    0.772335 0.175470 0.289402 0.159007
H4    H     H_    0.782263 0.440576 0.190272 0.105023
H5    H     H_    0.897030 0.386910 0.318003 0.108964
H6    H     H_    0.421667 0.982664 0.208149 0.139399
H7    H     H_    0.318303 0.754152 0.172231 0.116264
O1    O     O_R   0.749250 0.499990 0.439200 -0.525671
O2    O     O_R   0.299400 0.468710 0.556310 -0.508761
O3    O     O_R   0.489240 0.256450 0.560730 -0.529747
O4    O     O_R   0.723350 0.306730 0.584410 -0.528744
O5    O     O_3   0.500010 0.500010 0.500020 -0.277114
O6    O     O_R   0.170650 0.915100 0.051290 -0.503158
O7    O     O_R   0.941960 0.184500 0.049060 -0.492910
O8    O     O_R   0.922640 0.402670 0.071640 -0.515571
O9    O     O_R   0.196880 0.368740 0.083740 -0.490742
O10   O     O_R   0.411120 0.181190 0.091480 -0.510998
O11   O     O_R   0.364220 0.944920 0.062310 -0.516158
O12   O     O_R   0.477870 0.725740 0.440280 -0.515760
O13   O     O_R   0.158740 0.906940 0.874970 -0.509599
O14   O     O_R   0.930920 0.176940 0.885610 -0.505177
O15   O     O_R   0.910730 0.394510 0.895320 -0.495492
O16   O     O_R   0.185840 0.361180 0.920280 -0.501955
O17   O     O_R   0.399210 0.173040 0.915160 -0.523040
O18   O     O_R   0.353170 0.937370 0.898860 -0.502918
O19   O     O_3   0.162150 0.162240 0.983280 -0.291845
O20   O     O_R   0.260770 0.742210 0.412610 -0.508946
O21   O     O_R   0.297990 0.466320 0.394220 -0.487029
O22   O     O_R   0.487720 0.253870 0.385870 -0.516599
O23   O     O_R   0.721940 0.304340 0.422320 -0.492847
O24   O     O_R   0.750770 0.502570 0.614050 -0.502753
O25   O     O_R   0.479280 0.728140 0.602370 -0.488698
O26   O     O_R   0.262290 0.744790 0.587460 -0.518164
C31   C     C_3   0.602272 0.146789 0.703877 -0.282204
C32   C     C_3   0.688859 0.092581 0.783211 -0.428178
H8    H     H_    0.679331 0.184225 0.828180 0.178330
H9    H     H_    0.650235 0.028983 0.806595 0.161364
H10   H     H_    0.803847 0.022743 0.773889 0.162934
H11   H     H_    0.603798 0.054733 0.661734 0.164345
H12   H     H_    0.658250 0.192782 0.679762 0.177524
N1    N     N_3   0.227170 0.480394 0.695087 -0.644215
H13   H     H_    0.146868 0.476691 0.651374 0.254977
H14   H     H_    0.221852 0.580869 0.699286 0.237700
C33   C     C_3   0.581995 0.817635 0.343625 -0.260574
C34   C     C_3   0.674854 0.854697 0.303530 -0.455992
H15   H     H_    0.691613 0.798152 0.242126 0.156102
H16   H     H_    0.624002 0.972058 0.301017 0.171565
H17   H     H_    0.781656 0.820149 0.338990 0.142332
H18   H     H_    0.575290 0.872118 0.405688 0.168124
H19   H     H_    0.638725 0.699980 0.345363 0.183788
N2    N     N_3   0.177970 0.930511 0.298460 -0.640309
H20   H     H_    0.114387 0.002172 0.342703 0.237876
H21   H     H_    0.142819 0.854056 0.278490 0.237616
C35   C     C_3   0.328853 0.121292 0.746356 -0.240114
C36   C     C_3   0.243799 0.131316 0.663598 -0.426807
H22   H     H_    0.206559 0.049323 0.651926 0.157662
H23   H     H_    0.148116 0.238493 0.660615 0.159149
H24   H     H_    0.312003 0.112017 0.616238 0.173251
H25   H     H_    0.427029 0.015688 0.746972 0.157642
H26   H     H_    0.259676 0.126454 0.789311 0.158743

loop_
_geom_bond_atom_site_label_1
_geom_bond_atom_site_label_2
_ccdc_geom_bond_type
N2    H20   S    
Cr4   O13   S    
C24   O18   A    
C9    C26   S    
C2    C18   S    
Cr2   O2    S    
C34   H15   S    
Cr3   O22   S    
C7    C8    S    
N1    H13   S    
C10   C22   S    
Cr1   O24   S    
C20   O6    A    
C12   C28   S    
Cr5   O15   S    
C1    C5    S    
C23   O23   A    
C28   C29   T    
C22   O17   A    
C12   O21   A    
C13   C31   S    
Cr4   O19   S    
Cr5   O16   S    
C7    H6    S    
C9    C13   D    
C33   H19   S    
Cr6   O10   S    
C26   O2    A    
C19   O9    A    
C16   C17   T    
Cr3   O23   S    
Cr4   O14   S    
C30   H5    S    
C31   C32   S    
C14   C27   S    
C19   O10   A    
Cr3   O3    S    
Cr2   O5    S    
C25   O25   A    
Cr6   O19   S    
C1    O20   A    
C34   H16   S    
C18   O8    A    
N1    H14   S    
Cr1   O25   S    
Cr4   O7    S    
C17   C24   S    
Cr1   O1    S    
C23   C30   S    
C35   H25   S    
Cr6   O11   S    
Cr2   O21   S    
C20   O11   A    
C36   H22   S    
C32   H9    S    
C23   O1    A    
C21   O14   A    
C33   H18   S    
C36   H23   S    
C4    H3    S    
C9    N1    S    
Cr2   O26   S    
C6    H7    S    
Cr1   O5    S    
N2    H21   S    
Cr5   O8    S    
Cr3   O4    S    
C5    C8    D    
C25   O26   A    
C3    C4    S    
C19   C29   S    
C22   O16   A    
C34   H17   S    
C18   O7    A    
C27   O4    A    
C16   C25   S    
Cr4   O6    S    
Cr2   O20   S    
C33   C34   S    
Cr6   O17   S    
C32   H10   S    
C35   H26   S    
C6    C7    D    
C24   O13   A    
C6    C20   S    
C12   O22   A    
C10   H2    S    
C2    C3    D    
C1    O12   A    
C21   O15   A    
C36   H24   S    
C31   H12   S    
C11   C13   S    
C11   C35   S    
C35   C36   S    
Cr5   O19   S    
C27   O24   A    
C10   C11   D    
C26   O3    A    
C5    N2    S    
C2    H4    S    
C15   C21   S    
C32   H8    S    
C3    H1    S    
Cr5   O9    S    
C8    C33   S    
Cr3   O5    S    
C14   C15   T    
C31   H11   S    
Cr1   O12   S    
C4    C30   D    
Cr6   O18   S    
