data_mof_unit_51234.cif
_audit_creation_date              2013-03-05T15:55:07-0500
_audit_creation_method            fapswitch 2.2
_symmetry_space_group_name_H-M    P1
_symmetry_Int_Tables_number       1
_space_group_crystal_system       triclinic
_cell_length_a                    13.463583
_cell_length_b                    14.003314
_cell_length_c                    30.057128
_cell_angle_alpha                 97.878568
_cell_angle_beta                  90.017945
_cell_angle_gamma                 118.781679
_cell_volume                      4905.48631955

loop_
_atom_site_label
_atom_site_type_symbol
_atom_site_description
_atom_site_fract_x
_atom_site_fract_y
_atom_site_fract_z
_atom_type_partial_charge
O1    O     O_R   0.493980 0.188910 0.559650 -0.511191
O2    O     O_R   0.678640 0.153520 0.554450 -0.514220
C1    C     C_R   0.721869 0.099371 0.568865 0.786879
O3    O     O_R   0.698130 0.004030 0.549500 -0.550659
O4    O     O_R   0.481060 0.827210 0.535360 -0.530572
C2    C     C_R   0.405179 0.838962 0.559092 0.832597
O5    O     O_R   0.309260 0.811560 0.537660 -0.484937
O6    O     O_R   0.341620 0.023400 0.546290 -0.529360
C3    C     C_R   0.396736 0.118979 0.569382 0.807769
O7    O     O_R   0.493030 0.185890 0.461780 -0.483397
O8    O     O_R   0.677760 0.150720 0.463730 -0.505611
C4    C     C_R   0.723386 0.096997 0.443435 0.875520
O9    O     O_R   0.697180 0.001010 0.451640 -0.501494
O10   O     O_R   0.480180 0.824400 0.444640 -0.516125
C5    C     C_R   0.382003 0.783665 0.424619 0.830369
O11   O     O_R   0.308310 0.808540 0.439800 -0.530050
O12   O     O_R   0.340740 0.020600 0.455570 -0.548922
C6    C     C_R   0.394970 0.115182 0.443468 0.842458
Cr1   Cr    Cr6+3 0.583430 0.162610 0.509470 1.123511
Cr2   Cr    Cr6+3 0.584210 0.916680 0.495400 1.059235
Cr3   Cr    Cr6+3 0.332380 0.920740 0.495100 1.058566
O13   O     O_3   0.500010 0.000010 0.499990 -0.402398
C7    C     C_R   0.402201 0.817311 0.606186 -0.182518
C8    C     C_R   0.501478 0.828067 0.627360 -0.157967
C9    C     C_R   0.504127 0.809902 0.671690 -0.039676
C10   C     C_R   0.407741 0.781060 0.695613 0.079311
C11   C     C_R   0.309123 0.771139 0.675584 -0.170523
C12   C     C_R   0.305326 0.790366 0.631371 0.386384
C13   C     C_R   0.258790 0.659953 0.832950 -0.085361
C14   C     C_R   0.228361 0.616386 0.872672 -0.176378
C15   C     C_R   0.424898 0.663775 0.890917 0.374221
C16   C     C_R   0.453744 0.705466 0.850090 -0.152035
C17   C     C_R   0.370517 0.702015 0.821146 0.025406
C18   C     C_1   0.395943 0.735993 0.777978 0.035338
C19   C     C_1   0.406777 0.759036 0.740665 0.055131
C20   C     C_R   0.309462 0.614399 0.901479 -0.182081
C21   C     C_3   0.215425 0.145162 0.722641 -0.178119
C22   C     C_3   0.226859 0.067965 0.752420 -0.123256
C23   C     C_1   0.294208 0.199771 0.875849 -0.109176
C24   C     C_1   0.361368 0.137562 0.612958 -0.022336
C25   C     C_3   0.292723 0.246894 0.758470 -0.214346
C26   C     C_3   0.304933 0.169361 0.787183 0.045758
C27   C     C_3   0.397310 0.256223 0.734820 0.411918
C28   C     C_3   0.321911 0.157253 0.699378 0.013574
C29   C     C_3   0.411356 0.181510 0.764121 -0.077889
C30   C     C_3   0.333477 0.080002 0.728488 -0.109798
C31   C     C_1   0.299142 0.181445 0.835927 0.027879
C32   C     C_1   0.339013 0.148188 0.651376 0.110321
C33   C     C_3   0.892526 0.275811 0.734447 0.324654
C34   C     C_3   0.797345 0.238031 0.766516 0.275213
C35   C     C_1   0.898394 0.204910 0.878320 -0.112092
C36   C     C_1   0.772760 0.132942 0.613743 -0.065081
C37   C     C_3   0.951661 0.224237 0.758760 -0.238384
C38   C     C_3   0.853536 0.184978 0.790638 -0.036008
C39   C     C_3   0.882236 0.113844 0.725684 -0.228290
C40   C     C_3   0.824981 0.167916 0.701634 -0.090625
C41   C     C_3   0.785109 0.074678 0.758373 -0.204311
C42   C     C_3   0.730108 0.129925 0.734210 0.318113
C43   C     C_1   0.872840 0.194432 0.839052 0.103417
C44   C     C_1   0.802513 0.152737 0.653067 0.145406
C45   C     C_3   0.240858 0.611565 0.259206 -0.146075
C46   C     C_3   0.279814 0.704828 0.230483 0.405663
C47   C     C_1   0.309179 0.606860 0.111135 -0.061725
C48   C     C_1   0.366013 0.734066 0.378703 -0.080006
C49   C     C_3   0.303495 0.561025 0.228832 -0.357764
C50   C     C_3   0.340805 0.655559 0.200202 -0.102743
C51   C     C_3   0.413205 0.634121 0.260011 0.380381
C52   C     C_3   0.351853 0.683496 0.289847 -0.063310
C53   C     C_3   0.449349 0.726212 0.231465 0.316129
C54   C     C_3   0.389369 0.778453 0.261540 -0.346257
C55   C     C_1   0.328137 0.634303 0.151148 0.157944
C56   C     C_1   0.357800 0.705245 0.338805 0.143079
C57   C     C_R   0.353174 0.132850 0.401666 -0.175066
C58   C     C_R   0.398697 0.238608 0.388504 0.394305
C59   C     C_R   0.382519 0.245663 0.343185 -0.151266
C60   C     C_R   0.318773 0.150062 0.312076 0.009356
C61   C     C_R   0.264022 0.047391 0.326098 -0.070016
C62   C     C_R   0.280747 0.038688 0.370598 -0.190489
C63   C     C_R   0.254154 0.086704 0.146268 -0.086364
C64   C     C_R   0.250415 0.102988 0.101345 0.335480
C65   C     C_R   0.393638 0.295813 0.123991 -0.127731
C66   C     C_R   0.397022 0.277975 0.168063 -0.074165
C67   C     C_R   0.324485 0.174878 0.179459 -0.007105
C68   C     C_1   0.319400 0.162460 0.225811 0.108917
C69   C     C_1   0.317193 0.156201 0.265160 0.091616
C70   C     C_R   0.316672 0.210710 0.090617 -0.183086
C71   C     C_R   0.799479 0.143059 0.406875 -0.344034
C72   C     C_R   0.840450 0.079578 0.380010 0.346628
C73   C     C_R   0.888760 0.112388 0.339992 -0.180443
C74   C     C_R   0.902828 0.209585 0.327135 -0.158400
C75   C     C_R   0.874741 0.280000 0.355373 0.310597
C76   C     C_R   0.823158 0.247081 0.395381 0.235890
C77   C     C_R   0.953749 0.325971 0.177872 0.295169
C78   C     C_R   0.961231 0.327654 0.130968 0.370884
C79   C     C_R   0.008014 0.178776 0.124906 -0.233304
C80   C     C_R   0.997970 0.174292 0.170833 0.388150
C81   C     C_R   0.971202 0.248631 0.197386 -0.272898
C82   C     C_1   0.953956 0.240717 0.244106 0.196274
C83   C     C_1   0.934243 0.229328 0.282488 0.198374
C84   C     C_R   0.990002 0.253960 0.104493 -0.400977
H1    H     H_    0.031614 0.123374 0.104886 0.211078
O14   O     O_R   0.969650 0.150960 0.933380 -0.530753
O15   O     O_R   0.187740 0.180870 0.937580 -0.531317
C85   C     C_R   0.283771 0.232800 0.921873 0.827473
O16   O     O_R   0.358510 0.327410 0.940870 -0.515641
O17   O     O_R   0.324180 0.507870 0.953930 -0.505928
C86   C     C_R   0.268008 0.550071 0.938892 0.840300
O18   O     O_R   0.170560 0.527890 0.952050 -0.537313
O19   O     O_R   0.987620 0.318470 0.945550 -0.522326
C87   C     C_R   0.945200 0.222064 0.922999 0.833838
O20   O     O_R   0.976400 0.159270 0.031530 -0.497277
O21   O     O_R   0.194000 0.188570 0.028560 -0.532130
C88   C     C_R   0.293264 0.242871 0.048812 0.820794
O22   O     O_R   0.365260 0.335720 0.039020 -0.529418
O23   O     O_R   0.330440 0.515580 0.044910 -0.526311
C89   C     C_R   0.275361 0.558756 0.065077 0.793664
O24   O     O_R   0.177310 0.536200 0.050190 -0.522528
O25   O     O_R   0.993870 0.326170 0.036530 -0.509527
C90   C     C_R   0.006920 0.254638 0.055803 0.845331
Cr4   Cr    Cr6+3 0.086810 0.177030 0.983130 1.052511
Cr5   Cr    Cr6+3 0.337180 0.419300 0.994610 1.078032
Cr6   Cr    Cr6+3 0.084840 0.422330 0.995830 1.080991
O26   O     O_3   0.169610 0.339550 0.991190 -0.405589
H2    H     H_    0.139699 0.579581 0.879744 0.192041
H3    H     H_    0.135441 0.130454 0.705260 0.153348
H4    H     H_    0.347839 0.009991 0.715325 0.201986
H5    H     H_    0.491804 0.197989 0.781669 0.221977
N1    N     N_R   0.490498 0.361104 0.726365 0.148140
O27   O     O_R   0.544040 0.440678 0.759810 -0.306278
O28   O     O_R   0.519595 0.376642 0.685639 -0.326909
H6    H     H_    0.277413 0.316575 0.771249 0.152133
N2    N     N_R   0.749845 0.305862 0.787184 0.143651
O29   O     O_R   0.709440 0.349388 0.761928 -0.287159
O30   O     O_R   0.749039 0.324659 0.830723 -0.335562
N3    N     N_R   0.951723 0.386441 0.722683 0.149582
O31   O     O_R   0.007098 0.471004 0.754053 -0.353333
O32   O     O_R   0.950145 0.401361 0.680990 -0.318872
N4    N     N_R   0.608296 0.078449 0.722929 0.079201
O33   O     O_R   0.538269 0.033612 0.753057 -0.407977
O34   O     O_R   0.568946 0.077976 0.683341 -0.404583
H7    H     H_    0.739133 0.991332 0.768243 0.168442
H8    H     H_    0.917582 0.062638 0.708611 0.169314
H9    H     H_    0.194053 0.657451 0.810623 0.183743
H10   H     H_    0.043820 0.264133 0.769110 0.156659
N5    N     N_R   0.205865 0.744945 0.215300 0.172543
O35   O     O_R   0.156803 0.782041 0.244656 -0.317755
O36   O     O_R   0.188166 0.743850 0.172658 -0.295956
H11   H     H_    0.154761 0.565258 0.271021 0.232540
H12   H     H_    0.423879 0.867485 0.274663 0.180687
N6    N     N_R   0.564034 0.788557 0.217607 0.174264
O37   O     O_R   0.648675 0.846073 0.247903 -0.294527
O38   O     O_R   0.582424 0.787825 0.175130 -0.303373
N7    N     N_R   0.487811 0.595090 0.275481 0.155735
O39   O     O_R   0.535301 0.555643 0.246314 -0.308349
O40   O     O_R   0.506989 0.598902 0.318262 -0.305606
H13   H     H_    0.269582 0.472153 0.215511 0.167174
N8    N     N_R   0.179722 0.010579 0.067478 0.130320
O41   O     O_R   0.213851 0.002580 0.027316 -0.337926
O42   O     O_R   0.089007 0.927026 0.078255 -0.280139
H14   H     H_    0.201289 0.005922 0.155510 0.226957
H15   H     H_    0.213508 0.973341 0.302119 0.205296
H16   H     H_    0.234918 0.749817 0.694673 0.171436
H17   H     H_    0.243639 0.956789 0.379675 0.187835
N9    N     N_R   0.461005 0.338246 0.420278 0.154121
O43   O     O_R   0.537576 0.427869 0.406850 -0.270083
O44   O     O_R   0.430067 0.344243 0.461128 -0.339143
H18   H     H_    0.452631 0.346116 0.193680 0.206445
H19   H     H_    0.445809 0.378904 0.116914 0.205326
H20   H     H_    0.421297 0.325361 0.331930 0.202319
N10   N     N_R   0.937298 0.400951 0.109604 0.590783
O45   O     O_R   0.854052 0.419464 0.120812 -0.669773
O46   O     O_R   0.854052 0.419464 0.120812 -0.669773
N11   N     N_R   0.931014 0.404147 0.205795 0.261190
O47   O     O_R   0.992453 0.509139 0.204503 -0.239072
O48   O     O_R   0.846457 0.370509 0.231382 -0.261800
N12   N     N_R   0.898641 0.384655 0.343455 0.168709
O49   O     O_R   0.819842 0.413082 0.343215 -0.245063
O50   O     O_R   0.997774 0.449301 0.330273 -0.355062
N13   N     N_R   0.799385 0.321742 0.424923 0.173511
O51   O     O_R   0.862380 0.374090 0.462269 -0.314841
O52   O     O_R   0.708852 0.329454 0.416709 -0.284368
N14   N     N_R   0.834359 0.981845 0.392639 0.153315
O53   O     O_R   0.799927 0.893538 0.362768 -0.281303
O54   O     O_R   0.884330 0.987911 0.430806 -0.326778
N15   N     N_R   0.203036 0.783172 0.613335 0.121724
O55   O     O_R   0.106072 0.695684 0.615599 -0.300769
O56   O     O_R   0.203534 0.871934 0.604802 -0.368115
N16   N     N_R   0.013498 0.092608 0.189612 0.119149
O57   O     O_R   0.061393 0.114230 0.230013 -0.390589
O58   O     O_R   0.986524 0.998190 0.165091 -0.285355
H21   H     H_    0.914299 0.060644 0.318360 0.227275
H22   H     H_    0.577928 0.851197 0.609708 0.165126
H23   H     H_    0.540866 0.740810 0.840959 0.175343
N17   N     N_R   0.513328 0.674242 0.921258 0.122169
O59   O     O_R   0.515834 0.706637 0.964149 -0.331367
O60   O     O_R   0.600909 0.669055 0.905494 -0.319186
H24   H     H_    0.581177 0.818423 0.687246 0.131304
H25   H     H_    0.156378 0.989625 0.760429 0.160609

loop_
_geom_bond_atom_site_label_1
_geom_bond_atom_site_label_2
_geom_bond_distance
_ccdc_geom_bond_type
N17   O60   1.301380 A    
C71   C72   1.422039 A    
C77   C78   1.416041 A    
O23   Cr5   1.915941 S    
C25   C26   1.542489 S    
C80   N16   1.441484 S    
C79   C80   1.394126 A    
O24   Cr6   2.033487 S    
C39   C40   1.549787 S    
N1    O27   1.300299 A    
C81   C82   1.433966 S    
C74   C75   1.401960 A    
N3    O31   1.300184 A    
O4    Cr2   1.918092 S    
N11   O47   1.300728 A    
C4    O9    1.275250 A    
O8    Cr1   1.916443 S    
C10   C11   1.394138 A    
N8    O41   1.301451 A    
C70   C88   1.473965 S    
C53   N6    1.456658 S    
O20   C90   1.299564 A    
N9    O43   1.301540 A    
C45   H11   1.108980 S    
O7    C6    1.271900 A    
C22   C26   1.538871 S    
C49   H13   1.110705 S    
C15   C20   1.421287 A    
C11   H16   1.084699 S    
O25   Cr6   1.916831 S    
O4    C2    1.307594 A    
C1    C36   1.423177 S    
O19   Cr6   1.917164 S    
N15   O56   1.300078 A    
C50   C53   1.532809 S    
N10   O45   1.301129 A    
C5    O11   1.266272 A    
C13   H9    1.083985 S    
C13   C17   1.392843 A    
C89   O24   1.265731 A    
C46   C54   1.543011 S    
N16   O58   1.301367 A    
C18   C19   1.198826 T    
C57   C58   1.418490 A    
C24   C32   1.200982 T    
N14   O53   1.301367 A    
O21   C88   1.276272 A    
C64   C70   1.418798 A    
C36   C44   1.198866 T    
O25   C90   1.303194 A    
O22   Cr5   2.036816 S    
O15   Cr4   1.916993 S    
N2    O29   1.299832 A    
C49   C51   1.545327 S    
C46   N5    1.457286 S    
C59   H20   1.084007 S    
C79   H1    1.083723 S    
C5    C48   1.423552 S    
C22   H25   1.109957 S    
N7    O40   1.300259 A    
C65   C70   1.408093 A    
O9    Cr2   2.033574 S    
Cr4   O26   1.971400 S    
C61   C62   1.387614 A    
C38   C43   1.454820 S    
C42   N4    1.455512 S    
C37   C39   1.561549 S    
N17   O59   1.301459 A    
C33   N3    1.456588 S    
C62   H17   1.083263 S    
N8    O42   1.301402 A    
C39   H8    1.109878 S    
C34   N2    1.456217 S    
C71   C76   1.426066 A    
C20   C86   1.476984 S    
C25   C27   1.534306 S    
C45   C46   1.541381 S    
C54   H12   1.110453 S    
C85   O16   1.265836 A    
N5    O36   1.300262 A    
C28   C30   1.543265 S    
C65   C66   1.385952 A    
C21   H3    1.109769 S    
C66   H18   1.083591 S    
N11   O48   1.301103 A    
C61   H15   1.083039 S    
C17   C18   1.428199 S    
O1    Cr1   2.033921 S    
C74   C83   1.430251 S    
C58   C59   1.403624 A    
C46   C50   1.533801 S    
C51   C52   1.531335 S    
C34   C42   1.526734 S    
O10   Cr2   1.916938 S    
C23   C85   1.426395 S    
Cr1   O13   1.971409 S    
O1    C3    1.266035 A    
C68   C69   1.197215 T    
C63   H14   1.083683 S    
C25   H6    1.110445 S    
C79   C84   1.402345 A    
O6    C3    1.269802 A    
C9    C10   1.392727 A    
C37   C38   1.552897 S    
C57   C62   1.408992 A    
C66   C67   1.390495 A    
C3    C24   1.426968 S    
O12   Cr3   1.919331 S    
N13   O51   1.300729 A    
N1    O28   1.300193 A    
N16   O57   1.301077 A    
C51   C53   1.528160 S    
C26   C29   1.536444 S    
C21   C22   1.555255 S    
C59   C60   1.397502 A    
C9    H24   1.083611 S    
C50   C55   1.456801 S    
C13   C14   1.387381 A    
C76   N13   1.432434 S    
C72   N14   1.434639 S    
C67   C68   1.425124 S    
C78   C84   1.417110 A    
O7    Cr1   2.037502 S    
C52   C56   1.455395 S    
C80   C81   1.408612 A    
O12   C6    1.273050 A    
C73   H21   1.084859 S    
C41   C42   1.542615 S    
O16   Cr5   2.033137 S    
C8    H22   1.082730 S    
C84   C90   1.481789 S    
C34   C38   1.529198 S    
C7    C12   1.421824 A    
C8    C9    1.393891 A    
C27   C29   1.532653 S    
C47   C55   1.199116 T    
N4    O34   1.300235 A    
C47   C89   1.423441 S    
C23   C31   1.200908 T    
N2    O30   1.300111 A    
N12   O49   1.300583 A    
C14   H2    1.083289 S    
C82   C83   1.198620 T    
C35   C87   1.422519 S    
C39   C41   1.560159 S    
C27   C28   1.525096 S    
N6    O38   1.300204 A    
C29   C30   1.553613 S    
C35   C43   1.198585 T    
Cr2   O13   1.973724 S    
C86   O18   1.271149 A    
C1    O3    1.264653 A    
C77   C81   1.411127 A    
N5    O35   1.299941 A    
C11   C12   1.397278 A    
Cr5   O26   1.972284 S    
O14   Cr4   2.037607 S    
O21   Cr4   1.920186 S    
C88   O22   1.268153 A    
N3    O32   1.300211 A    
C4    C71   1.493938 S    
O2    Cr1   1.921046 S    
N6    O37   1.300380 A    
C30   H4    1.109662 S    
C15   C16   1.405661 A    
O18   Cr6   2.034706 S    
C16   H23   1.083766 S    
O6    Cr3   1.915923 S    
C27   N1    1.457342 S    
C15   N17   1.437104 S    
O8    C4    1.278620 A    
O11   Cr3   2.032188 S    
C2    O5    1.297883 A    
C41   H7    1.110269 S    
C6    C57   1.474911 S    
C33   C40   1.533077 S    
N15   O55   1.301013 A    
C14   C20   1.406432 A    
C51   N7    1.456689 S    
C37   H10   1.110432 S    
C16   C17   1.396620 A    
C58   N9    1.438637 S    
C21   C28   1.540260 S    
N9    O44   1.301468 A    
O2    C1    1.271348 A    
C73   C74   1.390590 A    
C49   C50   1.554825 S    
O5    Cr3   2.036901 S    
C12   N15   1.432348 S    
C78   N10   1.438307 S    
C63   C67   1.397238 A    
C60   C61   1.390629 A    
C45   C52   1.546391 S    
C64   N8    1.438358 S    
N10   O46   1.301129 A    
C29   H5    1.109150 S    
C33   C37   1.545151 S    
C2    C7    1.484317 S    
O17   Cr5   1.920577 S    
C77   N11   1.437861 S    
C65   H19   1.083243 S    
C40   C42   1.537059 S    
C75   N12   1.438559 S    
C26   C31   1.458117 S    
C48   C56   1.198953 T    
C21   C25   1.556703 S    
C53   C54   1.546759 S    
N14   O54   1.301403 A    
C22   C30   1.551525 S    
O14   C87   1.264061 A    
N4    O33   1.299829 A    
C7    C8    1.411956 A    
C63   C64   1.404691 A    
O3    Cr2   2.034549 S    
C45   C49   1.563225 S    
C10   C19   1.428149 S    
C40   C44   1.456169 S    
C72   C73   1.394707 A    
C52   C54   1.552681 S    
C33   C34   1.529355 S    
O17   C86   1.276258 A    
O19   C87   1.270653 A    
O15   C85   1.269830 A    
Cr6   O26   1.973709 S    
O10   C5    1.270458 A    
O20   Cr4   2.032846 S    
O23   C89   1.270605 A    
N7    O39   1.300076 A    
Cr3   O13   1.972318 S    
C60   C69   1.425259 S    
C75   C76   1.408954 A    
C28   C32   1.459086 S    
N12   O50   1.301176 A    
N13   O52   1.300845 A    
C38   C41   1.547088 S    
