data_mof_unit_20830.cif
_audit_creation_date              2012-12-11T17:06:33-0500
_audit_creation_method            fapswitch 2.2
_symmetry_space_group_name_H-M    P1
_symmetry_Int_Tables_number       1
_space_group_crystal_system       triclinic
_cell_length_a                    6.960483
_cell_length_b                    14.513364
_cell_length_c                    15.965588
_cell_angle_alpha                 90.497847
_cell_angle_beta                  89.916071
_cell_angle_gamma                 89.905649
_cell_volume                      1612.77923771

loop_
_atom_site_label
_atom_site_type_symbol
_atom_type_description
_atom_site_fract_x
_atom_site_fract_y
_atom_site_fract_z
_atom_type_partial_charge
O1    O     O_R   0.494400 0.415450 0.412630 -0.535410
O2    O     O_R   0.823940 0.405730 0.586760 -0.545567
O3    O     O_R   0.994240 0.584550 0.587370 -0.542381
C1    C     C_R   0.655111 0.383403 0.615150 0.715421
O4    O     O_R   0.824110 0.404430 0.413240 -0.547667
O5    O     O_R   0.994420 0.583240 0.412620 -0.524082
C2    C     C_R   0.655525 0.382162 0.384285 0.731322
O6    O     O_R   0.494230 0.416760 0.587380 -0.519736
O7    O     O_3   0.660800 0.558670 0.500000 -0.366887
V1    V     V_3+5 0.935650 0.489120 0.500000 1.488624
O8    O     O_R   0.324140 0.594270 0.413240 -0.533825
C3    C     C_R   0.155464 0.614112 0.382787 0.695329
O9    O     O_R   0.323960 0.595570 0.586760 -0.550320
C4    C     C_R   0.154772 0.617652 0.615522 0.695428
V2    V     V_3+5 0.435660 0.510880 0.500000 1.491010
O10   O     O_3   0.160640 0.441330 0.500000 -0.356815
C5    C     C_3   0.954369 0.721149 0.726753 -0.178073
C6    C     C_3   0.049151 0.710283 0.813248 0.667928
H1    H     H_    0.806927 0.698420 0.710101 0.128562
C7    C     C_3   0.123071 0.809398 0.809967 -0.104055
C8    C     C_3   0.030162 0.821573 0.723143 -0.215860
C9    C     C_3   0.218451 0.786741 0.681180 -0.104150
C10   C     C_3   0.311352 0.775180 0.768751 -0.182308
C11   C     C_3   0.236262 0.674642 0.772477 -0.204157
C12   C     C_3   0.143079 0.687152 0.685739 -0.089591
H2    H     H_    0.945543 0.882434 0.703183 0.137897
H3    H     H_    0.288986 0.817975 0.625881 0.133326
H4    H     H_    0.458604 0.797670 0.785984 0.146184
H5    H     H_    0.319912 0.613651 0.792869 0.127905
C13   C     C_R   0.242682 0.824859 0.249005 0.029725
C14   C     C_R   0.117313 0.813675 0.181369 -0.170324
C15   C     C_R   0.990551 0.738161 0.183806 -0.154573
H6    H     H_    0.887785 0.728285 0.133617 0.154734
C16   C     C_R   0.006482 0.669696 0.245978 0.418832
C17   C     C_R   0.142652 0.680136 0.312386 -0.225646
C18   C     C_R   0.252179 0.761140 0.313505 -0.039705
C19   C     C_3   0.464377 0.776858 0.322901 0.663098
C20   C     C_3   0.452003 0.846954 0.252227 -0.367470
H7    H     H_    0.529448 0.825952 0.194116 0.139638
H8    H     H_    0.477837 0.919236 0.272886 0.198988
C21   C     C_R   0.489130 0.313505 0.739086 -0.002495
C22   C     C_R   0.646941 0.316794 0.684759 -0.054474
C23   C     C_R   0.798760 0.254985 0.699244 -0.165659
H9    H     H_    0.920400 0.253586 0.657513 0.203399
C24   C     C_R   0.788146 0.189600 0.763589 -0.170114
H10   H     H_    0.903943 0.140484 0.770306 0.130532
C25   C     C_R   0.623940 0.183437 0.814837 -0.061869
C26   C     C_R   0.477757 0.248386 0.802773 0.009433
C27   C     C_3   0.269777 0.231612 0.786932 -0.445363
C28   C     C_3   0.282724 0.301763 0.717312 0.500713
H11   H     H_    0.178643 0.254963 0.840284 0.131383
H12   H     H_    0.241874 0.160208 0.764309 0.194267
H13   H     H_    0.195383 0.365009 0.727840 0.029150
C29   C     C_R   0.493197 0.249821 0.310039 0.041493
C30   C     C_R   0.647783 0.311089 0.317215 -0.105476
C31   C     C_R   0.798910 0.301168 0.259049 -0.144023
H14   H     H_    0.921240 0.346790 0.262106 0.110558
C32   C     C_R   0.786889 0.236929 0.192535 -0.082001
H15   H     H_    0.901153 0.234321 0.146628 0.127296
C33   C     C_R   0.623239 0.180941 0.182161 -0.179640
C34   C     C_R   0.481524 0.186152 0.244324 0.091356
C35   C     C_3   0.270648 0.200355 0.235723 0.492239
C36   C     C_3   0.283118 0.269369 0.307641 -0.434072
H16   H     H_    0.229542 0.230605 0.174638 0.020559
H17   H     H_    0.208589 0.246642 0.365508 0.224437
H18   H     H_    0.252464 0.341383 0.288577 0.110268
O11   O     O_R   0.771650 0.079500 0.908680 -0.550001
O12   O     O_R   0.441690 0.091800 0.082800 -0.537728
O13   O     O_R   0.271460 0.912980 0.083410 -0.536478
C37   C     C_R   0.610554 0.114220 0.111639 0.716084
O14   O     O_R   0.441930 0.090510 0.909280 -0.543648
O15   O     O_R   0.271690 0.911670 0.908660 -0.545062
C38   C     C_R   0.610906 0.112506 0.880623 0.678917
O16   O     O_R   0.771410 0.080810 0.083440 -0.527741
O17   O     O_3   0.605100 0.937580 0.996050 -0.370259
V3    V     V_3+5 0.330220 0.007110 0.996030 1.455382
O18   O     O_R   0.941980 0.900620 0.909250 -0.534913
C39   C     C_R   0.111190 0.878616 0.880436 0.720060
O19   O     O_R   0.941740 0.901920 0.082770 -0.539477
C40   C     C_R   0.110393 0.880343 0.111773 0.784204
V4    V     V_3+5 0.830220 0.985300 0.996000 1.472173
O20   O     O_3   0.105210 0.054870 0.996020 -0.375837
F1    F     F_    0.961330 0.671168 0.882010 -0.697432
O21   O     O_3   0.512389 0.817569 0.400003 -0.618903
H19   H     H_    0.495485 0.769093 0.442844 0.298451
F2    F     F_    0.261568 0.262017 0.638629 -0.673584
F3    F     F_    0.169258 0.121930 0.256875 -0.657800
O22   O     O_3   0.894869 0.591839 0.235872 -0.634936
H20   H     H_    0.954678 0.540010 0.266130 0.271923
O23   O     O_3   0.579252 0.699443 0.304172 -0.615880
H21   H     H_    0.533806 0.672222 0.250460 0.285237

loop_
_geom_bond_atom_site_label_1
_geom_bond_atom_site_label_2
_ccdc_geom_bond_type
C30   C31   A    
C36   H17   S    
O17   V3    S    
C21   C22   A    
C17   C18   A    
C2    C30   S    
C1    O6    A    
V4    O20   S    
C14   C40   S    
O18   C39   A    
C35   C36   S    
C19   O23   S    
C6    C11   S    
C18   C19   S    
O5    C3    A    
C13   C14   A    
C29   C36   S    
C32   C33   A    
V2    O10   S    
C31   H14   S    
C13   C20   S    
O13   V3    S    
C16   C17   A    
C11   H5    S    
C35   H16   S    
O8    V2    S    
C25   C26   A    
C27   H11   S    
C9    C12   S    
C37   O16   A    
O15   C39   A    
C10   C11   S    
C19   O21   S    
O11   C38   A    
C33   C37   S    
O7    V1    S    
O15   V3    S    
C36   H18   S    
C8    C9    S    
C8    H2    S    
C6    F1    S    
C24   C25   A    
C20   H7    S    
C28   H13   S    
C11   C12   S    
C25   C38   S    
V3    O20   S    
O4    C2    A    
O17   V4    S    
C32   H15   S    
C24   H10   S    
C5    C8    S    
C33   C34   A    
C15   C16   A    
O2    C1    A    
C23   H9    S    
C19   C20   S    
C14   C15   A    
C7    C10   S    
O18   V4    S    
C27   H12   S    
C7    C8    S    
C5    C6    S    
C16   O22   S    
C10   H4    S    
O21   H19   S    
C3    C17   S    
C23   C24   A    
O3    C4    A    
O1    V2    S    
C26   C27   S    
O11   V4    S    
O6    V2    S    
C9    H3    S    
O9    V2    S    
C22   C23   A    
O16   V4    S    
O2    V1    S    
C21   C28   S    
O19   V4    S    
C29   C30   A    
O1    C2    A    
O5    V1    S    
O8    C3    A    
C29   C34   A    
C13   C18   A    
O12   V3    S    
C35   F3    S    
C7    C39   S    
C5    C12   S    
C15   H6    S    
O7    V2    S    
O4    V1    S    
O3    V1    S    
V1    O10   S    
C20   H8    S    
O23   H21   S    
O14   V3    S    
C1    C22   S    
C5    H1    S    
C21   C26   A    
C31   C32   A    
C6    C7    S    
C4    C12   S    
C34   C35   S    
C28   F2    S    
O19   C40   A    
O22   H20   S    
O12   C37   A    
C27   C28   S    
O14   C38   A    
C9    C10   S    
O13   C40   A    
O9    C4    A    
