data_mof_unit_52870.cif
_audit_creation_date              2012-10-26T18:33:27-0400
_audit_creation_method            fapswitch 2.2
_symmetry_space_group_name_H-M    P1
_symmetry_Int_Tables_number       1
_space_group_crystal_system       triclinic
_cell_length_a                    15.083365
_cell_length_b                    13.684579
_cell_length_c                    10.755745
_cell_angle_alpha                 89.943148
_cell_angle_beta                  89.761943
_cell_angle_gamma                 90.01712
_cell_volume                      2220.06758936

loop_
_atom_site_label
_atom_site_type_symbol
_atom_type_description
_atom_site_fract_x
_atom_site_fract_y
_atom_site_fract_z
_atom_type_partial_charge
C1    C     C_R   0.328448 0.499992 0.500064 0.543006
C2    C     C_R   0.046158 0.321922 0.500181 -0.135155
C3    C     C_R   0.092867 0.410485 0.499907 0.010858
C4    C     C_R   0.497192 0.500119 0.259506 0.565975
C5    C     C_R   0.046474 0.500002 0.499273 0.061066
C6    C     C_R   0.092927 0.589512 0.498966 0.010789
C7    C     C_R   0.046279 0.678080 0.498322 -0.137011
C8    C     C_R   0.953844 0.678086 0.498071 -0.135567
C9    C     C_R   0.185233 0.411097 0.500258 -0.138132
C10   C     C_R   0.231618 0.499988 0.499922 -0.015463
C11   C     C_R   0.185291 0.588888 0.499309 -0.145309
C12   C     C_3   0.589436 0.484353 0.926409 -0.248215
C13   C     C_R   0.435110 0.793217 0.563128 0.022933
C14   C     C_R   0.435236 0.206636 0.563381 0.035302
C15   C     C_R   0.565659 0.793418 0.438880 0.019954
C16   C     C_R   0.565150 0.206682 0.437784 0.034365
C17   C     C_R   0.567141 0.896474 0.437302 -0.028931
C18   C     C_R   0.566871 0.103647 0.436736 -0.020229
C19   C     C_R   0.671537 0.500010 0.499671 0.547589
C20   C     C_R   0.500262 0.948172 0.500853 0.052836
C21   C     C_R   0.500171 0.051809 0.500663 0.051805
C22   C     C_R   0.433692 0.896289 0.565016 -0.018042
C23   C     C_R   0.814763 0.588910 0.498522 -0.139964
C24   C     C_R   0.433691 0.103549 0.565009 -0.017189
C25   C     C_R   0.633585 0.948790 0.373839 -0.152909
C26   C     C_R   0.633606 0.051459 0.373935 -0.151525
C27   C     C_R   0.367721 0.051202 0.629483 -0.149525
C28   C     C_R   0.367697 0.948483 0.629441 -0.150870
C29   C     C_R   0.496461 0.500012 0.739983 0.549815
C30   C     C_3   0.459084 0.601216 0.070568 0.138033
C31   C     C_3   0.431306 0.418666 0.069772 0.124531
C32   C     C_3   0.458264 0.598966 0.926924 -0.199881
C33   C     C_3   0.431797 0.417977 0.925741 -0.225409
C34   C     C_R   0.768375 0.500018 0.499168 -0.015835
C35   C     C_3   0.590811 0.487928 0.069587 -0.228081
C36   C     C_3   0.495299 0.500617 0.121219 0.058325
C37   C     C_3   0.494044 0.500023 0.877240 -0.018148
C38   C     C_3   0.463757 0.761509 0.151594 0.027207
C39   C     C_3   0.423561 0.820307 0.044170 -0.293105
C40   C     C_3   0.375914 0.911116 0.092520 -0.483849
C41   C     C_3   0.515760 0.270990 0.098377 0.035271
C42   C     C_3   0.492779 0.162667 0.086138 -0.262984
C43   C     C_3   0.573237 0.102868 0.045386 -0.489893
C44   C     C_R   0.814708 0.411121 0.499389 -0.143726
C45   C     C_R   0.907074 0.410497 0.499387 0.010920
C46   C     C_R   0.953527 0.500007 0.499021 0.061191
C47   C     C_R   0.907133 0.589523 0.498486 0.011203
C48   C     C_R   0.953724 0.321928 0.499896 -0.136446
Cu1   Cu    Cu3+1 0.499990 0.597420 0.500010 0.922762
Cu2   Cu    Cu3+1 0.499990 0.402580 0.500010 0.940600
H1    H     H_    0.081109 0.252744 0.500647 0.106250
H2    H     H_    0.685620 0.910330 0.324364 0.105441
H3    H     H_    0.685926 0.090040 0.325111 0.095328
H4    H     H_    0.316121 0.089670 0.679847 0.099896
H5    H     H_    0.316078 0.909897 0.679767 0.098635
H6    H     H_    0.389079 0.608875 0.103738 0.069597
H7    H     H_    0.363451 0.443269 0.096270 0.116139
H8    H     H_    0.389477 0.610972 0.892979 0.066826
H9    H     H_    0.363323 0.431254 0.891158 0.083856
H10   H     H_    0.499442 0.660065 0.889901 0.178200
H11   H     H_    0.450739 0.345738 0.887285 0.148975
H12   H     H_    0.220866 0.342283 0.500784 0.125616
H13   H     H_    0.632822 0.550346 0.099732 0.165015
H14   H     H_    0.623991 0.422350 0.107736 0.083917
H15   H     H_    0.634025 0.542289 0.888960 0.132887
H16   H     H_    0.616200 0.413276 0.893218 0.115615
H17   H     H_    0.779128 0.657723 0.498157 0.122855
H18   H     H_    0.779034 0.342307 0.499713 0.120481
H19   H     H_    0.918726 0.252755 0.500156 0.104744
H20   H     H_    0.510123 0.810528 0.201198 0.157393
H21   H     H_    0.412023 0.739688 0.220472 0.144429
H22   H     H_    0.477107 0.842893 0.978884 0.169456
H23   H     H_    0.220968 0.657702 0.499065 0.118775
H24   H     H_    0.374938 0.775031 0.992745 0.145134
H25   H     H_    0.318393 0.889623 0.151301 0.148807
H26   H     H_    0.351573 0.955201 0.012933 0.148277
H27   H     H_    0.421597 0.956711 0.148634 0.151098
H28   H     H_    0.562453 0.279258 0.177009 0.147406
H29   H     H_    0.550352 0.294175 0.012534 0.116479
H30   H     H_    0.468241 0.134859 0.177143 0.175774
H31   H     H_    0.439300 0.153461 0.016292 0.169194
H32   H     H_    0.594859 0.125352 0.950733 0.149871
H33   H     H_    0.555833 0.024086 0.043268 0.154586
H34   H     H_    0.081278 0.747254 0.498056 0.103791
H35   H     H_    0.628940 0.113534 0.111041 0.141749
H36   H     H_    0.918893 0.747264 0.497626 0.105736
H37   H     H_    0.384640 0.752303 0.612569 0.116864
H38   H     H_    0.384942 0.247446 0.613169 0.114906
H39   H     H_    0.616349 0.752685 0.389799 0.132498
H40   H     H_    0.616005 0.247481 0.389052 0.106408
N1    N     N_R   0.499930 0.743810 0.499950 -0.243788
N2    N     N_R   0.499930 0.256190 0.499950 -0.232357
O1    O     O_R   0.370250 0.582280 0.500040 -0.522960
O2    O     O_3   0.437220 0.323890 0.124960 -0.546769
O3    O     O_R   0.370250 0.417720 0.500040 -0.506661
O4    O     O_R   0.499970 0.582270 0.317700 -0.480042
O5    O     O_R   0.499970 0.417730 0.317700 -0.470047
O6    O     O_R   0.629730 0.582260 0.499980 -0.509186
O7    O     O_R   0.629730 0.417740 0.499980 -0.517353
O8    O     O_R   0.500000 0.582270 0.682320 -0.507885
O9    O     O_R   0.500000 0.417730 0.682320 -0.509179
O10   O     O_3   0.513881 0.680411 0.109038 -0.567624

loop_
_geom_bond_atom_site_label_1
_geom_bond_atom_site_label_2
_ccdc_geom_bond_type
C38   H20   S    
C42   H30   S    
C18   C21   A    
C43   H33   S    
C41   C42   S    
C35   C36   S    
C18   C26   A    
C24   C27   A    
C32   H8    S    
C48   H19   S    
C4    C36   S    
C27   H4    S    
C7    C8    A    
C45   C46   A    
C16   H40   S    
Cu2   O7    S    
C38   C39   S    
Cu2   O3    S    
C14   C24   A    
C17   C20   A    
C46   C47   A    
C39   H24   S    
C23   H17   S    
C12   C37   S    
Cu1   O6    S    
C4    O4    A    
C19   O6    A    
C39   H22   S    
C31   C33   S    
C35   H14   S    
C9    C10   A    
C7    H34   S    
C33   H9    S    
C22   C28   A    
C4    O5    A    
C13   N1    A    
C13   H37   S    
C42   H31   S    
Cu1   N1    S    
C28   H5    S    
C23   C47   A    
C9    H12   S    
C43   H35   S    
C34   C44   A    
C11   H23   S    
C6    C11   A    
C19   O7    A    
C2    C48   A    
C25   C26   A    
C30   H6    S    
C33   C37   S    
C40   H26   S    
C3    C9    A    
C15   H39   S    
C41   O2    S    
C1    O3    A    
C23   C34   A    
C30   O10   S    
C29   O9    A    
C32   C37   S    
C12   C35   S    
C14   N2    A    
C1    O1    A    
C20   C22   A    
C16   N2    A    
C44   H18   S    
C42   C43   S    
C32   H10   S    
C26   H3    S    
C41   H28   S    
C44   C45   A    
C5    C46   A    
C45   C48   A    
Cu2   N2    S    
C15   C17   A    
C38   H21   S    
Cu2   O5    S    
C29   O8    A    
C31   C36   S    
C1    C10   S    
C3    C5    A    
C19   C34   S    
C41   H29   S    
C6    C7    A    
C31   O2    S    
C12   H15   S    
C2    H1    S    
C40   H25   S    
C30   C36   S    
C17   C25   A    
C31   H7    S    
C2    C3    A    
C25   H2    S    
C14   H38   S    
C38   O10   S    
Cu1   O8    S    
C30   C32   S    
C5    C6    A    
C12   H16   S    
C33   H11   S    
C13   C22   A    
C8    H36   S    
Cu1   O4    S    
C8    C47   A    
C10   C11   A    
C15   N1    A    
C39   C40   S    
C20   C21   A    
Cu2   O9    S    
C16   C18   A    
Cu1   Cu2   S    
C21   C24   A    
C29   C37   S    
C27   C28   A    
C43   H32   S    
C40   H27   S    
C35   H13   S    
Cu1   O1    S    
