data_mof_unit_16471.cif
_audit_creation_date              2012-12-10T19:24:33-0500
_audit_creation_method            fapswitch 2.2
_symmetry_space_group_name_H-M    P1
_symmetry_Int_Tables_number       1
_space_group_crystal_system       triclinic
_cell_length_a                    17.852212
_cell_length_b                    16.412621
_cell_length_c                    10.984918
_cell_angle_alpha                 88.644042
_cell_angle_beta                  88.981168
_cell_angle_gamma                 89.020745
_cell_volume                      3216.74103131

loop_
_atom_site_label
_atom_site_type_symbol
_atom_type_description
_atom_site_fract_x
_atom_site_fract_y
_atom_site_fract_z
_atom_type_partial_charge
C1    C     C_R   0.355468 0.500784 0.499037 0.896518
C2    C     C_R   0.645333 0.499615 0.503503 0.971914
C3    C     C_R   0.887980 0.506517 0.505604 -0.042924
C4    C     C_R   0.115519 0.506833 0.502831 -0.003332
C5    C     C_1   0.968194 0.508686 0.505027 -0.036685
C6    C     C_1   0.035270 0.508484 0.504265 0.023203
C7    C     C_R   0.544193 0.826148 0.584701 0.031138
C8    C     C_R   0.441525 0.172721 0.566081 0.012877
C9    C     C_R   0.450786 0.831445 0.426901 0.038306
C10   C     C_R   0.555698 0.168721 0.444519 0.024741
C11   C     C_R   0.544259 0.740105 0.579368 0.106824
C12   C     C_R   0.444685 0.258712 0.563130 0.023607
C13   C     C_R   0.453697 0.745212 0.425009 0.108693
C14   C     C_R   0.553804 0.255172 0.438938 0.120472
C15   C     C_R   0.496934 0.872784 0.507367 0.112572
C16   C     C_R   0.497918 0.126672 0.506957 0.108910
C17   C     C_1   0.496427 0.962479 0.509468 0.045981
C18   C     C_1   0.496688 0.036966 0.509482 0.063166
C19   C     C_R   0.510124 0.500921 0.262337 0.856208
C20   C     C_R   0.497964 0.498780 0.739231 0.917300
C21   C     C_R   0.532465 0.654368 0.094866 0.331506
C22   C     C_R   0.538249 0.347870 0.886502 0.361114
C23   C     C_R   0.435827 0.633125 0.898545 0.425194
C24   C     C_R   0.566914 0.358265 0.125494 0.397998
C25   C     C_R   0.496614 0.722537 0.038582 -0.038530
C26   C     C_R   0.524472 0.278423 0.960199 0.020286
C27   C     C_R   0.444519 0.710894 0.946702 0.081546
C28   C     C_R   0.544740 0.282737 0.082607 0.101884
C29   C     C_R   0.481981 0.567508 0.941446 -0.164708
C30   C     C_R   0.536369 0.428488 0.066892 -0.109389
C31   C     C_R   0.513981 0.574985 0.057076 -0.112153
C32   C     C_R   0.524512 0.424695 0.940267 -0.069435
C33   C     C_R   0.498378 0.495666 0.875024 -0.074270
C34   C     C_R   0.525511 0.502685 0.127955 -0.015806
C35   C     C_R   0.845700 0.579184 0.505660 0.110535
C36   C     C_R   0.153690 0.446353 0.570645 0.110052
C37   C     C_R   0.154981 0.565121 0.432855 0.149961
C38   C     C_R   0.852536 0.431112 0.506047 0.187149
C39   C     C_R   0.767076 0.576710 0.506056 0.152994
C40   C     C_R   0.232677 0.444200 0.569277 0.110601
C41   C     C_R   0.233278 0.563510 0.431063 0.116168
C42   C     C_R   0.774381 0.427506 0.506349 0.130444
C43   C     C_R   0.729577 0.500588 0.506031 -0.170863
C44   C     C_R   0.272810 0.502889 0.499558 -0.131779
Cu1   Cu    Cu3+1 0.500000 0.580420 0.500000 1.057161
Cu2   Cu    Cu3+1 0.500000 0.419580 0.500000 1.029713
H1    H     H_    0.579923 0.704014 0.639094 0.120531
H2    H     H_    0.402593 0.293426 0.612274 0.151881
H3    H     H_    0.419287 0.713135 0.362584 0.100339
H4    H     H_    0.596769 0.287673 0.389310 0.170526
N1    N     N_R   0.500000 0.701220 0.500000 -0.169007
N2    N     N_R   0.500000 0.298780 0.500000 -0.172250
O1    O     O_R   0.391260 0.567930 0.500000 -0.568665
O2    O     O_R   0.608740 0.432070 0.500000 -0.551930
O3    O     O_R   0.608740 0.567930 0.500000 -0.540382
O4    O     O_R   0.391260 0.432070 0.500000 -0.584324
O5    O     O_R   0.500000 0.567910 0.319660 -0.574374
O6    O     O_R   0.500000 0.432090 0.680340 -0.550759
O7    O     O_R   0.500000 0.567910 0.680340 -0.585906
O8    O     O_R   0.500000 0.432090 0.319660 -0.608785
N3    N     N_3   0.553785 0.210502 0.156470 -0.578813
H5    H     H_    0.502271 0.181172 0.161873 0.227989
H6    H     H_    0.592465 0.171764 0.113350 0.265674
N4    N     N_3   0.401731 0.778758 0.898809 -0.471890
H7    H     H_    0.438912 0.821794 0.862295 0.245697
H8    H     H_    0.371734 0.805277 0.970711 0.251416
N5    N     N_3   0.513159 0.200569 0.907404 -0.580572
H9    H     H_    0.486488 0.209561 0.824157 0.229638
H10   H     H_    0.565649 0.173991 0.889125 0.256561
N6    N     N_3   0.510304 0.804097 0.075563 -0.580009
H11   H     H_    0.566185 0.818156 0.056785 0.290587
H12   H     H_    0.500091 0.807398 0.169130 0.249235
S1    S     S_3+6 0.615775 0.670884 0.177387 0.015482
O9    O     O_2   0.598990 0.722816 0.285388 -0.289837
O10   O     O_2   0.652303 0.592814 0.220110 -0.262151
O11   O     O_3   0.677048 0.720400 0.085551 -0.515399
H13   H     H_    0.682508 0.686183 0.012724 0.346370
S2    S     S_3+6 0.621055 0.336549 0.797933 0.012462
O12   O     O_2   0.650888 0.418105 0.757940 -0.310298
O13   O     O_2   0.680062 0.292075 0.870936 -0.240238
O14   O     O_3   0.602264 0.280065 0.677844 -0.574522
H14   H     H_    0.624803 0.225538 0.695036 0.351964
S3    S     S_3+6 0.354049 0.616956 0.812920 0.010503
O15   O     O_2   0.359572 0.664156 0.694370 -0.276176
O16   O     O_2   0.342630 0.528213 0.789863 -0.351117
O17   O     O_3   0.279589 0.652652 0.892353 -0.510044
H15   H     H_    0.236414 0.646246 0.838169 0.375023
S4    S     S_3+6 0.662286 0.365017 0.164895 0.026316
O18   O     O_2   0.693301 0.284562 0.210529 -0.313983
O19   O     O_2   0.706485 0.391561 0.053699 -0.193567
O20   O     O_3   0.672805 0.435596 0.269359 -0.573048
H16   H     H_    0.725764 0.452118 0.260136 0.380432
N7    N     N_3   0.881768 0.656743 0.505068 -0.587415
H17   H     H_    0.915220 0.659084 0.582038 0.234849
H18   H     H_    0.916464 0.661202 0.427577 0.234023
N8    N     N_3   0.111515 0.387516 0.640793 -0.582682
H19   H     H_    0.125923 0.329234 0.610957 0.220911
H20   H     H_    0.125590 0.391578 0.732357 0.232515
N9    N     N_3   0.116210 0.627003 0.362782 -0.524422
H21   H     H_    0.082022 0.598544 0.300835 0.225197
H22   H     H_    0.081967 0.660774 0.421864 0.219786
N10   N     N_3   0.895507 0.356277 0.506343 -0.512385
H23   H     H_    0.929042 0.354162 0.583479 0.243776
H24   H     H_    0.930441 0.356148 0.428923 0.230189
N11   N     N_3   0.725613 0.652446 0.506255 -0.514737
H25   H     H_    0.741105 0.686870 0.428818 0.289866
H26   H     H_    0.739750 0.684501 0.583484 0.221411
N12   N     N_3   0.272500 0.383905 0.640763 -0.567271
H27   H     H_    0.256813 0.389804 0.732264 0.246816
H28   H     H_    0.257780 0.326057 0.612519 0.198535
N13   N     N_3   0.271179 0.623466 0.356722 -0.527578
H29   H     H_    0.310630 0.594458 0.300320 0.205741
H30   H     H_    0.298014 0.663400 0.413570 0.249262
N14   N     N_3   0.743355 0.347739 0.507866 -0.504489
H31   H     H_    0.711740 0.339861 0.587007 0.314828
H32   H     H_    0.710799 0.340334 0.431677 0.278185
N15   N     N_3   0.591115 0.866085 0.669012 -0.579182
H33   H     H_    0.632447 0.896633 0.618125 0.240065
H34   H     H_    0.618935 0.823066 0.724387 0.215555
N16   N     N_3   0.381254 0.132601 0.629370 -0.572480
H35   H     H_    0.380916 0.150673 0.719968 0.222679
H36   H     H_    0.331050 0.153230 0.590861 0.222627
N17   N     N_3   0.400530 0.876875 0.349082 -0.572198
H37   H     H_    0.432969 0.911453 0.287596 0.221929
H38   H     H_    0.369524 0.837311 0.297214 0.221811
N18   N     N_3   0.617050 0.123622 0.390889 -0.567729
H39   H     H_    0.596247 0.090735 0.318891 0.230821
H40   H     H_    0.657135 0.163231 0.354206 0.273750

loop_
_geom_bond_atom_site_label_1
_geom_bond_atom_site_label_2
_ccdc_geom_bond_type
C4    C36   A    
N7    H17   S    
C21   S1    S    
S1    O9    D    
C7    N15   S    
C11   H1    S    
N13   H29   S    
C12   H2    S    
N14   H31   S    
N17   H37   S    
Cu1   Cu2   S    
C19   O5    A    
C7    C11   A    
N11   H26   S    
Cu1   O5    S    
N18   H39   S    
C22   C32   A    
C26   N5    S    
C23   C29   A    
C1    O4    A    
C38   C42   A    
C2    O3    A    
N15   H34   S    
C5    C6    T    
S2    O13   D    
N17   H38   S    
Cu1   N1    S    
Cu2   N2    S    
N12   H27   S    
C39   N11   S    
N3    H6    S    
C1    O1    A    
N7    H18   S    
C9    C13   A    
C29   C33   A    
C13   N1    A    
C42   N14   S    
C14   N2    A    
N9    H21   S    
C3    C38   A    
N8    H20   S    
N6    H11   S    
C23   C27   A    
C40   N12   S    
Cu2   O8    S    
C28   N3    S    
C7    C15   A    
Cu1   O1    S    
C8    C16   A    
Cu2   O6    S    
C29   C31   A    
S1    O10   D    
N3    H5    S    
C12   N2    A    
N16   H36   S    
O14   H14   S    
C35   N7    S    
C30   C34   A    
N5    H9    S    
C36   C40   A    
O11   H13   S    
C22   S2    S    
C4    C6    S    
C10   C14   A    
O20   H16   S    
S2    O12   D    
C39   C43   A    
N5    H10   S    
N4    H8    S    
C35   C39   A    
S1    O11   S    
C21   C31   A    
C36   N8    S    
C1    C44   S    
S3    O15   D    
S4    O20   S    
C3    C35   A    
C2    C43   S    
C8    C12   A    
N8    H19   S    
Cu2   O2    S    
C17   C18   T    
C31   C34   A    
N13   H30   S    
S4    O18   D    
C20   O7    A    
N10   H24   S    
C24   S4    S    
C23   S3    S    
C13   H3    S    
C20   C33   S    
S3    O16   D    
S4    O19   D    
C2    O2    A    
C41   C44   A    
C42   C43   A    
C20   O6    A    
C37   N9    S    
N16   H35   S    
C8    N16   S    
C15   C17   S    
C21   C25   A    
Cu1   O7    S    
N18   H40   S    
N9    H22   S    
O17   H15   S    
C24   C28   A    
C3    C5    S    
C19   C34   S    
N14   H32   S    
C19   O8    A    
C25   C27   A    
N11   H25   S    
C26   C28   A    
C32   C33   A    
C9    C15   A    
C38   N10   S    
C10   C16   A    
N15   H33   S    
N4    H7    S    
C30   C32   A    
S2    O14   S    
C14   H4    S    
C9    N17   S    
N12   H28   S    
C37   C41   A    
N10   H23   S    
C24   C30   A    
C11   N1    A    
C27   N4    S    
C22   C26   A    
C40   C44   A    
S3    O17   S    
C4    C37   A    
Cu1   O3    S    
C16   C18   S    
C41   N13   S    
Cu2   O4    S    
N6    H12   S    
C25   N6    S    
C10   N18   S    
