data_mof_unit_7426.cif
_audit_creation_date              2012-12-11T15:52:36-0500
_audit_creation_method            fapswitch 2.2
_symmetry_space_group_name_H-M    P1
_symmetry_Int_Tables_number       1
_space_group_crystal_system       triclinic
_cell_length_a                    6.985145
_cell_length_b                    14.673901
_cell_length_c                    15.980588
_cell_angle_alpha                 89.983927
_cell_angle_beta                  89.901971
_cell_angle_gamma                 90.557729
_cell_volume                      1637.91942909

loop_
_atom_site_label
_atom_site_type_symbol
_atom_type_description
_atom_site_fract_x
_atom_site_fract_y
_atom_site_fract_z
_atom_type_partial_charge
O1    O     O_R   0.494400 0.415640 0.412830 -0.554138
O2    O     O_R   0.823920 0.405510 0.586560 -0.536552
O3    O     O_R   0.994250 0.584360 0.587170 -0.549642
C1    C     C_R   0.651722 0.380037 0.612782 0.786246
O4    O     O_R   0.824110 0.404610 0.413450 -0.554017
O5    O     O_R   0.994440 0.583460 0.412820 -0.540589
C2    C     C_R   0.654741 0.382194 0.384521 0.648567
O6    O     O_R   0.494210 0.416540 0.587180 -0.478592
O7    O     O_3   0.660810 0.558680 0.500000 -0.369965
V1    V     V_3+5 0.935650 0.489110 0.500000 1.548885
O8    O     O_R   0.324150 0.594490 0.413440 -0.547277
C3    C     C_R   0.155734 0.615089 0.383419 0.748177
O9    O     O_R   0.323970 0.595390 0.586550 -0.523999
C4    C     C_R   0.156564 0.619850 0.613804 0.833409
V2    V     V_3+5 0.435660 0.510890 0.500000 1.589862
O10   O     O_3   0.160630 0.441320 0.500000 -0.347208
C5    C     C_3   0.999881 0.665747 0.750954 -0.247083
H1    H     H_    0.855371 0.675364 0.724855 0.143763
H2    H     H_    0.005286 0.593247 0.769245 0.222685
C6    C     C_3   0.018292 0.727877 0.828921 -0.364596
H3    H     H_    0.873531 0.743584 0.853077 0.227991
H4    H     H_    0.877180 0.843817 0.725759 0.206269
C7    C     C_3   0.100470 0.790101 0.648160 0.123939
C8    C     C_3   0.352432 0.708274 0.728593 0.183353
C9    C     C_3   0.151632 0.692276 0.683018 -0.215430
H5    H     H_    0.460077 0.722150 0.679658 0.030053
C10   C     C_3   0.123986 0.817432 0.805440 -0.135044
C11   C     C_3   0.032357 0.851569 0.721573 -0.285958
C12   C     C_3   0.338867 0.794552 0.787490 0.165580
H6    H     H_    0.404825 0.777200 0.848447 0.154441
C13   C     C_R   0.972855 0.808748 0.247171 0.402039
C14   C     C_R   0.984250 0.740473 0.308659 -0.137466
C15   C     C_R   0.143917 0.683317 0.314548 -0.081197
C16   C     C_R   0.289536 0.692153 0.254556 -0.181441
H7    H     H_    0.413509 0.648468 0.256912 0.124825
C17   C     C_R   0.273728 0.755476 0.189237 -0.137091
C18   C     C_R   0.116801 0.814954 0.184241 -0.158654
C19   C     C_R   0.770843 0.240086 0.686019 -0.074688
H8    H     H_    0.879889 0.234206 0.638733 0.207953
C20   C     C_R   0.768128 0.177130 0.752159 0.003822
H9    H     H_    0.878426 0.125860 0.755417 0.157508
C21   C     C_R   0.622930 0.179993 0.812715 -0.142038
C22   C     C_R   0.476509 0.242644 0.803193 -0.202800
H10   H     H_    0.359095 0.241207 0.847448 0.175056
C23   C     C_R   0.470168 0.301189 0.734132 0.536946
C24   C     C_R   0.630887 0.307700 0.678971 -0.201748
C25   C     C_R   0.810366 0.274984 0.281153 -0.130114
H11   H     H_    0.950118 0.294336 0.304798 0.119036
C26   C     C_R   0.799681 0.211251 0.215707 -0.073719
H12   H     H_    0.931622 0.183549 0.191347 0.127631
C27   C     C_R   0.621741 0.183647 0.182284 -0.033945
C28   C     C_R   0.454806 0.221779 0.216625 -0.125168
H13   H     H_    0.315056 0.202357 0.193021 0.119384
C29   C     C_R   0.465492 0.285575 0.282032 -0.123102
H14   H     H_    0.333554 0.313272 0.306401 0.117551
C30   C     C_R   0.643460 0.313288 0.315363 -0.039115
O11   O     O_R   0.771300 0.080930 0.910090 -0.548135
O12   O     O_R   0.441270 0.092800 0.083770 -0.557106
O13   O     O_R   0.271080 0.913920 0.084380 -0.532429
C31   C     C_R   0.610569 0.115066 0.112867 0.730133
O14   O     O_R   0.441580 0.091910 0.910670 -0.531645
O15   O     O_R   0.271390 0.913020 0.910040 -0.516660
C32   C     C_R   0.611512 0.113063 0.881708 0.803846
O16   O     O_R   0.770990 0.081830 0.084440 -0.534634
O17   O     O_3   0.604750 0.938760 0.997250 -0.343056
V3    V     V_3+5 0.329850 0.008280 0.997210 1.587820
O18   O     O_R   0.941680 0.901940 0.910610 -0.528914
C33   C     C_R   0.109848 0.884342 0.878471 0.758932
O19   O     O_R   0.941370 0.902830 0.083720 -0.510509
C34   C     C_R   0.109080 0.882316 0.114015 0.749742
V4    V     V_3+5 0.829860 0.986420 0.997150 1.633781
O20   O     O_3   0.104830 0.056030 0.997180 -0.399216
S1    S     S_3+6 0.470699 0.896390 0.750841 -0.036848
O21   O     O_2   0.354441 0.981443 0.759850 -0.326598
O22   O     O_2   0.642444 0.908767 0.805637 -0.365700
O23   O     O_3   0.537388 0.892569 0.650054 -0.451475
H15   H     H_    0.627092 0.841886 0.646700 0.348044
H16   H     H_    0.235510 0.821142 0.625726 0.201798
H17   H     H_    0.060969 0.924421 0.708085 0.228972
S2    S     S_3+6 0.789102 0.890574 0.257917 0.044565
O24   O     O_2   0.874773 0.984640 0.251356 -0.312352
O25   O     O_2   0.643540 0.878337 0.189683 -0.367034
O26   O     O_3   0.679100 0.880496 0.351346 -0.418726
H18   H     H_    0.579810 0.832606 0.343442 0.356909
H19   H     H_    0.871816 0.734557 0.355062 0.195785
H20   H     H_    0.385036 0.757700 0.142035 0.172489
S3    S     S_3+6 0.238628 0.337559 0.707080 0.024758
O27   O     O_2   0.191522 0.297268 0.623177 -0.351681
O28   O     O_2   0.096938 0.304537 0.771327 -0.376608
O29   O     O_3   0.221058 0.450429 0.701261 -0.442588
H21   H     H_    0.081475 0.461079 0.702017 0.345824
H22   H     H_    0.095101 0.692514 0.880136 0.198863
S4    S     S_3+6 0.962330 0.802192 0.553745 0.040828
O30   O     O_2   0.892090 0.898453 0.547767 -0.242379
O31   O     O_2   0.097013 0.786483 0.482147 -0.325337
O32   O     O_3   0.774999 0.730472 0.544025 -0.475403
H23   H     H_    0.743140 0.710280 0.601175 0.279774
S5    S     S_3+6 0.449563 0.611259 0.785999 -0.000030
O33   O     O_2   0.597998 0.643283 0.847247 -0.362034
O34   O     O_2   0.299590 0.560245 0.834906 -0.292031
O35   O     O_3   0.556876 0.538392 0.720556 -0.464608
H24   H     H_    0.628339 0.576644 0.680087 0.298272

loop_
_geom_bond_atom_site_label_1
_geom_bond_atom_site_label_2
_ccdc_geom_bond_type
S3    O27   D    
S4    O30   D    
C10   C12   S    
S1    O21   D    
C1    O6    A    
C26   H12   S    
C13   S2    S    
C25   C26   A    
C1    C24   S    
C23   C24   A    
C6    H22   S    
O35   H24   S    
C8    S5    S    
C17   C18   A    
C23   S3    S    
C8    H5    S    
O13   V3    S    
O5    C3    A    
C19   H8    S    
C12   S1    S    
O12   C31   A    
V2    O10   S    
C5    C6    S    
O14   C32   A    
C16   H7    S    
O16   V4    S    
O19   V4    S    
C11   H17   S    
C8    C12   S    
C10   C33   S    
O8    V2    S    
O14   V3    S    
O12   V3    S    
V3    O20   S    
C25   H11   S    
C26   C27   A    
O1    V2    S    
O7    V1    S    
C16   C17   A    
C20   C21   A    
S4    O31   D    
H4    C11   S    
C18   C34   S    
S1    O22   D    
C2    C30   S    
S2    O26   S    
C28   C29   A    
O11   C32   A    
C29   C30   A    
O15   V3    S    
O18   C33   A    
C8    C9    S    
S2    O25   D    
O4    C2    A    
C17   H20   S    
O17   V4    S    
O11   V4    S    
C13   C18   A    
O2    C1    A    
C22   H10   S    
C12   H6    S    
O26   H18   S    
O32   H23   S    
C5    H1    S    
C7    C11   S    
O23   H15   S    
C22   C23   A    
O3    C4    A    
C20   H9    S    
S5    O33   D    
S4    O32   S    
S5    O34   D    
S3    O28   D    
S1    O23   S    
C21   C22   A    
O2    V1    S    
C28   H13   S    
C29   H14   S    
O1    C2    A    
C13   C14   A    
S2    O24   D    
O5    V1    S    
O8    C3    A    
C6    C10   S    
O6    V2    S    
S5    O35   S    
O15   C33   A    
C31   O16   A    
C5    C9    S    
C14   C15   A    
O9    V2    S    
O7    V2    S    
C27   C28   A    
O3    V1    S    
V1    O10   S    
C4    C9    S    
C19   C20   A    
O29   H21   S    
C14   H19   S    
C5    H2    S    
C15   C16   A    
O18   V4    S    
C7    C9    S    
C7    H16   S    
O19   C34   A    
C19   C24   A    
O13   C34   A    
C7    S4    S    
O4    V1    S    
V4    O20   S    
C6    H3    S    
O17   V3    S    
S3    O29   S    
C10   C11   S    
C27   C31   S    
C3    C15   S    
O9    C4    A    
C21   C32   S    
C25   C30   A    
