data_mof_unit_60740.cif
_audit_creation_date              2012-12-10T17:19:37-0500
_audit_creation_method            fapswitch 2.2
_symmetry_space_group_name_H-M    P1
_symmetry_Int_Tables_number       1
_space_group_crystal_system       triclinic
_cell_length_a                    10.146527
_cell_length_b                    10.702965
_cell_length_c                    11.551014
_cell_angle_alpha                 89.992909
_cell_angle_beta                  81.819389
_cell_angle_gamma                 94.746954
_cell_volume                      1237.3027271

loop_
_atom_site_label
_atom_site_type_symbol
_atom_type_description
_atom_site_fract_x
_atom_site_fract_y
_atom_site_fract_z
_atom_type_partial_charge
C1    C     C_R   0.555043 0.733178 0.486577 0.950971
C2    C     C_2   0.415157 0.134096 0.484621 -0.474484
C3    C     C_2   0.488526 0.932776 0.430800 0.546108
C4    C     C_2   0.509639 0.067083 0.427933 0.544826
C5    C     C_2   0.927472 0.510881 0.509691 -0.119560
C6    C     C_2   0.072555 0.489184 0.490234 -0.098425
C7    C     C_R   0.444793 0.266821 0.501374 0.952624
C8    C     C_R   0.500625 0.499941 0.718005 0.887337
C9    C     C_R   0.499373 0.500055 0.281986 0.907218
C10   C     C_1   0.501585 0.499791 0.838340 -0.167849
C11   C     C_1   0.498413 0.500203 0.161662 -0.148073
C12   C     C_1   0.500820 0.499888 0.940583 0.014506
C13   C     C_1   0.499177 0.500105 0.059421 0.020704
C14   C     C_2   0.584114 0.865872 0.461966 -0.470272
F1    F     F_    0.631331 0.120223 0.378099 -0.657431
F2    F     F_    0.366048 0.879534 0.413745 -0.652851
H1    H     H_    0.317791 0.089995 0.521369 0.164882
H2    H     H_    0.682044 0.910039 0.472498 0.165953
H3    H     H_    0.108113 0.419788 0.427443 0.165982
H4    H     H_    0.891932 0.580318 0.572445 0.166335
H5    H     H_    0.120258 0.616358 0.605347 0.179233
H6    H     H_    0.879717 0.383599 0.394686 0.196077
N1    N     N_2   0.842700 0.448890 0.453570 -0.178796
N2    N     N_2   0.157300 0.551110 0.546430 -0.175751
O1    O     O_R   0.431060 0.692470 0.509350 -0.530962
O2    O     O_R   0.568940 0.307530 0.490650 -0.530072
O3    O     O_R   0.651120 0.659650 0.479540 -0.620076
O4    O     O_R   0.348880 0.340350 0.520460 -0.622987
O5    O     O_R   0.389960 0.516400 0.680450 -0.608424
O6    O     O_R   0.610040 0.483600 0.319550 -0.594256
O7    O     O_R   0.610030 0.483580 0.650650 -0.614047
O8    O     O_R   0.389970 0.516420 0.349350 -0.600461
Zn1   Zn    Zn3+2 0.353060 0.521910 0.519900 0.999925
Zn2   Zn    Zn3+2 0.646940 0.478090 0.480100 1.002095

loop_
_geom_bond_atom_site_label_1
_geom_bond_atom_site_label_2
_ccdc_geom_bond_type
C2    C4    D    
C3    F2    S    
C9    C11   S    
C14   H2    S    
C2    C7    S    
C5    N1    D    
N1    Zn2   S    
C6    N2    D    
O8    Zn1   S    
C4    F1    S    
O7    Zn2   S    
C5    H4    S    
C2    H1    S    
C1    O1    A    
C6    H3    S    
C11   C13   T    
C3    C14   D    
C7    O2    A    
C9    O6    A    
C8    O5    A    
C10   C12   T    
O4    Zn1   S    
O3    Zn2   S    
C5    C6    S    
O6    Zn2   S    
C3    C4    S    
O5    Zn1   S    
C12   C13   S    
C8    C10   S    
H5    N2    S    
C1    O3    A    
H6    N1    S    
C1    C14   S    
C9    O8    A    
C8    O7    A    
O2    Zn2   S    
C7    O4    A    
N2    Zn1   S    
O1    Zn1   S    
