data_mof_unit_30185.cif
_audit_creation_date              2013-03-05T15:47:33-0500
_audit_creation_method            fapswitch 2.2
_symmetry_space_group_name_H-M    P1
_symmetry_Int_Tables_number       1
_space_group_crystal_system       triclinic
_cell_length_a                    7.220717
_cell_length_b                    15.485967
_cell_length_c                    22.288792
_cell_angle_alpha                 90.009539
_cell_angle_beta                  88.945962
_cell_angle_gamma                 87.522712
_cell_volume                      2489.57620255

loop_
_atom_site_label
_atom_site_type_symbol
_atom_site_description
_atom_site_fract_x
_atom_site_fract_y
_atom_site_fract_z
_atom_type_partial_charge
O1    O     O_R   0.390810 0.844810 0.447340 -0.566086
O2    O     O_R   0.109190 0.155190 0.947340 -0.590358
O3    O     O_R   0.890810 0.655190 0.552660 -0.587672
O4    O     O_R   0.609190 0.344810 0.052660 -0.584870
O5    O     O_R   0.720550 0.655820 0.440420 -0.592956
O6    O     O_R   0.779450 0.344180 0.940420 -0.581515
O7    O     O_R   0.220550 0.844180 0.559580 -0.561745
O8    O     O_R   0.279450 0.155820 0.059580 -0.576692
C1    C     C_R   0.557597 0.623753 0.428660 1.056196
C2    C     C_R   0.944236 0.375553 0.928448 1.064625
C3    C     C_R   0.048529 0.874879 0.571866 1.050169
C4    C     C_R   0.449095 0.125516 0.072101 1.050549
O9    O     O_R   0.720530 0.844130 0.440420 -0.592330
O10   O     O_R   0.779470 0.155870 0.940420 -0.576754
O11   O     O_R   0.220530 0.655870 0.559580 -0.581019
O12   O     O_R   0.279470 0.344130 0.059580 -0.583700
O13   O     O_R   0.890830 0.844810 0.552660 -0.565564
O14   O     O_R   0.609170 0.155190 0.052660 -0.548792
O15   O     O_R   0.390830 0.655190 0.447340 -0.555431
O16   O     O_R   0.109170 0.344810 0.947340 -0.567974
C5    C     C_R   0.550482 0.871446 0.424835 1.076344
C6    C     C_R   0.951605 0.127780 0.925644 1.094353
C7    C     C_R   0.054547 0.627763 0.574526 1.087488
C8    C     C_R   0.443074 0.372100 0.074944 1.080072
O17   O     O_3   0.557310 0.749980 0.536820 -0.269207
O18   O     O_3   0.942690 0.250020 0.036820 -0.256049
O19   O     O_3   0.057310 0.750020 0.463180 -0.273871
O20   O     O_3   0.442690 0.249980 0.963180 -0.286430
V1    V     V_3+5 0.832160 0.749980 0.493170 1.320888
V2    V     V_3+5 0.667840 0.250020 0.993170 1.330616
V3    V     V_3+5 0.332160 0.750020 0.506830 1.342534
V4    V     V_3+5 0.167840 0.249980 0.006830 1.336291
C9    C     C_R   0.735737 0.572966 0.855062 0.417344
C10   C     C_R   0.787470 0.434594 0.348582 0.411510
C11   C     C_R   0.352466 0.906204 0.132429 0.429305
C12   C     C_R   0.861686 0.089671 0.628644 0.421285
H1    H     H_    0.710215 0.510201 0.940056 0.185465
H2    H     H_    0.810846 0.495871 0.433662 0.196067
H3    H     H_    0.319114 0.972408 0.048597 0.178974
H4    H     H_    0.885329 0.025173 0.543553 0.180129
C13   C     C_R   0.932488 0.450759 0.887275 -0.153469
C14   C     C_R   0.574360 0.548331 0.387079 -0.165743
C15   C     C_R   0.455558 0.049955 0.112159 -0.167344
C16   C     C_R   0.022694 0.950861 0.611681 -0.167444
C17   C     C_R   0.164053 0.479558 0.603030 0.305658
C18   C     C_R   0.292036 0.508439 0.112368 0.325252
C19   C     C_R   0.563273 0.028768 0.401439 0.285875
C20   C     C_R   0.019341 0.971544 0.903999 0.277239
C21   C     C_R   0.204982 0.416641 0.646096 -0.062906
C22   C     C_R   0.214940 0.554990 0.160825 -0.072091
C23   C     C_R   0.565428 0.097309 0.360769 -0.058574
C24   C     C_R   0.065705 0.904607 0.863711 -0.048995
C25   C     C_R   0.144175 0.426422 0.705153 -0.087283
C26   C     C_R   0.282693 0.543669 0.218236 -0.044701
C27   C     C_R   0.543175 0.084544 0.299950 -0.117175
C28   C     C_R   0.060834 0.917266 0.802252 -0.110405
C29   C     C_R   0.036864 0.499914 0.724181 0.098372
C30   C     C_R   0.438536 0.488599 0.229318 0.112309
C31   C     C_R   0.514290 0.002010 0.276450 0.081528
C32   C     C_R   0.006527 0.997958 0.777560 0.081768
C33   C     C_R   0.995459 0.566375 0.681197 -0.074658
C34   C     C_R   0.502170 0.431496 0.182143 -0.071214
C35   C     C_R   0.504213 0.930958 0.317171 -0.110417
C36   C     C_R   0.958976 0.067939 0.817496 -0.092002
C37   C     C_R   0.967661 0.508075 0.784729 0.055026
C38   C     C_R   0.527498 0.486656 0.286495 0.061336
C39   C     C_R   0.483713 0.990115 0.213674 0.029812
C40   C     C_R   0.992640 0.009437 0.714027 0.046706
C41   C     C_R   0.832218 0.574784 0.798870 -0.197769
C42   C     C_R   0.685165 0.429348 0.294745 -0.210843
C43   C     C_R   0.411040 0.912085 0.193053 -0.222289
C44   C     C_R   0.898000 0.084613 0.691190 -0.223402
C45   C     C_R   0.804208 0.643774 0.758052 0.247418
C46   C     C_R   0.730424 0.365966 0.250377 0.218897
C47   C     C_R   0.402514 0.842454 0.233254 0.288812
C48   C     C_R   0.849166 0.153152 0.731081 0.246547
C49   C     C_R   0.896649 0.642045 0.701857 0.210547
C50   C     C_R   0.628600 0.363433 0.197291 0.220791
C51   C     C_R   0.456494 0.850631 0.293014 0.237689
C52   C     C_R   0.896090 0.147410 0.791869 0.224132
C53   C     C_R   0.025091 0.450524 0.831391 -0.034540
C54   C     C_R   0.471409 0.543662 0.334535 0.004630
C55   C     C_R   0.520672 0.054691 0.170779 -0.063750
C56   C     C_R   0.067002 0.947010 0.672493 -0.065077
C57   C     C_R   0.789624 0.512572 0.898344 -0.185547
C58   C     C_R   0.727280 0.491361 0.393976 -0.195457
C59   C     C_R   0.371358 0.975878 0.093699 -0.197400
C60   C     C_R   0.921046 0.022366 0.590466 -0.185808
C61   C     C_R   0.061555 0.556295 0.619795 -0.313448
C62   C     C_R   0.426021 0.440650 0.122724 -0.311010
C63   C     C_R   0.538002 0.943789 0.380306 -0.317262
C64   C     C_R   0.973004 0.055338 0.881543 -0.316916
H5    H     H_    0.138723 0.404094 0.824999 0.162892
H6    H     H_    0.355710 0.588898 0.331029 0.168824
H7    H     H_    0.600342 0.108545 0.182585 0.193392
H8    H     H_    0.158951 0.894961 0.686689 0.177593
H9    H     H_    0.176865 0.372763 0.734435 0.179724
H10   H     H_    0.210457 0.580201 0.253048 0.173681
H11   H     H_    0.538261 0.141961 0.272548 0.186261
H12   H     H_    0.090249 0.860585 0.775031 0.185609
H13   H     H_    0.283005 0.357879 0.633532 0.211012
H14   H     H_    0.101871 0.601975 0.154001 0.214278
H15   H     H_    0.580331 0.162742 0.376533 0.211954
H16   H     H_    0.101647 0.840253 0.879954 0.211873
N1    N     N_R   0.707804 0.722437 0.777023 0.271667
O21   O     O_R   0.770628 0.767240 0.821013 -0.368254
O22   O     O_R   0.553913 0.747886 0.751712 -0.289819
N2    N     N_R   0.863663 0.296694 0.261651 0.274496
O23   O     O_R   0.831025 0.239712 0.302921 -0.374345
O24   O     O_R   0.015102 0.288820 0.229173 -0.284613
N3    N     N_R   0.346928 0.760059 0.213641 0.254719
O25   O     O_R   0.467311 0.706602 0.187807 -0.343223
O26   O     O_R   0.179321 0.736685 0.225407 -0.359343
N4    N     N_R   0.766884 0.232981 0.709827 0.275724
O27   O     O_R   0.591712 0.251532 0.720175 -0.317480
O28   O     O_R   0.870697 0.291039 0.686317 -0.356523
N5    N     N_R   0.568019 0.623941 0.866459 0.261403
O29   O     O_R   0.539669 0.660989 0.918426 -0.260211
O30   O     O_R   0.429276 0.617796 0.830478 -0.351666
N6    N     N_R   0.964569 0.390718 0.355892 0.264203
O31   O     O_R   0.998979 0.348351 0.405141 -0.259373
O32   O     O_R   0.102134 0.409529 0.320438 -0.380276
N7    N     N_R   0.261621 0.832966 0.109918 0.266019
O33   O     O_R   0.345405 0.783628 0.069720 -0.247716
O34   O     O_R   0.084108 0.827341 0.119092 -0.277566
N8    N     N_R   0.756502 0.160180 0.602929 0.271686
O35   O     O_R   0.576356 0.162088 0.606809 -0.281376
O36   O     O_R   0.838076 0.213939 0.567388 -0.256642
N9    N     N_R   0.230205 0.464814 0.542271 0.239567
O37   O     O_R   0.382383 0.418640 0.531941 -0.327035
O38   O     O_R   0.129837 0.489431 0.496974 -0.393374
N10   N     N_R   0.225669 0.527398 0.052940 0.246333
O39   O     O_R   0.059522 0.561268 0.045537 -0.346068
O40   O     O_R   0.337007 0.519172 0.006501 -0.370572
N11   N     N_R   0.582625 0.048059 0.464208 0.221404
O41   O     O_R   0.658868 0.119026 0.479748 -0.317421
O42   O     O_R   0.498717 0.003953 0.505432 -0.398598
N12   N     N_R   0.015522 0.951979 0.967400 0.224261
O43   O     O_R   0.097237 0.881072 0.986708 -0.311377
O44   O     O_R   0.907137 0.996083 0.004527 -0.396525
N13   N     N_R   0.924755 0.722496 0.672806 0.205444
O45   O     O_R   0.092596 0.749216 0.669103 -0.469217
O46   O     O_R   0.785501 0.774484 0.659347 -0.353511
N14   N     N_R   0.615050 0.282018 0.168525 0.203147
O47   O     O_R   0.454409 0.247110 0.168883 -0.467988
O48   O     O_R   0.762309 0.238187 0.149596 -0.359136
N15   N     N_R   0.462758 0.774404 0.328078 0.196256
O49   O     O_R   0.610044 0.723425 0.323307 -0.428690
O50   O     O_R   0.307116 0.744257 0.347170 -0.398472
N16   N     N_R   0.905748 0.226046 0.824404 0.202810
O51   O     O_R   0.761523 0.279084 0.828879 -0.368934
O52   O     O_R   0.069098 0.252849 0.836283 -0.467486

loop_
_geom_bond_atom_site_label_1
_geom_bond_atom_site_label_2
_geom_bond_distance
_ccdc_geom_bond_type
O17   V3    1.769110 S    
C43   C47   1.404806 A    
C30   C34   1.430208 A    
N8    O35   1.301126 A    
C54   H6    1.070793 S    
C27   C31   1.406519 A    
O19   V1    1.746414 S    
O13   V1    2.041578 S    
O3    C7    1.339257 A    
N3    O25   1.300640 A    
C14   C54   1.402179 A    
H3    C59   1.082328 S    
C44   C48   1.413228 A    
O15   V3    2.004781 S    
N4    O27   1.301332 A    
N7    O33   1.300913 A    
C35   C51   1.414110 A    
C12   C60   1.393492 A    
O1    C5    1.330763 A    
N1    O22   1.301405 A    
C30   C38   1.437400 A    
C1    C14   1.490314 S    
C22   C26   1.386796 A    
H2    C58   1.083812 S    
H1    C57   1.084771 S    
N15   O50   1.299960 A    
C4    C15   1.471646 S    
N5    O30   1.301393 A    
C21   H13   1.083370 S    
O4    C8    1.340984 A    
C37   C41   1.422755 A    
N7    O34   1.300904 A    
C23   H15   1.082817 S    
O1    V3    2.031262 S    
C15   C55   1.399671 A    
N2    O23   1.300229 A    
O2    V4    2.041090 S    
C10   C58   1.391365 A    
O3    V1    2.014911 S    
C9    C57   1.392622 A    
C42   C46   1.417116 A    
C31   C39   1.433600 A    
C11   C59   1.391648 A    
C1    O15   1.338362 A    
C24   H16   1.082965 S    
N15   O49   1.299547 A    
C33   C49   1.417638 A    
N10   O39   1.301737 A    
O2    C6    1.330682 A    
C48   N4    1.432739 S    
C7    C61   1.497639 S    
C41   C45   1.413674 A    
C14   C58   1.394021 A    
O8    C4    1.327236 A    
C17   C61   1.418883 A    
C10   C42   1.424778 A    
C23   C27   1.383184 A    
C9    C41   1.422802 A    
C4    O14   1.327585 A    
O11   C7    1.329407 A    
C55   H7    1.068959 S    
O12   C8    1.326466 A    
C2    C13   1.483379 S    
C36   C52   1.417233 A    
O10   V2    2.005195 S    
O16   V4    2.015385 S    
C33   C61   1.447273 A    
O7    C3    1.334255 A    
O5    V1    2.072180 S    
C10   N6    1.433897 S    
C9    N5    1.435366 S    
O7    V3    2.005252 S    
O8    V4    2.022844 S    
N11   O41   1.300016 A    
N14   O48   1.300143 A    
C2    O16   1.338585 A    
C25   C29   1.409631 A    
O18   V4    1.746364 S    
C19   C23   1.396368 A    
C25   H9    1.077536 S    
C28   C32   1.408537 A    
N4    O28   1.299544 A    
C40   C56   1.420011 A    
C52   N16   1.422172 S    
O5    C1    1.327251 A    
C50   N14   1.422291 S    
C38   C54   1.429215 A    
C53   H5    1.074786 S    
C37   C53   1.425542 A    
C17   C21   1.394236 A    
C40   C44   1.423237 A    
C13   C53   1.402765 A    
C26   C30   1.407804 A    
O9    C5    1.333455 A    
C3    C16   1.476978 S    
N3    O26   1.300271 A    
C39   C55   1.413996 A    
O11   V3    2.055514 S    
N12   O44   1.301355 A    
O14   V2    2.031750 S    
O6    V2    2.055566 S    
C22   H14   1.082759 S    
C46   C50   1.405927 A    
N16   O52   1.298993 A    
C31   C35   1.429879 A    
C28   H12   1.078265 S    
C27   H11   1.078483 S    
C56   H8    1.073402 S    
N6    O31   1.301298 A    
N6    O32   1.300842 A    
N9    O37   1.301710 A    
C5    C63   1.497733 S    
O9    V1    2.022791 S    
N11   O42   1.301290 A    
C3    O13   1.326803 A    
N8    O36   1.301149 A    
C19   N11   1.441092 S    
C19   C63   1.417986 A    
C34   C50   1.409483 A    
C12   N8    1.429036 S    
C48   C52   1.404554 A    
C29   C37   1.434096 A    
N14   O47   1.300631 A    
C16   C56   1.399078 A    
C8    C62   1.503237 S    
O6    C2    1.327164 A    
C51   N15   1.415376 S    
C29   C33   1.432062 A    
C18   C62   1.418376 A    
O12   V4    2.072132 S    
C13   C57   1.395176 A    
N1    O21   1.300712 A    
C18   C22   1.392484 A    
C47   N3    1.425081 S    
C20   N12   1.445297 S    
C45   N1    1.436319 S    
C32   C36   1.428616 A    
C15   C59   1.387177 A    
O10   C6    1.334446 A    
N13   O46   1.300167 A    
O20   V2    1.769159 S    
C11   C43   1.427349 A    
C16   C60   1.389659 A    
N13   O45   1.298658 A    
C18   N10   1.442816 S    
H4    C60   1.082009 S    
C38   C42   1.427561 A    
C21   C25   1.386106 A    
C17   N9    1.442547 S    
C34   C62   1.447938 A    
C11   N7    1.429890 S    
N2    O24   1.301521 A    
C39   C43   1.417833 A    
C49   N13   1.424746 S    
N12   O43   1.301005 A    
C46   N2    1.435018 S    
C12   C44   1.424795 A    
C20   C24   1.396980 A    
C32   C40   1.432019 A    
C45   C49   1.408106 A    
N10   O40   1.301690 A    
C20   C64   1.419566 A    
C35   C63   1.447746 A    
C6    C64   1.492524 S    
N16   O51   1.300496 A    
C26   H10   1.074075 S    
C36   C64   1.445639 A    
N5    O29   1.301394 A    
C47   C51   1.401922 A    
O4    V2    2.004308 S    
C24   C28   1.384711 A    
N9    O38   1.301164 A    
