data_mof_unit_63368.cif
_audit_creation_date              2012-12-10T21:39:39-0500
_audit_creation_method            fapswitch 2.2
_symmetry_space_group_name_H-M    P1
_symmetry_Int_Tables_number       1
_space_group_crystal_system       triclinic
_cell_length_a                    16.222502
_cell_length_b                    16.754925
_cell_length_c                    23.286186
_cell_angle_alpha                 91.178352
_cell_angle_beta                  92.233716
_cell_angle_gamma                 87.805283
_cell_volume                      6318.74216722

loop_
_atom_site_label
_atom_site_type_symbol
_atom_type_description
_atom_site_fract_x
_atom_site_fract_y
_atom_site_fract_z
_atom_type_partial_charge
C1    C     C_R   0.488640 0.653374 0.500995 1.010499
C2    C     C_R   0.511360 0.346626 0.499005 1.010488
C3    C     C_R   0.538548 0.437737 0.762362 0.396046
C4    C     C_R   0.461447 0.562275 0.237641 0.396049
C5    C     C_R   0.532631 0.434734 0.702398 0.262083
C6    C     C_R   0.467376 0.565276 0.297605 0.262074
C7    C     C_R   0.500486 0.501400 0.672588 -0.351398
C8    C     C_R   0.499513 0.498604 0.327412 -0.351384
C9    C     C_R   0.484820 0.573684 0.702202 0.287482
C10   C     C_R   0.515162 0.426319 0.297795 0.287471
C11   C     C_R   0.491205 0.575743 0.762274 0.395456
C12   C     C_R   0.508765 0.424262 0.237724 0.395457
C13   C     C_R   0.500063 0.502812 0.792439 -0.095648
C14   C     C_R   0.499914 0.497194 0.207560 -0.095644
C15   C     C_R   0.479506 0.740563 0.507539 -0.103329
C16   C     C_R   0.520493 0.259437 0.492461 -0.103336
C17   C     C_R   0.538589 0.782417 0.541014 -0.022038
C18   C     C_R   0.461408 0.217583 0.458988 -0.022037
C19   C     C_R   0.530852 0.865411 0.546609 0.331957
C20   C     C_R   0.469142 0.134589 0.453395 0.331952
C21   C     C_R   0.466115 0.906879 0.517080 0.139984
C22   C     C_R   0.533879 0.093120 0.482924 0.139984
C23   C     C_R   0.499840 0.500184 0.610428 1.050285
C24   C     C_R   0.500160 0.499816 0.389572 1.050295
C25   C     C_R   0.402417 0.865443 0.489246 0.339146
C26   C     C_R   0.597579 0.134556 0.510757 0.339145
C27   C     C_R   0.409020 0.782049 0.483815 -0.027066
C28   C     C_R   0.590978 0.217950 0.516185 -0.027078
C29   C     C_R   0.761484 0.467832 0.466712 0.384945
C30   C     C_R   0.238515 0.532168 0.533288 0.384946
C31   C     C_R   0.847916 0.473778 0.464689 0.212475
C32   C     C_R   0.152084 0.526222 0.535310 0.212474
C33   C     C_R   0.890783 0.518509 0.507673 0.093456
C34   C     C_R   0.109217 0.481491 0.492326 0.093454
C35   C     C_R   0.844045 0.557529 0.550333 0.243641
C36   C     C_R   0.155955 0.442471 0.449666 0.243642
C37   C     C_R   0.757006 0.552111 0.549548 0.059065
C38   C     C_R   0.242995 0.447888 0.450452 0.059060
C39   C     C_R   0.558215 0.440822 0.117837 0.656131
C40   C     C_R   0.441745 0.559176 0.882159 0.656130
C41   C     C_R   0.516462 0.574755 0.119757 0.658011
C42   C     C_R   0.483503 0.425245 0.880237 0.658013
C43   C     C_R   0.497530 0.574999 0.060362 -0.130241
C44   C     C_R   0.502427 0.424999 0.939633 -0.130240
C45   C     C_R   0.508982 0.501977 0.029665 -0.091245
C46   C     C_R   0.490973 0.498019 0.970331 -0.091245
C47   C     C_R   0.542504 0.433939 0.058262 -0.059661
C48   C     C_R   0.457451 0.566058 0.941735 -0.059663
C49   C     C_R   0.464967 0.643555 0.031554 0.391793
C50   C     C_R   0.534988 0.356441 0.968442 0.391796
C51   C     C_R   0.443749 0.638621 0.972445 0.035546
C52   C     C_R   0.556204 0.361375 0.027551 0.035549
N1    N     N_R   0.523171 0.503642 0.147706 -0.332873
N2    N     N_R   0.476795 0.496359 0.852290 -0.332873
N3    N     N_2   0.467790 0.990100 0.511315 -0.047563
N4    N     N_2   0.532203 0.009899 0.488689 -0.047565
N5    N     N_R   0.716910 0.509720 0.507000 -0.161502
N6    N     N_R   0.283090 0.490280 0.493000 -0.161504
N7    N     N_2   0.978448 0.529623 0.508100 -0.008486
N8    N     N_2   0.021552 0.470377 0.491898 -0.008486
O1    O     O_R   0.422540 0.612660 0.497490 -0.564922
O2    O     O_R   0.577460 0.387340 0.502510 -0.564920
O3    O     O_R   0.561840 0.618900 0.501990 -0.603567
O4    O     O_R   0.438160 0.381100 0.498010 -0.603566
O5    O     O_R   0.430330 0.496900 0.581600 -0.563251
O6    O     O_R   0.569670 0.503100 0.418400 -0.563245
O7    O     O_R   0.569640 0.503140 0.586090 -0.594050
O8    O     O_R   0.430360 0.496860 0.413910 -0.594063
O9    O     O_2   0.612181 0.389537 0.144632 -0.431361
O10   O     O_2   0.387777 0.610458 0.855363 -0.431356
O11   O     O_2   0.533957 0.643067 0.148423 -0.402388
O12   O     O_2   0.466018 0.356934 0.851567 -0.402390
Zn1   Zn    Zn3+2 0.406980 0.495830 0.497000 1.074445
Zn2   Zn    Zn3+2 0.593020 0.504170 0.503000 1.074453
Cl1   Cl    Cl    0.443478 0.735129 0.068463 -0.399574
Cl2   Cl    Cl    0.556473 0.264866 0.931534 -0.399574
N9    N     N_3   0.345515 0.739620 0.452978 -0.347894
H1    H     H_    0.290101 0.750125 0.473824 0.258649
H2    H     H_    0.338441 0.762224 0.411503 0.281638
N10   N     N_3   0.654485 0.260379 0.547021 -0.347892
H3    H     H_    0.709898 0.249872 0.526174 0.258651
H4    H     H_    0.661559 0.237776 0.588496 0.281639
Cl3   Cl    Cl    0.287998 0.598331 0.581781 -0.396045
Cl4   Cl    Cl    0.712001 0.401670 0.418218 -0.396049
Cl5   Cl    Cl    0.101200 0.570492 0.594396 -0.338006
Cl6   Cl    Cl    0.898799 0.429507 0.405603 -0.338007
Cl7   Cl    Cl    0.894529 0.613355 0.605329 -0.415263
Cl8   Cl    Cl    0.105472 0.386647 0.394669 -0.415263
N11   N     N_3   0.710467 0.588403 0.594618 -0.343509
H5    H     H_    0.727928 0.559397 0.632762 0.237657
H6    H     H_    0.727201 0.647703 0.599642 0.226170
N12   N     N_3   0.289534 0.411597 0.405382 -0.343509
H7    H     H_    0.272082 0.440611 0.367240 0.237650
H8    H     H_    0.272794 0.352299 0.400352 0.226179
N13   N     N_3   0.411719 0.708280 0.942972 -0.310714
H9    H     H_    0.454559 0.753204 0.947954 0.257248
H10   H     H_    0.356762 0.727898 0.961601 0.257278
N14   N     N_3   0.588230 0.291715 0.057025 -0.310713
H11   H     H_    0.545389 0.246793 0.052042 0.257247
H12   H     H_    0.643187 0.272096 0.038397 0.257280
Cl9   Cl    Cl    0.613659 0.373160 0.796475 -0.358335
Cl10  Cl    Cl    0.386336 0.626861 0.203538 -0.358323
Cl11  Cl    Cl    0.567951 0.348092 0.664802 -0.491861
Cl12  Cl    Cl    0.432081 0.651923 0.335206 -0.491875
Cl13  Cl    Cl    0.463814 0.662956 0.664177 -0.452331
Cl14  Cl    Cl    0.536165 0.337044 0.335818 -0.452340
Cl15  Cl    Cl    0.515651 0.668270 0.795847 -0.396257
Cl16  Cl    Cl    0.484301 0.331739 0.204152 -0.396265
N15   N     N_3   0.394047 0.259682 0.430101 -0.389808
H13   H     H_    0.396858 0.247866 0.385950 0.274822
H14   H     H_    0.339031 0.237963 0.444443 0.239910
N16   N     N_3   0.605950 0.740319 0.569901 -0.389818
H15   H     H_    0.603138 0.752132 0.614052 0.274816
H16   H     H_    0.660966 0.762040 0.555560 0.239910
Cl17  Cl    Cl    0.398725 0.082648 0.408078 -0.416682
Cl18  Cl    Cl    0.601267 0.917351 0.591927 -0.416683
Cl19  Cl    Cl    0.315502 0.918343 0.459288 -0.408919
Cl20  Cl    Cl    0.684493 0.081655 0.540715 -0.408922

loop_
_geom_bond_atom_site_label_1
_geom_bond_atom_site_label_2
_ccdc_geom_bond_type
C16   C28   A    
N3    N4    D    
C5    Cl11  S    
N13   H9    S    
C18   N15   S    
N16   H16   S    
C21   N3    S    
N9    H1    S    
C36   Cl8   S    
C40   O10   S    
C39   C47   A    
C35   C37   A    
N15   H14   S    
C33   C35   A    
C9    Cl13  S    
O6    Zn2   S    
C38   N12   S    
O5    Zn1   S    
C15   C17   A    
C23   O7    A    
C30   Cl3   S    
C8    C24   S    
C38   N6    A    
C35   Cl7   S    
C48   C51   A    
C44   C46   A    
C49   C51   A    
C4    Cl10  S    
C50   C52   A    
O4    Zn1   S    
C49   Cl1   S    
C1    C15   S    
C6    Cl12  S    
N11   H6    S    
C2    C16   S    
C18   C20   A    
C3    C13   A    
C24   O6    A    
C41   O11   S    
C3    Cl9   S    
C45   C47   A    
N7    N8    D    
C33   N7    S    
C31   Cl6   S    
C34   N8    S    
C41   C43   A    
C42   C44   A    
C1    O3    A    
C42   O12   S    
N16   H15   S    
C2    O4    A    
N9    H2    S    
C46   C48   A    
C31   C33   A    
C29   N5    A    
C29   Cl4   S    
N10   H4    S    
C5    C7    A    
C43   C49   A    
C22   N4    S    
O1    Zn1   S    
O8    Zn1   S    
C45   C46   A    
C1    O1    A    
C32   C34   A    
N5    Zn2   S    
C50   Cl2   S    
C9    C11   A    
C15   C27   A    
N12   H8    S    
C39   O9    S    
O7    Zn2   S    
C43   C45   A    
C41   N1    A    
C10   C12   A    
C4    C6    A    
C20   C22   A    
C40   N2    A    
C11   Cl15  S    
C10   Cl14  S    
C17   N16   S    
C3    C5    A    
C12   Cl16  S    
C13   N2    S    
C44   C50   A    
C40   C48   A    
C21   C25   A    
C19   C21   A    
C16   C18   A    
C26   Cl20  S    
C12   C14   A    
N10   H3    S    
C27   N9    S    
C25   Cl19  S    
C20   Cl17  S    
C6    C8    A    
N13   H10   S    
C47   C52   A    
O3    Zn2   S    
C25   C27   A    
C26   C28   A    
C37   N11   S    
C23   O5    A    
C36   C38   A    
C29   C31   A    
N15   H13   S    
C42   N2    A    
C30   C32   A    
C11   C13   A    
C39   N1    A    
C19   Cl18  S    
C7    C23   S    
C32   Cl5   S    
C30   N6    A    
C52   N14   S    
N12   H7    S    
C17   C19   A    
C34   C36   A    
C4    C14   A    
C28   N10   S    
N14   H12   S    
C24   O8    A    
C7    C9    A    
C14   N1    S    
C8    C10   A    
N14   H11   S    
C22   C26   A    
O2    Zn2   S    
N11   H5    S    
C37   N5    A    
C2    O2    A    
N6    Zn1   S    
C51   N13   S    
