data_mof_unit_23536.cif
_audit_creation_date              2013-03-05T16:35:52-0500
_audit_creation_method            fapswitch 2.2
_symmetry_space_group_name_H-M    P1
_symmetry_Int_Tables_number       1
_space_group_crystal_system       triclinic
_cell_length_a                    23.592811
_cell_length_b                    9.095857
_cell_length_c                    7.773987
_cell_angle_alpha                 89.93589
_cell_angle_beta                  90.018692
_cell_angle_gamma                 89.995047
_cell_volume                      1668.27186678

loop_
_atom_site_label
_atom_site_type_symbol
_atom_site_description
_atom_site_fract_x
_atom_site_fract_y
_atom_site_fract_z
_atom_type_partial_charge
O1    O     O_R   0.500000 0.288390 0.642760 -0.581342
O2    O     O_R   0.500000 0.711610 0.357240 -0.575944
O3    O     O_R   0.500000 0.711610 0.642760 -0.575346
O4    O     O_R   0.500000 0.288390 0.357240 -0.580933
H1    H     H_    0.948803 0.129970 0.545065 0.184470
H2    H     H_    0.051801 0.869294 0.452896 0.183893
H3    H     H_    0.948763 0.869406 0.454661 0.184346
H4    H     H_    0.051831 0.130069 0.546700 0.184019
C1    C     C_R   0.499996 0.219973 0.500058 0.828175
C2    C     C_R   0.499996 0.780028 0.499941 0.847254
O5    O     O_R   0.417880 0.500000 0.642820 -0.556239
O6    O     O_R   0.582120 0.500000 0.357180 -0.555256
O7    O     O_R   0.582120 0.500000 0.642820 -0.563834
O8    O     O_R   0.417880 0.500000 0.357180 -0.563960
C3    C     C_R   0.208613 0.499567 0.499544 0.301753
C4    C     C_R   0.791708 0.499628 0.500281 0.296473
C5    C     C_R   0.390587 0.499634 0.499969 0.829910
C6    C     C_R   0.609456 0.499586 0.500031 0.828905
Cu1   Cu    Cu3+1 0.500000 0.500000 0.669080 1.030628
Cu2   Cu    Cu3+1 0.500000 0.500000 0.330920 1.030863
H5    H     H_    0.215059 0.609516 0.743270 0.154761
H6    H     H_    0.785591 0.402481 0.751127 0.152107
H7    H     H_    0.214514 0.389279 0.256675 0.148698
H8    H     H_    0.784959 0.596540 0.248686 0.158177
C7    C     C_R   0.297501 0.561926 0.638465 0.072316
C8    C     C_R   0.702645 0.441355 0.642811 0.076721
C9    C     C_R   0.297562 0.435208 0.360871 0.076572
C10   C     C_R   0.702658 0.555730 0.357787 0.070682
C11   C     C_R   0.327858 0.498782 0.499847 -0.051033
C12   C     C_R   0.672267 0.498732 0.500139 -0.052248
C13   C     C_R   0.881113 0.630620 0.486736 0.540233
C14   C     C_R   0.119472 0.369007 0.516383 0.539407
C15   C     C_R   0.881139 0.368750 0.513163 0.537936
C16   C     C_R   0.119473 0.630322 0.483117 0.541328
N1    N     N_R   0.852630 0.499684 0.500059 -0.459569
N2    N     N_R   0.147839 0.499650 0.499685 -0.461280
C17   C     C_R   0.940575 0.366253 0.515255 -0.013856
C18   C     C_R   0.060033 0.633082 0.483240 -0.015461
C19   C     C_R   0.940556 0.633131 0.484503 -0.014763
C20   C     C_R   0.060039 0.366284 0.516359 -0.014628
C21   C     C_R   0.970394 0.499693 0.499862 -0.018563
C22   C     C_R   0.030205 0.499688 0.499818 -0.018394
C23   C     C_R   0.970755 0.233857 0.531937 -0.163051
C24   C     C_R   0.029851 0.765463 0.466731 -0.163630
C25   C     C_R   0.970727 0.765520 0.467760 -0.162899
C26   C     C_R   0.029873 0.233907 0.532901 -0.163800
C27   C     C_1   0.499993 0.065359 0.500080 -0.168791
C28   C     C_1   0.499993 0.934646 0.499919 -0.165174
C29   C     C_R   0.238235 0.561330 0.637037 -0.160279
C30   C     C_R   0.762056 0.444495 0.641947 -0.138831
C31   C     C_R   0.238144 0.437187 0.362167 -0.140391
C32   C     C_R   0.761921 0.554154 0.358626 -0.159916
N3    N     N_1   0.500000 0.500000 0.076820 -0.031746
N4    N     N_1   0.500000 0.500000 0.923180 -0.031845
O9    O     O_2   0.851998 0.758109 0.477392 -0.521681
O10   O     O_2   0.148738 0.242397 0.534136 -0.521910
O11   O     O_2   0.852050 0.241229 0.522439 -0.522990
O12   O     O_2   0.148740 0.756909 0.465387 -0.520424
N5    N     N_3   0.326597 0.629833 0.779407 -0.552608
H9    H     H_    0.314103 0.577065 0.892810 0.238495
H10   H     H_    0.313485 0.739464 0.786793 0.230240
N6    N     N_3   0.673242 0.377139 0.786462 -0.554504
H11   H     H_    0.654939 0.279044 0.743773 0.225749
H12   H     H_    0.701676 0.348515 0.884137 0.215522
N7    N     N_3   0.327100 0.366168 0.220739 -0.553717
H13   H     H_    0.298696 0.333256 0.124845 0.219554
H14   H     H_    0.345825 0.270281 0.268726 0.223428
N8    N     N_3   0.673644 0.618606 0.213370 -0.550066
H15   H     H_    0.686901 0.727728 0.200172 0.231485
H16   H     H_    0.686078 0.561691 0.102897 0.236801

loop_
_geom_bond_atom_site_label_1
_geom_bond_atom_site_label_2
_geom_bond_distance
_ccdc_geom_bond_type
H8    C32   1.083576 S    
N6    H12   1.045756 S    
C10   C12   1.416632 A    
C18   C24   1.404594 A    
N6    H11   1.045627 S    
C6    C12   1.481898 S    
C3    C31   1.396304 A    
C9    C11   1.418978 A    
C5    C11   1.479981 S    
C21   C22   1.411124 A    
H7    C31   1.083418 S    
Cu1   Cu2   2.628852 S    
N7    H14   1.045997 S    
H6    C30   1.083370 S    
C19   C25   1.404848 A    
O3    Cu1   1.935392 S    
O6    Cu2   1.948101 S    
H5    C29   1.083591 S    
C8    N6    1.438269 S    
N5    H9    1.045812 S    
C19   C21   1.407990 A    
O3    C2    1.272178 A    
H2    C24   1.082411 S    
N3    N4    1.194396 T    
C3    C29   1.395498 A    
C20   C26   1.404544 A    
C10   C32   1.398252 A    
O8    C5    1.283467 A    
O5    Cu1   1.948103 S    
C8    C12   1.419272 A    
O7    C6    1.283987 A    
C17   C21   1.407950 A    
C9    N7    1.438304 S    
H3    C25   1.082341 S    
Cu1   N4    1.975369 S    
C20   C22   1.408474 A    
C15   N1    1.371390 A    
C9    C31   1.402003 A    
C18   C22   1.408488 A    
C16   N2    1.369902 A    
C8    C30   1.401996 A    
C4    N1    1.437318 S    
C2    C28   1.406379 S    
C4    C30   1.397533 A    
C23   C26   1.394766 A    
C13   N1    1.371362 A    
C17   C23   1.404811 A    
N5    H10   1.045677 S    
C1    C27   1.406348 S    
O1    Cu1   1.935848 S    
O7    Cu1   1.948233 S    
O2    Cu2   1.935847 S    
O4    Cu2   1.935393 S    
C14   N2    1.369905 A    
C3    N2    1.433847 S    
C14   C20   1.402424 A    
O1    C1    1.272590 A    
C24   C25   1.394903 A    
O5    C5    1.283521 A    
C7    C11   1.416297 A    
C4    C32   1.396701 A    
N7    H13   1.046262 S    
O8    Cu2   1.948236 S    
O6    C6    1.284032 A    
C16   O12   1.349589 S    
N8    H16   1.045350 S    
H1    C23   1.082342 S    
C15   O11   1.349658 S    
C7    N5    1.433300 S    
H4    C26   1.082414 S    
C13   O9    1.349629 S    
O4    C1    1.272170 A    
N8    H15   1.045643 S    
C14   O10   1.349617 S    
O2    C2    1.272597 A    
C15   C17   1.402526 A    
C27   C28   1.188955 T    
C13   C19   1.402714 A    
Cu2   N3    1.975369 S    
C10   N8    1.433220 S    
C7    C29   1.398298 A    
C16   C18   1.402589 A    
