data_mof_unit_31375.cif
_audit_creation_date              2012-12-10T18:11:05-0500
_audit_creation_method            fapswitch 2.2
_symmetry_space_group_name_H-M    P1
_symmetry_Int_Tables_number       1
_space_group_crystal_system       triclinic
_cell_length_a                    10.765185
_cell_length_b                    9.480776
_cell_length_c                    10.618571
_cell_angle_alpha                 89.7057
_cell_angle_beta                  91.382557
_cell_angle_gamma                 90.110446
_cell_volume                      1083.42430214

loop_
_atom_site_label
_atom_site_type_symbol
_atom_type_description
_atom_site_fract_x
_atom_site_fract_y
_atom_site_fract_z
_atom_type_partial_charge
C1    C     C_R   0.259951 0.499694 0.499752 0.979642
C2    C     C_3   0.496764 0.500879 0.122376 -0.022641
C3    C     C_3   0.070523 0.592395 0.390039 0.359432
C4    C     C_3   0.076251 0.559719 0.626207 0.309297
C5    C     C_3   0.926343 0.595208 0.389623 0.683484
C6    C     C_3   0.931616 0.557412 0.628785 0.709187
C7    C     C_3   0.070037 0.347278 0.483312 -0.310320
C8    C     C_3   0.121937 0.499277 0.499883 -0.294889
C9    C     C_3   0.878103 0.500359 0.499939 -0.261732
C10   C     C_3   0.927937 0.347771 0.481455 -0.544476
C11   C     C_3   0.623060 0.083488 0.542261 -0.292656
C12   C     C_3   0.622885 0.916644 0.542781 -0.233814
C13   C     C_3   0.408454 0.082701 0.590956 -0.184081
C14   C     C_3   0.408038 0.915965 0.590525 -0.206600
C15   C     C_3   0.470055 0.084381 0.374972 0.232895
C16   C     C_3   0.470592 0.916882 0.374849 0.222743
C17   C     C_R   0.498592 0.500331 0.259445 0.888558
C18   C     C_R   0.739837 0.500078 0.499928 0.925271
C19   C     C_R   0.498492 0.499658 0.740529 0.850247
C20   C     C_3   0.505604 0.633772 0.040151 -0.146751
C21   C     C_3   0.390141 0.442407 0.039770 -0.060999
C22   C     C_3   0.399193 0.575145 0.955079 -0.110810
C23   C     C_3   0.496508 0.499077 0.877424 -0.038432
C24   C     C_3   0.602710 0.557651 0.960233 -0.111469
C25   C     C_3   0.487171 0.366195 0.959574 -0.157596
C26   C     C_3   0.593616 0.424681 0.044401 -0.125360
Cu1   Cu    Cu3+1 0.499860 0.642410 0.500060 1.001200
Cu2   Cu    Cu3+1 0.499860 0.357590 0.500060 0.970962
H1    H     H_    0.319667 0.636544 0.915225 0.194824
H2    H     H_    0.892416 0.303271 0.390786 0.241133
H3    H     H_    0.894976 0.275504 0.556423 0.243428
H4    H     H_    0.650375 0.122908 0.637509 0.193835
H5    H     H_    0.649511 0.876890 0.638424 0.209806
H6    H     H_    0.695877 0.120587 0.477345 0.173211
H7    H     H_    0.695974 0.880059 0.478609 0.239312
H8    H     H_    0.429259 0.119951 0.688329 0.155138
H9    H     H_    0.427868 0.877067 0.687879 0.156950
H10   H     H_    0.543159 0.119371 0.309283 0.096711
H11   H     H_    0.544377 0.883458 0.309724 0.099271
H12   H     H_    0.313523 0.121296 0.566854 0.191879
H13   H     H_    0.313058 0.877996 0.565437 0.190712
H14   H     H_    0.513375 0.743510 0.075504 0.177833
H15   H     H_    0.302973 0.395792 0.075316 0.222117
H16   H     H_    0.689250 0.606428 0.925575 0.212748
H17   H     H_    0.479590 0.256486 0.924081 0.160430
H18   H     H_    0.672254 0.361054 0.082942 0.190478
H19   H     H_    0.104899 0.702023 0.403016 0.167225
H20   H     H_    0.109252 0.670628 0.635739 0.124311
H21   H     H_    0.101629 0.302000 0.393402 0.272896
H22   H     H_    0.104748 0.277667 0.561199 0.237646
N1    N     N_3   0.500250 0.143650 0.502780 -0.172152
N2    N     N_3   0.500250 0.856350 0.502780 -0.185973
O1    O     O_R   0.317570 0.620260 0.500070 -0.592701
O2    O     O_R   0.317570 0.379740 0.500070 -0.556811
O3    O     O_R   0.499850 0.620240 0.316900 -0.562259
O4    O     O_R   0.499850 0.379760 0.316900 -0.576517
O5    O     O_R   0.682190 0.620260 0.500030 -0.517224
O6    O     O_R   0.682190 0.379740 0.500030 -0.612274
O7    O     O_R   0.499910 0.620280 0.683200 -0.601316
O8    O     O_R   0.499910 0.379720 0.683200 -0.590750
Br1   Br    Br    0.316216 0.164626 0.299960 -0.459886
Br2   Br    Br    0.317909 0.835969 0.298233 -0.413379
F1    F     F_    0.115440 0.544704 0.276452 -0.597415
F2    F     F_    0.128822 0.484589 0.726516 -0.635072
F3    F     F_    0.889072 0.733712 0.406182 -0.643020
F4    F     F_    0.890095 0.693873 0.648051 -0.641400
Br3   Br    Br    0.855770 0.538552 0.225792 -0.412488
Br4   Br    Br    0.872118 0.445835 0.771575 -0.411554

loop_
_geom_bond_atom_site_label_1
_geom_bond_atom_site_label_2
_ccdc_geom_bond_type
C7    C10   S    
C20   H14   S    
C23   C24   S    
Cu1   O1    S    
C15   H10   S    
C5    C9    S    
C1    O2    A    
C22   H1    S    
C15   N1    S    
C19   O8    A    
C1    C8    S    
C9    C10   S    
C10   H2    S    
C18   O5    A    
C19   C23   S    
C5    Br3   S    
C4    C8    S    
C20   C24   S    
C2    C21   S    
C6    Br4   S    
Cu2   O4    S    
C3    C5    S    
C7    C8    S    
C2    C26   S    
Cu1   O7    S    
C21   C22   S    
C2    C17   S    
Cu1   O5    S    
C7    H22   S    
C17   O4    A    
C4    F2    S    
C16   Br2   S    
C6    C9    S    
C14   H13   S    
C17   O3    A    
C4    C6    S    
C3    F1    S    
C12   N2    S    
C24   C26   S    
C11   H4    S    
Cu2   O6    S    
Cu2   O8    S    
C12   H5    S    
C15   Br1   S    
Cu2   O2    S    
C24   H16   S    
Cu2   N1    S    
Cu1   O3    S    
C13   N1    S    
C11   N1    S    
C26   H18   S    
C16   H11   S    
C2    C20   S    
C15   C16   S    
C25   H17   S    
C9    C18   S    
C6    F4    S    
C23   C25   S    
Cu1   N2    S    
C7    H21   S    
C13   H8    S    
C5    F3    S    
C3    C8    S    
C4    H20   S    
C3    H19   S    
Cu1   Cu2   S    
C1    O1    A    
C22   C23   S    
C13   H12   S    
C21   C25   S    
C14   H9    S    
C13   C14   S    
C19   O7    A    
C25   C26   S    
C21   H15   S    
C10   H3    S    
C18   O6    A    
C11   H6    S    
C14   N2    S    
C16   N2    S    
C11   C12   S    
C20   C22   S    
C12   H7    S    
