data_mof_unit_45235.cif
_audit_creation_date              2012-12-10T17:54:22-0500
_audit_creation_method            fapswitch 2.2
_symmetry_space_group_name_H-M    P1
_symmetry_Int_Tables_number       1
_space_group_crystal_system       triclinic
_cell_length_a                    27.692359
_cell_length_b                    10.621789
_cell_length_c                    9.912434
_cell_angle_alpha                 89.95801
_cell_angle_beta                  90.191704
_cell_angle_gamma                 91.724211
_cell_volume                      2914.3300617

loop_
_atom_site_label
_atom_site_type_symbol
_atom_type_description
_atom_site_fract_x
_atom_site_fract_y
_atom_site_fract_z
_atom_type_partial_charge
C1    C     C_R   0.501269 0.260741 0.500086 0.856088
C2    C     C_R   0.277579 0.486513 0.376497 -0.095950
C3    C     C_R   0.252602 0.483702 0.498822 0.315711
C4    C     C_R   0.101314 0.484043 0.509913 -0.055393
C5    C     C_R   0.125807 0.374201 0.544090 -0.025690
C6    C     C_R   0.099499 0.265958 0.583212 -0.119862
C7    C     C_R   0.127688 0.591986 0.466686 -0.026607
C8    C     C_R   0.353274 0.494098 0.499348 -0.041978
C9    C     C_R   0.646599 0.497293 0.501979 -0.037729
C10   C     C_R   0.972864 0.372736 0.538563 0.055069
C11   C     C_R   0.976169 0.604429 0.514871 -0.023444
C12   C     C_R   0.406058 0.498864 0.499778 0.858129
C13   C     C_R   0.949239 0.488938 0.524964 0.042650
C14   C     C_R   0.944660 0.259689 0.539777 -0.196172
C15   C     C_R   0.894647 0.261185 0.531755 -0.117748
C16   C     C_R   0.871080 0.375390 0.523662 -0.016443
C17   C     C_R   0.898256 0.489650 0.521774 -0.054131
C18   C     C_R   0.874376 0.604623 0.516791 -0.077750
C19   C     C_R   0.823894 0.603200 0.510810 0.528420
C20   C     C_R   0.820674 0.378388 0.517160 0.507719
C21   C     C_R   0.721107 0.473353 0.626119 -0.106446
C22   C     C_R   0.671043 0.476087 0.623916 -0.237737
C23   C     C_R   0.501428 0.739447 0.499927 0.877682
C24   C     C_R   0.672904 0.515495 0.382339 -0.205094
C25   C     C_R   0.723075 0.513267 0.385048 -0.101752
C26   C     C_R   0.747052 0.492179 0.506908 0.322707
C27   C     C_R   0.023840 0.373321 0.548040 0.041108
C28   C     C_R   0.050411 0.485758 0.517832 0.075943
C29   C     C_R   0.026495 0.599525 0.492835 0.061470
C30   C     C_R   0.049326 0.264999 0.584256 -0.200160
C31   C     C_R   0.103193 0.698982 0.426639 -0.130048
C32   C     C_R   0.951323 0.719117 0.528406 0.235194
C33   C     C_R   0.901090 0.718039 0.524364 -0.146630
C34   C     C_R   0.593914 0.499784 0.500339 0.841237
C35   C     C_R   0.053263 0.701677 0.437201 -0.150071
C36   C     C_R   0.582375 0.137650 0.624659 -0.175147
C37   C     C_R   0.620330 0.074898 0.685028 -0.112028
C38   C     C_R   0.620364 0.943884 0.684947 -0.116658
C39   C     C_R   0.582463 0.875175 0.624389 -0.191560
C40   C     C_R   0.543392 0.937402 0.564000 0.093028
C41   C     C_R   0.543335 0.069366 0.564165 0.098240
C42   C     C_R   0.504591 0.128718 0.499866 -0.087375
C43   C     C_R   0.468023 0.061804 0.432257 -0.209757
C44   C     C_R   0.468088 0.933222 0.432090 -0.190489
C45   C     C_R   0.176293 0.375779 0.538689 0.508023
C46   C     C_R   0.504715 0.872011 0.499529 -0.101631
C47   C     C_R   0.436441 0.335415 0.139706 -0.162452
C48   C     C_R   0.405096 0.254328 0.069339 -0.194835
C49   C     C_R   0.405130 0.254118 0.929692 -0.182855
C50   C     C_R   0.436512 0.334992 0.859587 -0.158157
C51   C     C_R   0.468699 0.418748 0.927499 0.167987
C52   C     C_R   0.468684 0.418877 0.072101 0.172253
C53   C     C_R   0.529992 0.577571 0.071704 -0.110151
C54   C     C_R   0.529972 0.577563 0.928577 -0.112308
C55   C     C_R   0.178076 0.589130 0.462006 0.513747
C56   C     C_R   0.277742 0.485225 0.621336 -0.100662
C57   C     C_R   0.327908 0.490349 0.621809 -0.218504
C58   C     C_R   0.327774 0.491583 0.376571 -0.222946
H1    H     H_    0.346502 0.493693 0.280800 0.167662
H2    H     H_    0.258306 0.483482 0.715981 0.143276
H3    H     H_    0.122435 0.780758 0.386020 0.197195
H4    H     H_    0.654815 0.532178 0.287234 0.159633
H5    H     H_    0.882940 0.806685 0.532300 0.216628
H6    H     H_    0.743370 0.527911 0.292886 0.138395
H7    H     H_    0.035822 0.782444 0.395446 0.192511
H8    H     H_    0.438860 0.109399 0.382052 0.142730
H9    H     H_    0.584400 0.239391 0.624210 0.152985
H10   H     H_    0.650031 0.128147 0.730803 0.151908
H11   H     H_    0.258020 0.485225 0.281697 0.143432
H12   H     H_    0.650084 0.895324 0.730709 0.151855
H13   H     H_    0.584555 0.773695 0.623646 0.144794
H14   H     H_    0.438963 0.881037 0.381815 0.159194
H15   H     H_    0.554505 0.640962 0.125610 0.148203
H16   H     H_    0.434325 0.329842 0.246665 0.199237
H17   H     H_    0.380666 0.191177 0.123693 0.157017
H18   H     H_    0.380717 0.190805 0.875139 0.162586
H19   H     H_    0.434464 0.328964 0.752594 0.204571
H20   H     H_    0.554458 0.640977 0.874929 0.145451
H21   H     H_    0.117566 0.180897 0.611973 0.200475
H22   H     H_    0.651559 0.461076 0.717398 0.161851
H23   H     H_    0.739851 0.457166 0.720320 0.138157
H24   H     H_    0.960392 0.168130 0.541979 0.186496
H25   H     H_    0.346715 0.491602 0.717807 0.168012
N1    N     N_R   0.201144 0.482493 0.499019 -0.358370
N2    N     N_R   0.798409 0.491164 0.510307 -0.358802
N3    N     N_R   0.499540 0.498800 0.142780 -0.122210
N4    N     N_R   0.499520 0.498720 0.857170 -0.122104
O1    O     O_R   0.500000 0.316780 0.614690 -0.640457
O2    O     O_2   0.794025 0.269852 0.517529 -0.549360
O3    O     O_2   0.203944 0.692384 0.422599 -0.549491
O4    O     O_2   0.800337 0.712580 0.506347 -0.548264
O5    O     O_R   0.500000 0.316750 0.385360 -0.627126
O6    O     O_R   0.428760 0.500030 0.614650 -0.635341
O7    O     O_R   0.428750 0.500010 0.385320 -0.640337
O8    O     O_R   0.500000 0.683250 0.614640 -0.612586
O9    O     O_R   0.500000 0.683220 0.385310 -0.610155
O10   O     O_R   0.571250 0.499990 0.614680 -0.635578
O11   O     O_R   0.571240 0.499970 0.385350 -0.613531
O12   O     O_2   0.200442 0.271685 0.572136 -0.552042
Zn1   Zn    Zn3+2 0.500000 0.500020 0.653130 0.935208
Zn2   Zn    Zn3+2 0.500000 0.499980 0.346870 0.944968
Br1   Br    Br    0.981218 0.876705 0.585479 -0.580905
H26   H     H_    0.874517 0.172116 0.531948 0.202731
H27   H     H_    0.031394 0.178922 0.617285 0.181443

loop_
_geom_bond_atom_site_label_1
_geom_bond_atom_site_label_2
_ccdc_geom_bond_type
C10   C27   A    
C21   C26   A    
C38   H12   S    
C40   C41   A    
C41   C42   A    
C31   H3    S    
C7    C55   A    
C36   H9    S    
C53   C54   A    
C23   O9    A    
C40   C46   A    
C28   C29   A    
C55   O3    S    
C43   H8    S    
C38   C39   A    
C9    C22   A    
C35   H7    S    
C15   C16   A    
C37   H10   S    
C34   O10   A    
C56   C57   A    
C18   C19   A    
C8    C58   A    
O7    Zn2   S    
C16   C17   A    
C57   H25   S    
C53   N3    A    
C8    C12   S    
C2    H11   S    
C16   C20   A    
C1    O1    A    
C23   C46   S    
C21   C22   A    
C27   C30   A    
C48   H17   S    
C12   O7    A    
C36   C41   A    
C4    C7    A    
C4    C28   A    
C44   C46   A    
C50   C51   A    
C7    C31   A    
C51   C52   A    
C24   C25   A    
C45   O12   S    
C51   N4    A    
C39   C40   A    
O8    Zn1   S    
C58   H1    S    
C5    C45   A    
C56   H2    S    
C25   H6    S    
C43   C44   A    
C37   C38   A    
C8    C57   A    
C3    C56   A    
C47   C48   A    
C33   H5    S    
C20   N2    A    
C17   C18   A    
C49   H18   S    
O6    Zn1   S    
O1    Zn1   S    
O5    Zn2   S    
C54   N4    A    
C48   C49   A    
C6    C30   A    
C21   H23   S    
C11   C32   A    
C1    O5    A    
C10   C14   A    
C9    C34   S    
C31   C35   A    
C12   O6    A    
C45   N1    A    
C42   C43   A    
C14   H24   S    
C50   H19   S    
C3    N1    S    
O10   Zn1   S    
N4    Zn1   S    
C36   C37   A    
C24   H4    S    
C53   H15   S    
C47   H16   S    
C4    C5    A    
C19   N2    A    
C10   C13   A    
C2    C58   A    
C9    C24   A    
C47   C52   A    
O11   Zn2   S    
C20   O2    S    
C29   C35   A    
C13   C17   A    
C32   C33   A    
C52   N3    A    
C2    C3    A    
C25   C26   A    
C22   H22   S    
C11   C13   A    
C6    H21   S    
C5    C6    A    
C26   N2    S    
C34   O11   A    
C23   O8    A    
C44   H14   S    
C32   Br1   S    
C18   C33   A    
C19   O4    S    
C1    C42   S    
C11   C29   A    
C49   C50   A    
C30   H27   S    
C27   C28   A    
C39   H13   S    
C14   C15   A    
C15   H26   S    
C55   N1    A    
O9    Zn2   S    
N3    Zn2   S    
C54   H20   S    
