data_mof_unit_51318.cif
_audit_creation_date              2012-12-10T17:52:36-0500
_audit_creation_method            fapswitch 2.2
_symmetry_space_group_name_H-M    P1
_symmetry_Int_Tables_number       1
_space_group_crystal_system       triclinic
_cell_length_a                    14.695921
_cell_length_b                    14.697511
_cell_length_c                    23.495869
_cell_angle_alpha                 77.011526
_cell_angle_beta                  102.517708
_cell_angle_gamma                 114.723826
_cell_volume                      4448.41691557

loop_
_atom_site_label
_atom_site_type_symbol
_atom_type_description
_atom_site_fract_x
_atom_site_fract_y
_atom_site_fract_z
_atom_type_partial_charge
C1    C     C_R   0.880354 0.312287 0.510135 0.830632
C2    C     C_R   0.119634 0.687692 0.490588 0.837000
C3    C     C_R   0.087894 0.528692 0.768525 0.253658
C4    C     C_R   0.910287 0.452635 0.234571 0.253252
C5    C     C_R   0.086076 0.530372 0.708693 -0.303530
C6    C     C_R   0.912479 0.460607 0.292938 -0.305556
C7    C     C_R   0.994290 0.493263 0.671713 -0.171802
C8    C     C_R   0.004423 0.502800 0.328703 -0.167510
C9    C     C_R   0.901615 0.454069 0.694951 -0.076898
C10   C     C_R   0.096717 0.541995 0.305051 -0.088042
C11   C     C_R   0.903290 0.453029 0.755583 0.165624
C12   C     C_R   0.094845 0.533368 0.245873 0.172149
C13   C     C_R   0.996566 0.489462 0.792023 0.310557
C14   C     C_R   0.001287 0.488177 0.211138 0.307967
C15   C     C_R   0.812739 0.204688 0.517797 -0.031172
C16   C     C_R   0.187311 0.794995 0.488871 -0.037164
C17   C     C_R   0.784172 0.026838 0.538705 -0.187715
C18   C     C_R   0.216885 0.970406 0.486274 -0.187947
C19   C     C_R   0.850572 0.128150 0.532566 -0.186670
C20   C     C_R   0.149973 0.870368 0.483350 -0.188135
C21   C     C_R   0.708300 0.178912 0.510431 -0.244932
C22   C     C_R   0.291737 0.820848 0.496394 -0.241977
C23   C     C_R   0.997957 0.497682 0.608962 0.867270
C24   C     C_R   0.001844 0.501859 0.391095 0.875858
C25   C     C_R   0.639902 0.077489 0.518509 0.089382
C26   C     C_R   0.360902 0.920203 0.502081 0.088921
C27   C     C_R   0.679380 0.000989 0.531149 0.161064
C28   C     C_R   0.321744 0.995806 0.495761 0.161412
C29   C     C_R   0.533535 0.050210 0.512660 0.068563
C30   C     C_R   0.467471 0.946472 0.513309 0.066518
C31   C     C_R   0.510170 0.872436 0.526468 -0.221879
C32   C     C_R   0.491221 0.122924 0.507381 -0.218161
C33   C     C_R   0.614057 0.899492 0.535783 -0.218940
C34   C     C_R   0.387400 0.095849 0.499382 -0.222383
C35   C     C_R   0.719854 0.674648 0.406195 -0.309121
C36   C     C_R   0.280267 0.325564 0.593901 -0.312352
C37   C     C_R   0.799662 0.642515 0.419890 0.078058
C38   C     C_R   0.200414 0.357599 0.580181 0.077720
C39   C     C_R   0.713181 0.507073 0.490289 0.029516
C40   C     C_R   0.286721 0.492924 0.509627 0.023487
C41   C     C_R   0.628672 0.535224 0.478027 -0.018116
C42   C     C_R   0.371379 0.465027 0.522032 -0.018201
C43   C     C_R   0.634694 0.622072 0.435510 0.148945
C44   C     C_R   0.365420 0.378228 0.564598 0.152968
C45   C     C_R   0.999798 0.571438 0.109981 0.585066
C46   C     C_R   0.997227 0.405493 0.893193 0.549119
C47   C     C_R   0.540046 0.481972 0.506807 0.073195
C48   C     C_R   0.460060 0.518427 0.493316 0.065904
C49   C     C_R   0.471698 0.607176 0.451854 -0.184342
C50   C     C_R   0.528532 0.393429 0.548408 -0.180554
C51   C     C_R   0.556661 0.656950 0.423153 -0.178187
C52   C     C_R   0.443557 0.343529 0.577055 -0.188563
C53   C     C_R   0.994466 0.402548 0.132509 0.542041
C54   C     C_R   0.999290 0.573175 0.870309 0.582958
C55   C     C_R   0.994175 0.401181 0.072983 -0.017695
C56   C     C_R   0.999196 0.574462 0.929817 -0.025941
C57   C     C_R   0.996674 0.487576 0.031469 -0.014405
C58   C     C_R   0.997203 0.488261 0.971390 -0.014483
C59   C     C_R   0.998965 0.573398 0.049919 -0.026351
C60   C     C_R   0.996024 0.402837 0.953053 -0.016453
C61   C     C_R   0.992440 0.316204 0.054155 -0.167731
C62   C     C_R   0.000859 0.659412 0.948647 -0.161190
C63   C     C_R   0.993597 0.317113 0.994816 -0.168365
C64   C     C_R   0.000904 0.658945 0.008105 -0.161285
Cu1   Cu    Cu3+1 0.081740 0.475680 0.515360 0.958622
Cu2   Cu    Cu3+1 0.918260 0.524320 0.484640 0.960642
H1    H     H_    0.990614 0.248918 0.085210 0.188056
H2    H     H_    0.002371 0.726578 0.917560 0.188256
H3    H     H_    0.814719 0.968566 0.549050 0.139699
H4    H     H_    0.186661 0.027848 0.481831 0.138089
H5    H     H_    0.465668 0.792166 0.531691 0.143537
H6    H     H_    0.536279 0.201464 0.511050 0.134375
H7    H     H_    0.561793 0.724354 0.391309 0.150144
H8    H     H_    0.438523 0.276184 0.608937 0.149113
H9    H     H_    0.282832 0.555193 0.476361 0.138203
H10   H     H_    0.716846 0.444540 0.523335 0.138214
H11   H     H_    0.133919 0.316137 0.602086 0.134878
H12   H     H_    0.866178 0.683991 0.398006 0.136886
H13   H     H_    0.725246 0.741008 0.373424 0.145007
H14   H     H_    0.274951 0.259260 0.626707 0.144482
H15   H     H_    0.416533 0.640941 0.440719 0.145120
H16   H     H_    0.583874 0.359986 0.559766 0.136565
H17   H     H_    0.992487 0.250442 0.981804 0.187811
H18   H     H_    0.002572 0.725816 0.021172 0.188235
H19   H     H_    0.157040 0.561926 0.690869 0.170758
H20   H     H_    0.841747 0.432169 0.310692 0.171244
H21   H     H_    0.643424 0.840302 0.545947 0.153580
H22   H     H_    0.358331 0.153978 0.495736 0.152139
H23   H     H_    0.317150 0.761776 0.497111 0.139134
H24   H     H_    0.681859 0.239575 0.496733 0.143932
H25   H     H_    0.069372 0.851920 0.477483 0.154971
H26   H     H_    0.931161 0.146459 0.538586 0.153030
N1    N     N_R   0.998203 0.487143 0.149797 -0.428166
N2    N     N_R   0.998152 0.489502 0.853293 -0.426637
N3    N     N_R   0.795430 0.560810 0.461550 -0.186726
N4    N     N_R   0.204570 0.439190 0.538450 -0.185490
O1    O     O_R   0.977900 0.338110 0.520250 -0.595346
O2    O     O_R   0.022100 0.661890 0.479750 -0.593738
O3    O     O_R   0.839850 0.379180 0.494310 -0.590548
O4    O     O_R   0.160150 0.620820 0.505690 -0.590299
O5    O     O_R   0.069020 0.479430 0.595090 -0.583568
O6    O     O_R   0.930980 0.520570 0.404910 -0.583813
O7    O     O_R   0.930970 0.520500 0.569150 -0.568052
O8    O     O_R   0.069030 0.479500 0.430850 -0.569356
O9    O     O_2   0.002387 0.653033 0.128587 -0.540218
O10   O     O_2   0.997592 0.324924 0.874948 -0.570985
O11   O     O_2   0.992645 0.320724 0.172956 -0.569079
O12   O     O_2   0.000368 0.654632 0.829711 -0.542236
N5    N     N_2   0.181660 0.571221 0.804645 -0.421411
H27   H     H_    0.229306 0.639678 0.784631 0.258772
C65   C     C_3   0.232643 0.502538 0.828414 -0.647385
H28   H     H_    0.302756 0.540313 0.857827 0.226272
H29   H     H_    0.253339 0.480750 0.792184 0.221436
H30   H     H_    0.183744 0.433488 0.854727 0.268507
N6    N     N_2   0.816063 0.414145 0.198099 -0.421349
H31   H     H_    0.768308 0.448614 0.199433 0.259876
C66   C     C_3   0.765772 0.304922 0.207598 -0.649488
H32   H     H_    0.696290 0.281296 0.175039 0.227892
H33   H     H_    0.744058 0.277639 0.252731 0.213811
H34   H     H_    0.815637 0.269255 0.201660 0.274392
C67   C     C_2   0.804363 0.407212 0.657435 0.848793
O13   O     O_2   0.735791 0.435981 0.652759 -0.619596
O14   O     O_R   0.791439 0.329264 0.627762 -0.773737
H35   H     H_    0.721321 0.301021 0.604834 0.309585
C68   C     C_2   0.193551 0.597315 0.340694 0.840652
O15   O     O_2   0.267765 0.577922 0.343694 -0.622672
O16   O     O_R   0.199593 0.672106 0.370739 -0.772241
H36   H     H_    0.269444 0.705166 0.392983 0.312955
N7    N     N_2   0.812319 0.418180 0.780705 -0.424188
H37   H     H_    0.763338 0.452501 0.759017 0.292945
C69   C     C_3   0.762408 0.309330 0.794955 -0.621799
H38   H     H_    0.698706 0.291077 0.819410 0.223321
H39   H     H_    0.815490 0.276612 0.823281 0.266857
H40   H     H_    0.731814 0.273811 0.754235 0.229749
N8    N     N_2   0.184845 0.578957 0.218758 -0.416137
H41   H     H_    0.235123 0.647390 0.231374 0.273520
C70   C     C_3   0.233353 0.511511 0.218064 -0.593286
H42   H     H_    0.301598 0.553951 0.195561 0.216453
H43   H     H_    0.181973 0.448489 0.193629 0.245565
H44   H     H_    0.256583 0.479688 0.263635 0.256414

loop_
_geom_bond_atom_site_label_1
_geom_bond_atom_site_label_2
_ccdc_geom_bond_type
C18   H4    S    
C17   H3    S    
Cu2   O6    S    
C4    N6    S    
C65   H28   S    
Cu1   O5    S    
C69   H40   S    
C45   N1    A    
C1    O3    A    
N8    H41   S    
C39   C41   A    
C27   C33   A    
C15   C19   A    
C70   H43   S    
C59   C64   A    
C60   C63   A    
C35   C37   A    
C29   C32   A    
C52   H8    S    
C66   H33   S    
C30   C31   A    
C57   C59   A    
C32   H6    S    
C58   C60   A    
N6    H31   S    
C55   C61   A    
C37   N3    A    
N8    C70   S    
C49   H15   S    
C61   C63   A    
C61   H1    S    
C64   H18   S    
C62   C64   A    
C19   H26   S    
C17   C19   A    
Cu1   N4    S    
C23   O7    A    
C49   C51   A    
C12   N8    S    
C9    C67   S    
C31   C33   A    
C1    C15   S    
C10   C68   S    
C2    C16   S    
C14   N1    S    
C24   O6    A    
C3    C13   A    
C5    H19   S    
C44   C52   A    
C40   C42   A    
C28   C34   A    
C41   C43   A    
C42   C44   A    
C40   N4    A    
C11   N7    S    
C20   H25   S    
C45   O9    S    
C47   C50   A    
C21   H24   S    
C53   C55   A    
C25   C29   A    
C70   H44   S    
C54   C56   A    
C67   O14   S    
C53   N1    A    
C17   C27   A    
O14   H35   S    
C18   C28   A    
C4    C6    A    
C36   H14   S    
C66   H34   S    
C1    O1    A    
C5    C7    A    
C42   C48   A    
N6    C66   S    
C63   H17   S    
C24   O8    A    
C32   C34   A    
Cu2   O3    S    
C29   C30   A    
C53   O11   S    
C50   C52   A    
C47   C48   A    
C46   N2    A    
C16   C20   A    
C41   C47   A    
C65   H29   S    
C34   H22   S    
C39   H10   S    
C9    C11   A    
C39   N3    A    
C67   O13   D    
C10   C12   A    
C48   C49   A    
C12   C14   A    
C26   C30   A    
C55   C57   A    
C68   O15   D    
C56   C62   A    
C36   C44   A    
C69   H38   S    
C3    C5    A    
C35   C43   A    
C50   H16   S    
N7    H37   S    
C37   H12   S    
C7    C9    A    
C21   C25   A    
C45   C59   A    
C16   C22   A    
C46   C60   A    
Cu2   O7    S    
C51   H7    S    
Cu1   O4    S    
C69   H39   S    
C6    C8    A    
C38   H11   S    
C54   O12   S    
C25   C27   A    
C70   H42   S    
C26   C28   A    
C6    H20   S    
C40   H9    S    
C62   H2    S    
C13   N2    S    
Cu2   O2    S    
N5    C65   S    
C33   H21   S    
Cu1   O1    S    
C66   H32   S    
C11   C13   A    
C43   C51   A    
C57   C58   A    
C23   O5    A    
C3    N5    S    
C7    C23   S    
C46   O10   S    
C36   C38   A    
C8    C24   S    
C22   H23   S    
C56   C58   A    
C65   H30   S    
C18   C20   A    
C4    C14   A    
C54   N2    A    
C2    O4    A    
C15   C21   A    
C2    O2    A    
C8    C10   A    
Cu1   Cu2   S    
C22   C26   A    
C38   N4    A    
C68   O16   S    
C35   H13   S    
Cu1   O8    S    
N5    H27   S    
C31   H5    S    
O16   H36   S    
Cu2   N3    S    
N7    C69   S    
