data_mof_unit_31171.cif
_audit_creation_date              2012-12-10T17:18:53-0500
_audit_creation_method            fapswitch 2.2
_symmetry_space_group_name_H-M    P1
_symmetry_Int_Tables_number       1
_space_group_crystal_system       triclinic
_cell_length_a                    9.655929
_cell_length_b                    10.815534
_cell_length_c                    13.645131
_cell_angle_alpha                 94.679676
_cell_angle_beta                  75.270256
_cell_angle_gamma                 90.656716
_cell_volume                      1373.52609622

loop_
_atom_site_label
_atom_site_type_symbol
_atom_type_description
_atom_site_fract_x
_atom_site_fract_y
_atom_site_fract_z
_atom_type_partial_charge
C1    C     C_R   0.503389 0.735819 0.488826 0.856876
C2    C     C_R   0.443412 0.515951 0.976512 0.073663
C3    C     C_R   0.487983 0.517658 0.869900 -0.036954
C4    C     C_R   0.547404 0.490334 0.030304 -0.013823
C5    C     C_R   0.694145 0.477001 0.977049 0.020464
C6    C     C_R   0.733160 0.483905 0.871917 0.106877
C7    C     C_R   0.634194 0.529595 0.826301 0.349528
C8    C     C_R   0.509904 0.470562 0.133882 0.346756
C9    C     C_R   0.759867 0.474632 0.136344 -0.248743
C10   C     C_R   0.385912 0.528354 0.812158 -0.068370
C11   C     C_R   0.256796 0.883571 0.446003 0.113871
C12   C     C_R   0.425099 0.508809 0.699177 0.825716
C13   C     C_R   0.122898 0.942094 0.480338 -0.204971
C14   C     C_R   0.107206 0.051631 0.543350 0.420420
C15   C     C_R   0.228716 0.112540 0.558968 -0.211245
C16   C     C_R   0.366224 0.059891 0.516058 -0.003400
C17   C     C_R   0.375903 0.934611 0.477916 0.048730
C18   C     C_R   0.504545 0.868782 0.473035 -0.102233
C19   C     C_R   0.630151 0.935180 0.470580 -0.128172
C20   C     C_R   0.626120 0.063369 0.482715 -0.148428
C21   C     C_R   0.494747 0.127408 0.507008 -0.070502
C22   C     C_R   0.897470 0.316329 0.378482 -0.111408
C23   C     C_R   0.497258 0.262711 0.505336 0.771051
C24   C     C_R   0.985690 0.218997 0.326696 -0.185566
C25   C     C_R   0.126757 0.215173 0.330906 -0.112361
C26   C     C_R   0.180690 0.310527 0.384697 -0.041824
C27   C     C_R   0.092475 0.405550 0.444948 0.202780
C28   C     C_R   0.943772 0.406394 0.443969 0.173031
C29   C     C_R   0.916023 0.596747 0.543251 0.494367
C30   C     C_R   0.060368 0.593012 0.547311 -0.038265
C31   C     C_R   0.575001 0.491936 0.301240 0.806626
C32   C     C_R   0.798617 0.465073 0.030764 -0.121541
C33   C     C_R   0.614929 0.479475 0.189308 -0.092887
C34   C     C_R   0.244633 0.561047 0.863661 -0.136510
C35   C     C_R   0.204062 0.577631 0.969210 -0.148716
C36   C     C_R   0.301674 0.555101 0.025327 -0.044028
Cu1   Cu    Cu3+1 0.359340 0.500010 0.500010 0.991647
Cu2   Cu    Cu3+1 0.640660 0.499990 0.499990 1.031333
H1    H     H_    0.843586 0.475142 0.176263 0.184003
H2    H     H_    0.032079 0.904481 0.455541 0.203754
H3    H     H_    0.214101 0.199894 0.605053 0.209357
H4    H     H_    0.726363 0.112045 0.474120 0.205949
H5    H     H_    0.796629 0.320768 0.360592 0.183669
H6    H     H_    0.946174 0.149627 0.278979 0.158325
H7    H     H_    0.197669 0.143046 0.286094 0.178558
H8    H     H_    0.294218 0.312804 0.368593 0.215577
H9    H     H_    0.104546 0.670218 0.584625 0.183992
H10   H     H_    0.911126 0.457324 0.992375 0.172300
H11   H     H_    0.167411 0.580799 0.822019 0.186705
H12   H     H_    0.266837 0.576402 0.106521 0.197216
H13   H     H_    0.096771 0.609563 0.007850 0.151799
H14   H     H_    0.732058 0.888377 0.458217 0.207164
N1    N     N_R   0.852480 0.498790 0.499000 -0.236077
N2    N     N_R   0.148360 0.498710 0.498970 -0.225923
O1    O     O_R   0.381190 0.680360 0.500010 -0.579947
O2    O     O_R   0.618760 0.680340 0.500000 -0.517708
O3    O     O_R   0.323240 0.499990 0.650990 -0.578090
O4    O     O_R   0.560820 0.499960 0.650980 -0.527265
O5    O     O_R   0.381240 0.319660 0.500000 -0.622348
O6    O     O_R   0.618810 0.319640 0.499990 -0.592377
O7    O     O_R   0.439180 0.500040 0.349020 -0.536282
O8    O     O_R   0.676760 0.500010 0.349010 -0.624146
I1    I     I_    0.279333 0.752498 0.317957 -0.369049
Cl1   Cl    Cl    0.937355 0.119595 0.593734 -0.575360
Cl2   Cl    Cl    0.839344 0.744372 0.577641 -0.544096
I2    I     I_    0.936972 0.431505 0.776563 -0.297939
Cl3   Cl    Cl    0.351002 0.389585 0.180385 -0.679411
Cl4   Cl    Cl    0.678358 0.676294 0.784010 -0.496140

loop_
_geom_bond_atom_site_label_1
_geom_bond_atom_site_label_2
_ccdc_geom_bond_type
C20   H4    S    
C28   N1    A    
C31   C33   S    
C29   Cl2   S    
Cu1   O3    S    
C16   C21   A    
C34   H11   S    
C30   N2    A    
C31   O7    A    
C3    C7    A    
C22   H5    S    
C6    I2    S    
C4    C8    A    
C5    C32   A    
C14   Cl1   S    
Cu1   O5    S    
C17   C18   A    
C1    C18   S    
C27   N2    A    
C12   O4    A    
C10   C34   A    
C3    C10   A    
C22   C28   A    
C13   C14   A    
C24   C25   A    
C23   O5    A    
C5    C6    A    
C32   H10   S    
C31   O8    A    
C26   C27   A    
C29   C30   A    
Cu2   N1    S    
C10   C12   S    
C9    C33   A    
Cu2   O6    S    
Cu1   N2    S    
C7    Cl4   S    
Cu1   Cu2   S    
C1    O1    A    
C6    C7    A    
C11   I1    S    
C8    C33   A    
C21   C23   S    
C35   H13   S    
C23   O6    A    
C24   H6    S    
C22   C24   A    
C11   C13   A    
C16   C17   A    
C12   O3    A    
C15   C16   A    
Cu1   O1    S    
C2    C4    A    
C25   H7    S    
C30   H9    S    
C9    H1    S    
Cu2   O2    S    
C20   C21   A    
C15   H3    S    
C8    Cl3   S    
C34   C35   A    
C2    C36   A    
C27   C28   A    
C26   H8    S    
C14   C15   A    
C18   C19   A    
C13   H2    S    
C2    C3    A    
Cu1   O7    S    
C9    C32   A    
Cu2   O8    S    
C25   C26   A    
Cu2   O4    S    
C19   H14   S    
C1    O2    A    
C11   C17   A    
C19   C20   A    
C36   H12   S    
C4    C5    A    
C29   N1    A    
C35   C36   A    
