data_mof_unit_62178.cif
_audit_creation_date              2012-12-10T16:42:44-0500
_audit_creation_method            fapswitch 2.2
_symmetry_space_group_name_H-M    P1
_symmetry_Int_Tables_number       1
_space_group_crystal_system       triclinic
_cell_length_a                    15.910011
_cell_length_b                    18.042795
_cell_length_c                    29.153966
_cell_angle_alpha                 89.847973
_cell_angle_beta                  90.366751
_cell_angle_gamma                 88.787687
_cell_volume                      8366.89130934

loop_
_atom_site_label
_atom_site_type_symbol
_atom_type_description
_atom_site_fract_x
_atom_site_fract_y
_atom_site_fract_z
_atom_type_partial_charge
C1    C     C_R   0.500786 0.390592 0.059223 0.777074
C2    C     C_R   0.499544 0.609303 0.059198 0.775829
C3    C     C_R   0.615191 0.026623 0.669327 0.011042
C4    C     C_R   0.220674 0.005206 0.728582 0.009857
C5    C     C_R   0.706933 0.058952 0.590498 0.014610
C6    C     C_R   0.058690 0.007647 0.690433 0.035983
C7    C     C_1   0.477167 0.933627 0.806944 0.066013
C8    C     C_1   0.472592 0.067725 0.809565 0.053425
C9    C     C_1   0.519039 0.006585 0.741699 0.045438
C10   C     C_1   0.375137 0.002767 0.762811 0.034503
C11   C     C_1   0.485070 0.876824 0.828815 0.086811
C12   C     C_1   0.481028 0.123682 0.831655 0.086711
C13   C     C_1   0.304484 0.003733 0.747498 0.045077
C14   C     C_1   0.563957 0.014001 0.708927 0.043959
C15   C     C_R   0.642556 0.055600 0.275170 -0.020992
C16   C     C_R   0.352651 0.945536 0.275086 -0.022030
C17   C     C_R   0.416758 0.054371 0.311555 -0.207751
C18   C     C_R   0.578822 0.947069 0.312102 -0.211969
C19   C     C_R   0.704512 0.054296 0.310536 0.243435
C20   C     C_R   0.291478 0.946739 0.310424 0.244794
C21   C     C_R   0.353765 0.053742 0.345269 0.185836
C22   C     C_R   0.642451 0.947700 0.345904 0.190357
C23   C     C_R   0.551185 0.068652 0.165177 0.136167
C24   C     C_R   0.442520 0.932141 0.165325 0.136036
C25   C     C_R   0.430289 0.129008 0.203043 0.332808
C26   C     C_R   0.563841 0.871895 0.203904 0.333656
C27   C     C_R   0.535434 0.113189 0.126116 -0.043427
C28   C     C_R   0.457989 0.887645 0.126469 -0.042882
C29   C     C_R   0.429385 0.183029 0.167591 -0.064095
C30   C     C_R   0.564460 0.817880 0.168636 -0.064178
C31   C     C_R   0.498980 0.611739 0.942091 0.827708
C32   C     C_R   0.500444 0.388986 0.941773 0.834015
C33   C     C_3   0.497304 0.000537 0.239295 -0.000556
C34   C     C_R   0.576330 0.000366 0.274112 -0.082838
C35   C     C_R   0.418757 0.000858 0.273876 -0.083154
C36   C     C_R   0.703650 0.001219 0.345321 0.000687
C37   C     C_R   0.292906 0.999905 0.344980 0.004657
C38   C     C_R   0.494750 0.069951 0.204396 -0.034028
C39   C     C_R   0.499406 0.930973 0.204753 -0.033107
C40   C     C_R   0.473917 0.169279 0.127102 -0.128411
C41   C     C_R   0.519706 0.831720 0.127878 -0.128209
C42   C     C_1   0.232778 0.998341 0.381860 0.121797
C43   C     C_1   0.764877 0.002454 0.382082 0.126707
C44   C     C_1   0.183216 0.998446 0.412908 -0.068402
C45   C     C_1   0.815380 0.002036 0.413024 -0.054513
C46   C     C_1   0.450427 0.206775 0.084675 0.056032
C47   C     C_1   0.543326 0.794691 0.085610 0.058236
C48   C     C_1   0.429662 0.235029 0.048722 0.164219
C49   C     C_1   0.564241 0.766895 0.049787 0.166046
C50   C     C_R   0.122779 0.999499 0.449056 0.827421
C51   C     C_R   0.876822 0.000636 0.449084 0.838043
C52   C     C_R   0.552719 0.754971 0.849286 -0.060501
C53   C     C_R   0.433917 0.252362 0.848779 -0.056393
C54   C     C_R   0.427494 0.798955 0.890291 -0.063151
C55   C     C_R   0.553787 0.197655 0.890918 -0.063032
C56   C     C_R   0.893303 0.000395 0.569349 0.779210
C57   C     C_R   0.107169 0.999441 0.569367 0.731912
C58   C     C_R   0.556287 0.690521 0.877464 -0.080243
C59   C     C_R   0.438976 0.317381 0.875753 -0.078445
C60   C     C_R   0.430895 0.734744 0.918334 -0.096083
C61   C     C_R   0.559377 0.262998 0.917656 -0.100656
C62   C     C_R   0.601952 0.986426 0.628917 -0.181201
C63   C     C_R   0.173261 0.940592 0.728178 -0.175755
C64   C     C_R   0.186770 0.071050 0.709840 -0.194235
C65   C     C_R   0.674922 0.082610 0.670255 -0.165988
C66   C     C_R   0.648039 0.002649 0.589526 0.241916
C67   C     C_R   0.092283 0.941949 0.709074 0.236455
C68   C     C_R   0.105754 0.072140 0.690791 0.227181
C69   C     C_R   0.720770 0.098673 0.630810 0.230602
C70   C     C_3   0.461570 0.002167 0.780595 -0.052563
C71   C     C_R   0.488315 0.808967 0.855972 -0.028918
C72   C     C_R   0.490529 0.192354 0.856992 -0.027269
C73   C     C_R   0.495676 0.679981 0.912322 -0.182271
C74   C     C_R   0.500459 0.322515 0.911043 -0.180076
Cu1   Cu    Cu3+1 0.415470 0.500000 0.000080 1.087639
Cu2   Cu    Cu3+1 0.584530 0.500000 0.000080 1.088603
Cu3   Cu    Cu3+1 0.000000 0.072960 0.508900 1.118836
Cu4   Cu    Cu3+1 0.000000 0.927040 0.508900 1.092224
H1    H     H_    0.555413 0.943477 0.627832 0.187562
H2    H     H_    0.199104 0.889436 0.742475 0.200623
H3    H     H_    0.223110 0.121172 0.709895 0.183790
H4    H     H_    0.685004 0.114306 0.701249 0.196870
O1    O     O_R   0.429360 0.416280 0.044700 -0.575017
O2    O     O_R   0.570640 0.583720 0.044700 -0.574431
O3    O     O_R   0.570640 0.416280 0.044700 -0.563771
O4    O     O_R   0.429360 0.583720 0.044700 -0.566258
O5    O     O_R   0.427420 0.583550 0.955440 -0.562922
O6    O     O_R   0.572580 0.416450 0.955440 -0.558231
O7    O     O_R   0.572580 0.583550 0.955440 -0.567800
O8    O     O_R   0.427420 0.416450 0.955440 -0.570577
O9    O     O_R   0.093410 0.059470 0.464300 -0.564243
O10   O     O_R   0.906590 0.940530 0.464300 -0.560569
O11   O     O_R   0.906590 0.059470 0.464300 -0.569853
O12   O     O_R   0.093410 0.940530 0.464300 -0.571054
O13   O     O_R   0.920740 0.061400 0.553530 -0.529019
O14   O     O_R   0.079260 0.938600 0.553530 -0.554188
O15   O     O_R   0.079260 0.061400 0.553530 -0.531269
O16   O     O_R   0.920740 0.938600 0.553530 -0.548748
C75   C     C_2   0.619087 0.630941 0.867827 0.912912
O17   O     O_2   0.597023 0.574174 0.848831 -0.545091
O18   O     O_R   0.702677 0.639090 0.881566 -0.679006
H5    H     H_    0.739326 0.594442 0.873456 0.356949
C76   C     C_2   0.384456 0.382744 0.864622 0.903474
O19   O     O_2   0.415424 0.438132 0.848085 -0.550662
O20   O     O_R   0.298668 0.381783 0.874528 -0.678015
H6    H     H_    0.268505 0.429912 0.865870 0.356154
C77   C     C_2   0.365491 0.725521 0.953824 0.923511
O21   O     O_2   0.291362 0.723562 0.942619 -0.534097
O22   O     O_R   0.388743 0.719894 0.999936 -0.761002
H7    H     H_    0.338672 0.712710 0.020695 0.365648
C78   C     C_2   0.627658 0.268645 0.952271 0.920597
O23   O     O_2   0.701070 0.262441 0.940434 -0.531633
O24   O     O_R   0.607974 0.280200 0.998304 -0.760198
H8    H     H_    0.659955 0.284810 0.018301 0.365176
Br1   Br    Br    0.630533 0.948959 0.534114 -0.397815
Br2   Br    Br    0.027273 0.854360 0.708046 -0.390279
Br3   Br    Br    0.059035 0.161210 0.664953 -0.363709
Br4   Br    Br    0.801614 0.175246 0.631580 -0.355374
C79   C     C_2   0.614617 0.765339 0.811764 0.870942
O25   O     O_2   0.689743 0.755226 0.819030 -0.516058
O26   O     O_R   0.586727 0.787594 0.768167 -0.739986
H9    H     H_    0.634565 0.793485 0.745730 0.353999
C80   C     C_2   0.370856 0.247154 0.810958 0.863191
O27   O     O_2   0.296666 0.261475 0.818080 -0.517887
O28   O     O_R   0.396532 0.224261 0.767352 -0.741393
H10   H     H_    0.348000 0.221656 0.744745 0.344435
C81   C     C_2   0.361088 0.857292 0.897599 0.893172
O29   O     O_2   0.348911 0.882320 0.935990 -0.560365
O30   O     O_R   0.313027 0.883642 0.860434 -0.741467
H11   H     H_    0.270623 0.923542 0.869610 0.353010
C82   C     C_2   0.612184 0.133264 0.899476 0.897280
O31   O     O_2   0.625548 0.111431 0.938656 -0.558896
O32   O     O_R   0.651188 0.097346 0.862605 -0.734121
H12   H     H_    0.688721 0.054160 0.872738 0.356273
Br5   Br    Br    0.789732 0.129883 0.314388 -0.320081
Br6   Br    Br    0.206651 0.870895 0.314562 -0.320745
Br7   Br    Br    0.349871 0.128412 0.393367 -0.359501
Br8   Br    Br    0.646860 0.873411 0.394501 -0.322671
C83   C     C_2   0.583513 0.100621 0.083160 0.977807
O33   O     O_2   0.580396 0.040873 0.063575 -0.503448
O34   O     O_R   0.631759 0.157411 0.065199 -0.736086
H13   H     H_    0.662206 0.141947 0.036205 0.375922
C84   C     C_2   0.409441 0.900081 0.083272 0.976240
O35   O     O_2   0.412013 0.959886 0.063542 -0.505381
O36   O     O_R   0.361443 0.843066 0.065230 -0.735167
H14   H     H_    0.330806 0.858352 0.035996 0.376581
C85   C     C_2   0.377600 0.252501 0.172417 0.922404
O37   O     O_2   0.332089 0.274774 0.141124 -0.561189
O38   O     O_R   0.380882 0.292037 0.213562 -0.670766
H15   H     H_    0.343041 0.337958 0.213148 0.359783
C86   C     C_2   0.616176 0.748340 0.173951 0.922406
O39   O     O_2   0.661239 0.725869 0.142908 -0.562813
O40   O     O_R   0.613313 0.708942 0.215267 -0.670458
H16   H     H_    0.651049 0.662956 0.215189 0.359803
C87   C     C_2   0.650864 0.119431 0.243206 0.918528
O41   O     O_2   0.713023 0.122969 0.218867 -0.476496
O42   O     O_R   0.595141 0.179996 0.244974 -0.711390
H17   H     H_    0.609620 0.220526 0.222384 0.352353
C88   C     C_2   0.343709 0.881729 0.243317 0.918870
O43   O     O_2   0.281060 0.878228 0.218925 -0.476150
O44   O     O_R   0.399417 0.821125 0.245362 -0.711168
H18   H     H_    0.384472 0.780609 0.222889 0.352572
C89   C     C_2   0.477076 0.115496 0.317588 0.991089
O45   O     O_2   0.465639 0.173777 0.297102 -0.414121
O46   O     O_R   0.537546 0.112560 0.352587 -0.694228
H19   H     H_    0.534710 0.065804 0.371749 0.296480
C90   C     C_2   0.518467 0.886092 0.318358 0.989118
O47   O     O_2   0.529256 0.827769 0.298099 -0.415063
O48   O     O_R   0.458759 0.889236 0.353311 -0.694932
H20   H     H_    0.462099 0.936053 0.372251 0.295939
Br9   Br    Br    0.650991 0.005078 0.159646 -0.366508
Br10  Br    Br    0.342564 0.995579 0.159176 -0.365679
Br11  Br    Br    0.322817 0.131737 0.235513 -0.321309
Br12  Br    Br    0.671635 0.869166 0.236807 -0.323349

loop_
_geom_bond_atom_site_label_1
_geom_bond_atom_site_label_2
_ccdc_geom_bond_type
C56   O13   A    
O42   H17   S    
C87   O42   S    
O48   H20   S    
C60   C73   A    
C2    O2    A    
C89   O45   D    
C56   O16   A    
C67   Br2   S    
Cu2   O2    S    
C7    C70   S    
O36   H14   S    
C53   C59   A    
O38   H15   S    
C80   O27   D    
C47   C49   T    
C54   C60   A    
Cu3   Cu4   S    
C7    C11   T    
C4    C63   A    
O46   H19   S    
C64   C68   A    
C89   O46   S    
O30   H11   S    
C19   C36   A    
C16   C35   A    
C32   C74   S    
C25   C38   A    
C11   C71   S    
C26   C39   A    
C80   O28   S    
C45   C51   S    
C19   Br5   S    
C84   O35   D    
C32   O6    A    
C69   Br4   S    
C4    C13   S    
C24   C39   A    
C37   C42   S    
C5    C69   A    
C17   C89   S    
Cu1   O8    S    
C15   C19   A    
C32   O8    A    
C54   C71   A    
C85   O37   D    
Cu4   O14   S    
C31   O7    A    
C57   O14   A    
Cu4   O16   S    
C86   O39   D    
C88   O44   S    
C30   C41   A    
Cu3   O15   S    
C23   C27   A    
Cu2   O6    S    
C15   C34   A    
C15   C87   S    
C55   C72   A    
C78   O24   S    
C8    C12   T    
Cu2   O7    S    
C6    C68   A    
C12   C72   S    
C16   C88   S    
C25   C29   A    
C77   O22   S    
C3    C65   A    
C42   C44   T    
O44   H18   S    
C46   C48   T    
C63   H2    S    
C79   O26   S    
C1    O3    A    
C63   C67   A    
C31   O5    A    
C66   Br1   S    
C62   C66   A    
O18   H5    S    
C62   H1    S    
C9    C70   S    
C90   O48   S    
C53   C80   S    
C30   C86   S    
C90   O47   D    
C9    C14   T    
C50   O12   A    
Cu4   O10   S    
Cu3   O13   S    
C27   C83   S    
C21   Br7   S    
C40   C46   S    
Cu1   Cu2   S    
C81   O30   S    
C68   Br3   S    
C43   C45   T    
Cu1   O4    S    
C88   O43   D    
C27   C40   A    
C16   C20   A    
C57   O15   A    
C33   C34   S    
C41   C47   S    
C21   C37   A    
C76   O20   S    
C28   C84   S    
C33   C39   S    
C20   Br6   S    
C79   O25   D    
C18   C34   A    
C59   C74   A    
O26   H9    S    
C60   C77   S    
C52   C58   A    
C51   O11   A    
C51   O10   A    
C10   C70   S    
Cu1   O5    S    
C6    C67   A    
C75   O18   S    
C26   C30   A    
C55   C82   S    
O32   H12   S    
C77   O21   D    
C82   O31   D    
C61   C78   S    
C87   O41   D    
O24   H8    S    
C54   C81   S    
C3    C62   A    
C44   C50   S    
C84   O36   S    
C22   Br8   S    
Cu3   O9    S    
C78   O23   D    
C85   O38   S    
C18   C22   A    
C58   C75   S    
C24   C28   A    
C5    C66   A    
C82   O32   S    
C10   C13   T    
C29   C85   S    
C83   O33   D    
C3    C14   S    
C61   C74   A    
C1    O1    A    
C23   C38   A    
C22   C36   A    
O20   H6    S    
C4    C64   A    
C8    C70   S    
C33   C38   S    
C75   O17   D    
C59   C76   S    
C52   C71   A    
O34   H13   S    
C20   C37   A    
C83   O34   S    
Cu1   O1    S    
C65   H4    S    
O28   H10   S    
Cu4   O12   S    
C65   C69   A    
C55   C61   A    
C29   C40   A    
Cu3   O11   S    
C33   C35   S    
C2    O4    A    
C86   O40   S    
C24   Br10  S    
C17   C21   A    
C64   H3    S    
C31   C73   S    
C52   C79   S    
C25   Br11  S    
C50   O9    A    
C18   C90   S    
C23   Br9   S    
C76   O19   D    
C26   Br12  S    
C36   C43   S    
C17   C35   A    
O40   H16   S    
O22   H7    S    
C53   C72   A    
Cu2   O3    S    
C28   C41   A    
C81   O29   D    
C58   C73   A    
