data_mof_unit_27261.cif
_audit_creation_date              2012-12-11T14:41:00-0500
_audit_creation_method            fapswitch 2.2
_symmetry_space_group_name_H-M    P1
_symmetry_Int_Tables_number       1
_space_group_crystal_system       triclinic
_cell_length_a                    6.925633
_cell_length_b                    17.766339
_cell_length_c                    18.942895
_cell_angle_alpha                 89.989817
_cell_angle_beta                  90.016083
_cell_angle_gamma                 92.454301
_cell_volume                      2328.65517772

loop_
_atom_site_label
_atom_site_type_symbol
_atom_type_description
_atom_site_fract_x
_atom_site_fract_y
_atom_site_fract_z
_atom_type_partial_charge
O1    O     O_R   0.377350 0.828520 0.186660 -0.530750
O2    O     O_R   0.622650 0.171480 0.813340 -0.530750
O3    O     O_R   0.122650 0.171480 0.686660 -0.527832
O4    O     O_R   0.877350 0.828520 0.313340 -0.527832
O5    O     O_R   0.877350 0.671480 0.313340 -0.529491
O6    O     O_R   0.122650 0.328520 0.686660 -0.529491
O7    O     O_R   0.622650 0.328520 0.813340 -0.528619
O8    O     O_R   0.377350 0.671480 0.186660 -0.528619
O9    O     O_R   0.707090 0.671930 0.178410 -0.533126
O10   O     O_R   0.292910 0.328070 0.821590 -0.533126
O11   O     O_R   0.792910 0.328070 0.678410 -0.533571
O12   O     O_R   0.207090 0.671930 0.321590 -0.533571
O13   O     O_R   0.207090 0.828070 0.321590 -0.533269
O14   O     O_R   0.792910 0.171930 0.678410 -0.533269
O15   O     O_R   0.292910 0.171930 0.821590 -0.526997
O16   O     O_R   0.707090 0.828070 0.178410 -0.526997
C1    C     C_R   0.534544 0.644533 0.162711 0.805808
C2    C     C_R   0.465456 0.355467 0.837289 0.805807
C3    C     C_R   0.965426 0.355473 0.662719 0.803947
C4    C     C_R   0.034574 0.644527 0.337281 0.803947
C5    C     C_R   0.042595 0.855463 0.337697 0.793358
C6    C     C_R   0.957405 0.144537 0.662303 0.793358
C7    C     C_R   0.457449 0.144517 0.837699 0.799879
C8    C     C_R   0.542551 0.855483 0.162301 0.799878
O17   O     O_3   0.543850 0.750000 0.294270 -0.375033
O18   O     O_3   0.456150 0.250000 0.705730 -0.375034
O19   O     O_3   0.956150 0.250000 0.794270 -0.371551
O20   O     O_3   0.043850 0.750000 0.205730 -0.371551
V1    V     V_3+5 0.818700 0.750000 0.241790 1.588318
V2    V     V_3+5 0.181300 0.250000 0.758210 1.588317
V3    V     V_3+5 0.681300 0.250000 0.741790 1.580519
V4    V     V_3+5 0.318700 0.750000 0.258210 1.580520
C9    C     C_R   0.990620 0.418884 0.611622 -0.164608
C10   C     C_R   0.009380 0.581116 0.388378 -0.164607
C11   C     C_R   0.509286 0.581133 0.111602 -0.164552
C12   C     C_R   0.490714 0.418867 0.888398 -0.164552
C13   C     C_R   0.451670 0.081910 0.890538 -0.169570
C14   C     C_R   0.548330 0.918090 0.109462 -0.169569
C15   C     C_R   0.048492 0.917987 0.390575 -0.174239
C16   C     C_R   0.951508 0.082013 0.609425 -0.174239
C17   C     C_R   0.826319 0.468158 0.429721 0.145148
C18   C     C_R   0.173679 0.531842 0.570279 0.145146
C19   C     C_R   0.673881 0.531787 0.929793 0.145391
C20   C     C_R   0.326119 0.468213 0.070207 0.145389
C21   C     C_R   0.718557 0.026741 0.053428 0.142441
C22   C     C_R   0.281443 0.973259 0.946572 0.142442
C23   C     C_R   0.780558 0.973717 0.553591 0.159527
C24   C     C_R   0.219443 0.026283 0.446409 0.159527
C25   C     C_R   0.867922 0.522553 0.376842 0.364959
C26   C     C_R   0.132076 0.477447 0.623158 0.364960
C27   C     C_R   0.632287 0.477400 0.876911 0.364864
C28   C     C_R   0.367713 0.522600 0.123089 0.364865
C29   C     C_R   0.702780 0.973083 0.108501 0.356971
C30   C     C_R   0.297220 0.026917 0.891499 0.356972
C31   C     C_R   0.796795 0.027280 0.608276 0.404641
C32   C     C_R   0.203206 0.972720 0.391724 0.404640
C33   C     C_R   0.112893 0.582632 0.452003 -0.243162
C34   C     C_R   0.887107 0.417368 0.547997 -0.243161
C35   C     C_R   0.387071 0.417388 0.951978 -0.240344
C36   C     C_R   0.612929 0.582612 0.048022 -0.240344
C37   C     C_R   0.407308 0.919895 0.056324 -0.212848
C38   C     C_R   0.592693 0.080105 0.943676 -0.212847
C39   C     C_R   0.092758 0.080063 0.556468 -0.233100
C40   C     C_R   0.907242 0.919936 0.443532 -0.233099
C41   C     C_R   0.072770 0.528676 0.505509 0.054405
C42   C     C_R   0.927229 0.471323 0.494491 0.054405
C43   C     C_R   0.427170 0.471343 0.005484 0.054181
C44   C     C_R   0.572829 0.528657 0.994516 0.054181
C45   C     C_R   0.421154 0.973269 0.000882 0.049415
C46   C     C_R   0.578846 0.026731 0.999118 0.049415
C47   C     C_R   0.079185 0.026703 0.500918 0.021480
C48   C     C_R   0.920815 0.973297 0.499082 0.021481
H1    H     H_    0.779802 0.372090 0.539544 0.176331
H2    H     H_    0.220198 0.627910 0.460456 0.176331
H3    H     H_    0.720337 0.627858 0.039602 0.178035
H4    H     H_    0.279662 0.372142 0.960398 0.178035
H5    H     H_    0.710305 0.122305 0.942698 0.183792
H6    H     H_    0.289695 0.877695 0.057302 0.183792
H7    H     H_    0.789958 0.877738 0.442007 0.142415
H8    H     H_    0.210042 0.122262 0.557993 0.142414
Cl1   Cl    Cl    0.255787 0.485069 0.704827 -0.589285
Cl2   Cl    Cl    0.744210 0.514932 0.295173 -0.589285
Cl3   Cl    Cl    0.243868 0.514990 0.204708 -0.589057
Cl4   Cl    Cl    0.756133 0.485010 0.795292 -0.589056
Cl5   Cl    Cl    0.124273 0.022091 0.822533 -0.594761
Cl6   Cl    Cl    0.875726 0.977909 0.177467 -0.594761
Cl7   Cl    Cl    0.377439 0.977709 0.323290 -0.549081
Cl8   Cl    Cl    0.622562 0.022291 0.676710 -0.549081
N1    N     N_3   0.680187 0.409715 0.418085 -0.655071
H9    H     H_    0.549240 0.434786 0.407773 0.276953
H10   H     H_    0.718499 0.378572 0.373808 0.285761
N2    N     N_3   0.319806 0.590287 0.581916 -0.655073
H11   H     H_    0.281489 0.621430 0.626192 0.285760
H12   H     H_    0.450754 0.565217 0.592229 0.276955
N3    N     N_3   0.820141 0.590190 0.918206 -0.652883
H13   H     H_    0.781980 0.621345 0.873900 0.285483
H14   H     H_    0.951057 0.565079 0.907965 0.277183
N4    N     N_3   0.179860 0.409810 0.081794 -0.652882
H15   H     H_    0.048945 0.434920 0.092036 0.277184
H16   H     H_    0.218024 0.378654 0.126100 0.285482
N5    N     N_3   0.877279 0.081440 0.052251 -0.658076
H17   H     H_    0.873265 0.113569 0.098411 0.285775
H18   H     H_    0.006383 0.053026 0.051428 0.268843
N6    N     N_3   0.122721 0.918560 0.947749 -0.658076
H19   H     H_    0.126734 0.886432 0.901588 0.285775
H20   H     H_    0.993617 0.946974 0.948573 0.268842
N7    N     N_3   0.619116 0.920262 0.554573 -0.590748
H21   H     H_    0.539169 0.926161 0.508225 0.235017
H22   H     H_    0.671005 0.865917 0.556769 0.240784
N8    N     N_3   0.380887 0.079737 0.445428 -0.590748
H23   H     H_    0.460832 0.073837 0.491776 0.235017
H24   H     H_    0.328999 0.134082 0.443231 0.240784

loop_
_geom_bond_atom_site_label_1
_geom_bond_atom_site_label_2
_ccdc_geom_bond_type
C33   H2    S    
C17   N1    S    
C9    C34   A    
O3    V2    S    
C38   H5    S    
C24   N8    S    
N3    H13   S    
O14   V3    S    
C12   C35   A    
N6    H20   S    
C13   C38   A    
O5    C4    A    
C15   C40   A    
O11   C3    A    
N5    H17   S    
C16   C39   A    
O20   V1    S    
N4    H15   S    
C38   C46   A    
C31   Cl8   S    
N8    H23   S    
C22   C45   A    
O13   V4    S    
C35   C43   A    
C20   N4    S    
C34   C42   A    
C19   C44   A    
C18   C41   A    
C19   N3    S    
N7    H21   S    
C29   Cl6   S    
N1    H10   S    
O4    V1    S    
O9    V1    S    
C14   C37   A    
C4    C10   S    
C20   C28   A    
O17   V4    S    
O15   C7    A    
O11   V3    S    
O18   V3    S    
O16   C8    A    
O12   V4    S    
O19   V2    S    
N7    H22   S    
C22   C30   A    
C17   C25   A    
N6    H19   S    
O5    V1    S    
C39   H8    S    
O17   V1    S    
O7    V3    S    
O19   V3    S    
C43   C44   A    
O8    V4    S    
O20   V4    S    
C3    C9    S    
C32   Cl7   S    
C9    C26   A    
C7    C13   S    
C22   N6    S    
O1    V4    S    
C11   C36   A    
C25   Cl2   S    
C28   Cl3   S    
O6    C3    A    
C10   C33   A    
O10   V2    S    
C8    C14   S    
C15   C32   A    
C5    C15   S    
C37   H6    S    
O7    C2    A    
C6    C16   S    
O12   C4    A    
N2    H12   S    
O13   C5    A    
C12   C27   A    
C21   N5    S    
C18   C26   A    
C13   C30   A    
O9    C1    A    
O6    V2    S    
C39   C47   A    
O18   V2    S    
C23   N7    S    
C40   H7    S    
C24   C47   A    
C11   C28   A    
O15   V2    S    
C23   C31   A    
C37   C45   A    
C24   C32   A    
C10   C25   A    
C21   C46   A    
C33   C41   A    
C20   C43   A    
C16   C31   A    
C30   Cl5   S    
N3    H14   S    
C17   C42   A    
C34   H1    S    
C36   H3    S    
N4    H16   S    
O8    C1    A    
O14   C6    A    
O16   V1    S    
C47   C48   A    
O4    C5    A    
C19   C27   A    
C14   C29   A    
O10   C2    A    
C35   H4    S    
N2    H11   S    
C18   N2    S    
C40   C48   A    
C45   C46   A    
N8    H24   S    
C23   C48   A    
C21   C29   A    
C36   C44   A    
O1    C8    A    
N5    H18   S    
C41   C42   A    
O2    C7    A    
O2    V3    S    
O3    C6    A    
C1    C11   S    
N1    H9    S    
C2    C12   S    
C27   Cl4   S    
C26   Cl1   S    
