data_mof_unit_22179.cif
_audit_creation_date              2013-03-05T16:37:17-0500
_audit_creation_method            fapswitch 2.2
_symmetry_space_group_name_H-M    P1
_symmetry_Int_Tables_number       1
_space_group_crystal_system       triclinic
_cell_length_a                    16.065198
_cell_length_b                    14.71731
_cell_length_c                    10.733229
_cell_angle_alpha                 90.001303
_cell_angle_beta                  90.207179
_cell_angle_gamma                 90.00078
_cell_volume                      2537.71049819

loop_
_atom_site_label
_atom_site_type_symbol
_atom_site_description
_atom_site_fract_x
_atom_site_fract_y
_atom_site_fract_z
_atom_type_partial_charge
O1    O     O_R   0.380310 0.575320 0.500020 -0.536874
O2    O     O_R   0.619690 0.575320 0.499980 -0.536957
O3    O     O_R   0.380310 0.424640 0.499960 -0.590816
O4    O     O_R   0.619690 0.424640 0.500040 -0.590799
C1    C     C_R   0.340787 0.499759 0.499430 0.846779
C2    C     C_R   0.659213 0.499761 0.500570 0.846785
O5    O     O_R   0.500000 0.575360 0.319640 -0.560300
O6    O     O_R   0.500000 0.575360 0.680360 -0.560285
O7    O     O_R   0.500000 0.424670 0.319580 -0.583087
O8    O     O_R   0.500000 0.424670 0.680420 -0.583094
C3    C     C_R   0.511412 0.500142 0.261896 0.837488
C4    C     C_R   0.488588 0.500146 0.738104 0.837477
Cu1   Cu    Cu3+1 0.500000 0.589220 0.500000 1.081297
Cu2   Cu    Cu3+1 0.500000 0.410780 0.500000 0.983321
C5    C     C_R   0.554361 0.665838 0.103413 0.221331
C6    C     C_R   0.445641 0.665868 0.896672 0.221440
C7    C     C_R   0.529973 0.748834 0.048119 0.152148
C8    C     C_R   0.469928 0.748857 0.952139 0.151277
C9    C     C_R   0.480666 0.583375 0.941410 -0.119919
C10   C     C_R   0.519356 0.583361 0.058609 -0.119871
C11   C     C_R   0.522393 0.500436 0.125439 -0.072526
C12   C     C_R   0.477612 0.500450 0.874563 -0.072596
C13   C     C_R   0.514713 0.417311 0.061397 -0.064653
C14   C     C_R   0.485276 0.417318 0.938595 -0.064645
H1    H     H_    0.076170 0.637403 0.500295 0.163548
H2    H     H_    0.923839 0.637407 0.499672 0.163543
C15   C     C_R   0.956672 0.573072 0.499916 -0.169313
C16   C     C_R   0.043332 0.573069 0.500065 -0.169296
C17   C     C_R   0.912563 0.491211 0.501212 0.081634
C18   C     C_R   0.087435 0.491205 0.498785 0.081637
C19   C     C_R   0.955824 0.407664 0.502559 -0.034445
C20   C     C_R   0.044167 0.407660 0.497455 -0.034442
C21   C     C_1   0.823031 0.494975 0.501786 -0.038045
C22   C     C_1   0.176968 0.494966 0.498212 -0.038051
C23   C     C_1   0.251797 0.498250 0.498632 -0.132530
C24   C     C_1   0.748202 0.498256 0.501367 -0.132496
C25   C     C_R   0.559439 0.951533 0.568831 -0.140180
C26   C     C_R   0.440519 0.951537 0.431192 -0.138797
H3    H     H_    0.605644 0.913849 0.621443 0.143968
H4    H     H_    0.394309 0.913857 0.378579 0.144170
C27   C     C_R   0.499982 0.902868 0.500003 0.034176
C28   C     C_R   0.439608 0.047884 0.429017 0.010396
C29   C     C_R   0.560356 0.047878 0.571018 0.010627
C30   C     C_R   0.499988 0.097173 0.500014 -0.046547
C31   C     C_1   0.499991 0.802812 0.499997 0.274102
C32   C     C_1   0.499996 0.197358 0.500007 0.119815
N1    N     N_1   0.500000 0.276710 0.500000 -0.150998
N2    N     N_1   0.500000 0.723290 0.500000 -0.116863
C33   C     C_R   0.557153 0.335220 0.110716 0.125840
C34   C     C_R   0.644505 0.335044 0.117109 -0.132253
C35   C     C_R   0.687244 0.257188 0.154827 -0.172531
C36   C     C_R   0.643199 0.179002 0.187299 -0.130134
C37   C     C_R   0.556391 0.178749 0.181981 -0.106428
C38   C     C_R   0.513064 0.256787 0.144959 -0.105151
H5    H     H_    0.679556 0.394735 0.090156 0.151303
H6    H     H_    0.754546 0.257232 0.156663 0.122560
H7    H     H_    0.676238 0.118216 0.215258 0.145941
H8    H     H_    0.523270 0.117417 0.205223 0.168130
H9    H     H_    0.445808 0.255727 0.140487 0.152614
C39   C     C_R   0.442818 0.335236 0.889271 0.125835
C40   C     C_R   0.355466 0.335072 0.882906 -0.132299
C41   C     C_R   0.312711 0.257218 0.845206 -0.172493
C42   C     C_R   0.356742 0.179025 0.812723 -0.130168
C43   C     C_R   0.443551 0.178763 0.818010 -0.106439
C44   C     C_R   0.486892 0.256797 0.855016 -0.105131
H10   H     H_    0.320426 0.394768 0.909871 0.151275
H11   H     H_    0.245408 0.257269 0.843394 0.122564
H12   H     H_    0.323691 0.118240 0.784780 0.145876
H13   H     H_    0.476661 0.117426 0.794758 0.168099
H14   H     H_    0.554149 0.255729 0.859471 0.152617
N3    N     N_R   0.619759 0.664424 0.195766 0.166766
O9    O     O_R   0.675419 0.600164 0.194622 -0.393590
O10   O     O_R   0.624190 0.726877 0.281332 -0.310625
N4    N     N_R   0.380311 0.664470 0.804223 0.167082
O11   O     O_R   0.324597 0.600264 0.805326 -0.393390
O12   O     O_R   0.376047 0.726844 0.718536 -0.311033
N5    N     N_R   0.565331 0.832956 0.089987 0.188432
O13   O     O_R   0.644781 0.847666 0.078326 -0.318723
O14   O     O_R   0.518017 0.896140 0.136182 -0.369334
N6    N     N_R   0.434346 0.832988 0.910636 0.187378
O15   O     O_R   0.354723 0.847022 0.921120 -0.318222
O16   O     O_R   0.481633 0.897080 0.866812 -0.369036
C45   C     C_R   0.910746 0.319686 0.511792 0.111185
C46   C     C_R   0.865275 0.286270 0.409679 -0.154642
C47   C     C_R   0.837336 0.196200 0.409275 -0.154251
C48   C     C_R   0.854218 0.139285 0.510406 -0.087716
C49   C     C_R   0.897502 0.172782 0.613668 -0.113401
C50   C     C_R   0.924909 0.262863 0.615091 -0.146134
H15   H     H_    0.855056 0.328440 0.328374 0.130452
H16   H     H_    0.804256 0.169544 0.329569 0.127825
H17   H     H_    0.833035 0.069480 0.509250 0.139817
H18   H     H_    0.910061 0.128882 0.692406 0.137012
H19   H     H_    0.960341 0.287296 0.694321 0.126086
C51   C     C_R   0.089236 0.319677 0.488241 0.111159
C52   C     C_R   0.134696 0.286268 0.590367 -0.154659
C53   C     C_R   0.162617 0.196193 0.590795 -0.154261
C54   C     C_R   0.145731 0.139266 0.489673 -0.087712
C55   C     C_R   0.102459 0.172756 0.386399 -0.113354
C56   C     C_R   0.075068 0.262842 0.384954 -0.146147
H20   H     H_    0.144918 0.328449 0.671664 0.130453
H21   H     H_    0.195685 0.169542 0.670512 0.127814
H22   H     H_    0.166900 0.069456 0.490849 0.139787
H23   H     H_    0.089894 0.128846 0.307670 0.137006
H24   H     H_    0.039642 0.287269 0.305716 0.126083
C57   C     C_R   0.622159 0.094918 0.653902 0.050986
C58   C     C_R   0.664433 0.173883 0.615188 -0.112414
C59   C     C_R   0.713215 0.223430 0.699202 -0.108539
C60   C     C_R   0.725288 0.191723 0.820425 -0.158348
C61   C     C_R   0.687880 0.110773 0.858180 -0.110986
C62   C     C_R   0.636551 0.062770 0.775870 -0.154569
H25   H     H_    0.659745 0.197819 0.520130 0.144117
H26   H     H_    0.742974 0.285683 0.669373 0.150619
H27   H     H_    0.764018 0.229573 0.884769 0.132961
H28   H     H_    0.697475 0.085893 0.952007 0.164599
H29   H     H_    0.605934 0.002145 0.809220 0.198384
C63   C     C_R   0.377791 0.094939 0.346174 0.050942
C64   C     C_R   0.335530 0.173898 0.384943 -0.112419
C65   C     C_R   0.286747 0.223475 0.300967 -0.108401
C66   C     C_R   0.274655 0.191802 0.179730 -0.158299
C67   C     C_R   0.312044 0.110854 0.141924 -0.111199
C68   C     C_R   0.363377 0.062823 0.224192 -0.154546
H30   H     H_    0.340235 0.197810 0.480013 0.144092
H31   H     H_    0.257003 0.285725 0.330839 0.150609
H32   H     H_    0.235926 0.229675 0.115416 0.132950
H33   H     H_    0.302435 0.086001 0.048085 0.164569
H34   H     H_    0.393983 0.002207 0.190793 0.198622

loop_
_geom_bond_atom_site_label_1
_geom_bond_atom_site_label_2
_geom_bond_distance
_ccdc_geom_bond_type
C20   C51   1.487027 S    
C49   C50   1.397013 A    
O6    Cu1   1.946566 S    
C4    C12   1.475862 S    
C15   C17   1.397807 A    
C59   H26   1.082397 S    
C52   C53   1.399500 A    
O7    Cu2   1.947255 S    
C54   C55   1.396194 A    
C8    N6    1.434047 S    
C66   H32   1.082243 S    
C60   C61   1.395168 A    
H1    C16   1.083857 S    
O5    C3    1.282182 A    
H2    C15   1.083857 S    
N4    O12   1.301078 A    
C41   H11   1.081341 S    
C25   C27   1.402121 A    
O1    C1    1.280550 A    
C26   H4    1.083731 S    
C57   C62   1.410303 A    
C26   C28   1.418232 A    
C48   H17   1.082304 S    
C47   C48   1.396907 A    
C13   C33   1.483975 S    
C58   C59   1.397827 A    
C33   C38   1.403965 A    
C17   C21   1.439460 S    
C21   C24   1.203105 T    
C19   C45   1.487033 S    
C63   C64   1.409442 A    
C22   C23   1.203108 T    
C29   C57   1.500023 S    
O2    Cu1   1.933697 S    
C65   C66   1.395156 A    
C32   N1    1.167851 T    
C40   H10   1.083376 S    
C19   C20   1.420509 A    
C59   C60   1.395158 A    
C54   H22   1.082304 S    
C14   C39   1.483970 S    
C38   H9    1.081490 S    
C40   C41   1.395098 A    
C45   C50   1.406637 A    
C53   H21   1.079305 S    
C17   C19   1.412466 A    
O2    C2    1.280544 A    
C28   C30   1.429129 A    
C30   C32   1.474449 S    
C34   C35   1.395096 A    
C58   H25   1.081759 S    
N5    O14   1.300399 A    
C5    C10   1.420882 A    
C47   H16   1.079307 S    
N4    O11   1.301622 A    
C18   C22   1.439466 S    
C35   C36   1.395717 A    
C9    C12   1.416461 A    
C46   C47   1.399501 A    
C26   C27   1.402157 A    
N6    O16   1.300254 A    
O8    Cu2   1.947245 S    
N3    O10   1.301089 A    
C50   H19   1.083036 S    
C67   H33   1.082089 S    
N5    O13   1.301102 A    
C3    C11   1.475860 S    
C68   H34   1.080457 S    
C39   C40   1.404744 A    
C60   H27   1.082241 S    
C25   C29   1.418211 A    
C64   H30   1.081764 S    
C41   C42   1.395720 A    
C45   C46   1.403889 A    
O6    C4    1.282153 A    
C53   C54   1.396907 A    
C7    N5    1.433695 S    
C7    C8    1.408757 A    
C43   H13   1.077532 S    
C66   C67   1.395163 A    
O7    C3    1.285120 A    
O3    Cu2   1.933634 S    
O8    C4    1.285158 A    
C61   H28   1.082086 S    
C28   C63   1.500045 S    
C39   C44   1.403965 A    
C55   C56   1.397015 A    
C11   C13   1.408443 A    
C29   C30   1.429124 A    
C12   C14   1.408486 A    
O4    C2    1.274930 A    
O1    Cu1   1.933693 S    
C46   H15   1.082897 S    
C49   H18   1.082202 S    
C36   C37   1.395556 A    
C48   C49   1.396194 A    
C31   N2    1.170346 T    
C5    C7    1.412833 A    
C42   H12   1.082120 S    
C52   H20   1.082897 S    
C35   H6    1.081338 S    
N6    O15   1.301016 A    
O3    C1    1.274928 A    
Cu1   N2    1.973151 S    
C37   H8    1.077532 S    
C37   C38   1.399823 A    
Cu2   N1    1.973151 S    
C6    N4    1.441891 S    
C5    N3    1.441972 S    
C57   C58   1.409437 A    
C34   H5    1.083374 S    
C43   C44   1.399818 A    
C9    C10   1.401091 A    
C16   C18   1.397808 A    
N3    O9    1.301624 A    
C25   H3    1.083732 S    
C64   C65   1.397826 A    
C18   C20   1.412473 A    
C51   C56   1.406640 A    
C6    C9    1.421003 A    
C1    C23   1.429796 S    
C2    C24   1.429786 S    
C56   H24   1.083036 S    
C65   H31   1.082396 S    
O4    Cu2   1.933628 S    
C51   C52   1.403886 A    
C36   H7    1.082120 S    
C13   C14   1.398724 A    
C42   C43   1.395553 A    
O5    Cu1   1.946559 S    
C10   C11   1.416380 A    
C6    C8    1.413036 A    
C33   C34   1.404747 A    
C61   C62   1.397945 A    
C15   C16   1.392212 A    
C27   C31   1.472564 S    
C67   C68   1.397948 A    
C63   C68   1.410306 A    
C44   H14   1.081488 S    
Cu1   Cu2   2.626155 S    
C62   H29   1.080483 S    
C55   H23   1.082200 S    
