data_mof_unit_10785.cif
_audit_creation_date              2012-12-11T19:38:32-0500
_audit_creation_method            fapswitch 2.2
_symmetry_space_group_name_H-M    P1
_symmetry_Int_Tables_number       1
_space_group_crystal_system       triclinic
_cell_length_a                    8.190076
_cell_length_b                    15.067673
_cell_length_c                    22.87186
_cell_angle_alpha                 98.634865
_cell_angle_beta                  89.234301
_cell_angle_gamma                 99.035277
_cell_volume                      2755.74214481

loop_
_atom_site_label
_atom_site_type_symbol
_atom_type_description
_atom_site_fract_x
_atom_site_fract_y
_atom_site_fract_z
_atom_type_partial_charge
Ba1   Ba    Ba6+2 0.856850 0.543240 0.473390 1.648240
Ba2   Ba    Ba6+2 0.332990 0.456830 0.526620 1.641975
C1    C     C_3   0.712074 0.876873 0.329713 -0.361297
C2    C     C_R   0.108910 0.565630 0.940737 -0.024088
C3    C     C_R   0.064218 0.560077 0.880445 0.582761
C4    C     C_3   0.219332 0.782974 0.319092 0.292056
C5    C     C_R   0.952246 0.402338 0.876866 0.564747
C6    C     C_R   0.997849 0.404642 0.937129 -0.040727
C7    C     C_R   0.076121 0.487705 0.969101 -0.050926
C8    C     C_R   0.185197 0.648038 0.973519 -0.082457
C9    C     C_R   0.227756 0.653422 0.033083 -0.076508
C10   C     C_R   0.196675 0.576447 0.062031 -0.021938
C11   C     C_R   0.121272 0.493302 0.029883 -0.050633
C12   C     C_3   0.681180 0.783261 0.348793 0.412938
C13   C     C_R   0.968026 0.326906 0.966904 -0.055004
C14   C     C_R   0.015041 0.333432 0.026261 -0.104879
C15   C     C_R   0.091235 0.415872 0.058405 -0.025572
C16   C     C_3   0.172848 0.794418 0.256913 -0.293266
C17   C     C_R   0.138808 0.422010 0.118469 0.580612
C18   C     C_R   0.238944 0.581129 0.122453 0.585196
C19   C     C_2   0.790320 0.430802 0.765433 -0.109476
C20   C     C_3   0.757913 0.409943 0.699683 -0.049669
C21   C     C_1   0.007116 0.517000 0.686272 0.036312
C22   C     C_2   0.058373 0.514898 0.741512 -0.112856
C23   C     C_3   0.475462 0.325600 0.345125 0.267778
C24   C     C_2   0.941377 0.473810 0.785942 0.192154
C25   C     C_R   0.417241 0.551137 0.233083 -0.110951
C26   C     C_R   0.460651 0.558822 0.293006 -0.035555
C27   C     C_R   0.189652 0.480502 0.314031 0.040302
C28   C     C_3   0.205048 0.747433 0.613490 0.275112
C29   C     C_R   0.143938 0.473757 0.254021 -0.077684
C30   C     C_R   0.256655 0.510194 0.212722 0.214799
C31   C     C_2   0.858459 0.477668 0.666364 -0.274388
C32   C     C_R   0.845455 0.169006 0.539719 -0.008505
C33   C     C_R   0.780129 0.075391 0.533843 -0.038302
C34   C     C_3   0.464530 0.304518 0.277334 -0.153349
C35   C     C_R   0.648014 0.886974 0.519862 -0.046275
C36   C     C_R   0.789320 0.923078 0.555113 -0.032465
C37   C     C_R   0.855128 0.014972 0.561262 -0.087986
C38   C     C_R   0.581739 0.792949 0.512090 0.055527
C39   C     C_R   0.434827 0.762382 0.479687 -0.289336
C40   C     C_3   0.221401 0.847550 0.643099 -0.135395
C41   C     C_R   0.614674 0.195224 0.482582 0.021514
C42   C     C_R   0.551576 0.101779 0.473698 -0.027726
C43   C     C_R   0.633363 0.041565 0.500131 0.018449
C44   C     C_R   0.408455 0.067040 0.439443 -0.042074
C45   C     C_3   0.058755 0.260851 0.682690 0.320363
C46   C     C_R   0.343191 0.975625 0.433077 -0.080602
C47   C     C_R   0.420670 0.914646 0.459375 -0.013578
C48   C     C_R   0.568663 0.947374 0.492445 0.017346
C49   C     C_R   0.350193 0.822640 0.455691 -0.024554
C50   C     C_R   0.756892 0.227932 0.516830 -0.300771
C51   C     C_3   0.966123 0.263424 0.397585 0.305047
C52   C     C_3   0.942189 0.160687 0.379758 -0.379120
C53   C     C_3   0.702987 0.675814 0.658507 0.280716
C54   C     C_3   0.666453 0.708520 0.723404 -0.226501
C55   C     C_1   0.224062 0.908393 0.598556 0.191956
C56   C     C_3   0.077166 0.232594 0.743245 -0.242285
C57   C     C_3   0.080214 0.862639 0.687469 -0.201757
C58   C     C_3   0.095789 0.960255 0.719526 -0.435115
C59   C     C_3   0.723025 0.649454 0.765315 -0.281272
C60   C     C_3   0.680503 0.681854 0.829296 -0.350928
C61   C     C_1   0.333516 0.226637 0.259117 0.360440
C62   C     C_3   0.632183 0.286795 0.250397 -0.197250
C63   C     C_3   0.635199 0.286082 0.183470 -0.413222
C64   C     C_1   0.932179 0.168311 0.756366 0.344365
C65   C     C_1   0.890628 0.238224 0.938545 0.358414
C66   C     C_3   0.514375 0.212529 0.653095 0.360401
C67   C     C_3   0.460804 0.119250 0.670877 -0.357512
C68   C     C_R   0.345670 0.525482 0.333020 -0.295514
H1    H     H_    0.752394 0.786336 0.390235 0.087660
H2    H     H_    0.673895 0.928024 0.365206 0.060944
H3    H     H_    0.730658 0.779494 0.736073 0.123617
H4    H     H_    0.531066 0.708708 0.728059 0.140069
H5    H     H_    0.547280 0.765687 0.357438 -0.123014
H6    H     H_    0.639621 0.876434 0.288943 0.114716
H7    H     H_    0.354283 0.341028 0.362415 0.000602
H8    H     H_    0.570052 0.386854 0.357557 0.051409
H9    H     H_    0.429319 0.364411 0.260727 0.032619
H10   H     H_    0.845569 0.896436 0.320941 0.143768
H11   H     H_    0.282864 0.793145 0.228185 0.127171
H12   H     H_    0.341214 0.865216 0.667667 0.096231
H13   H     H_    0.147695 0.323909 0.680245 0.098425
H14   H     H_    0.931541 0.275111 0.677209 -0.065921
H15   H     H_    0.092116 0.293708 0.777354 0.098432
H16   H     H_    0.189154 0.200098 0.744993 0.119550
H17   H     H_    0.651626 0.226511 0.655248 -0.062425
H18   H     H_    0.472181 0.210376 0.606828 0.073456
H19   H     H_    0.522527 0.068147 0.642459 0.077867
H20   H     H_    0.325314 0.099620 0.665233 0.149772
H21   H     H_    0.249308 0.713222 0.318176 0.012043
H22   H     H_    0.494777 0.119997 0.717790 0.136789
H23   H     H_    0.847662 0.284462 0.412186 -0.001284
H24   H     H_    0.990952 0.273098 0.047587 0.119693
H25   H     H_    0.285697 0.718423 0.056435 0.122483
H26   H     H_    0.508382 0.576477 0.202425 0.108697
H27   H     H_    0.212028 0.709122 0.953204 0.122518
H28   H     H_    0.183535 0.545234 0.755237 0.135705
H29   H     H_    0.697300 0.403645 0.795011 0.125931
H30   H     H_    0.021564 0.439957 0.239565 0.110512
H31   H     H_    0.380815 0.530547 0.378968 0.081701
H32   H     H_    0.329294 0.834550 0.333185 -0.025705
H33   H     H_    0.813723 0.486081 0.623384 0.071208
H34   H     H_    0.057468 0.282533 0.434364 0.077088
H35   H     H_    0.851807 0.881351 0.578607 0.103931
H36   H     H_    0.963274 0.038295 0.588981 0.124069
H37   H     H_    0.230341 0.954019 0.407511 0.088954
H38   H     H_    0.342402 0.109865 0.417850 0.095732
H39   H     H_    0.380429 0.691562 0.476303 0.077973
H40   H     H_    0.805620 0.299760 0.522147 0.068493
H41   H     H_    0.073161 0.738659 0.238724 0.155734
H42   H     H_    0.129266 0.860736 0.257481 0.109089
H43   H     H_    0.320749 0.735683 0.590087 -0.027210
H44   H     H_    0.100830 0.730887 0.581759 0.063049
H45   H     H_    0.844349 0.139242 0.345094 0.125010
H46   H     H_    0.220659 0.982668 0.739862 0.141064
H47   H     H_    0.072416 0.006821 0.688416 0.145829
H48   H     H_    0.002343 0.963889 0.755065 0.149260
H49   H     H_    0.958818 0.844219 0.664354 0.122234
H50   H     H_    0.080692 0.818040 0.721985 0.157426
H51   H     H_    0.743186 0.752577 0.843566 0.144871
H52   H     H_    0.544685 0.679068 0.834098 0.141684
H53   H     H_    0.722775 0.637059 0.858413 0.143561
H54   H     H_    0.660338 0.578833 0.752775 0.138609
H55   H     H_    0.858901 0.651910 0.761980 0.146088
H56   H     H_    0.905453 0.125998 0.418369 0.061168
H57   H     H_    0.542454 0.229990 0.161056 0.148200
H58   H     H_    0.608711 0.351915 0.172668 0.138461
H59   H     H_    0.759606 0.275878 0.166480 0.160759
H60   H     H_    0.731502 0.341446 0.270214 0.142501
H61   H     H_    0.661825 0.221107 0.260507 0.142164
H62   H     H_    0.059638 0.139497 0.362350 0.130527
H63   H     H_    0.834843 0.667604 0.653596 -0.020647
H64   H     H_    0.621982 0.610209 0.643379 0.066149
N1    N     N_R   0.987682 0.478884 0.848615 -0.418628
N2    N     N_R   0.210058 0.504400 0.150428 -0.422851
N3    N     N_1   0.224922 0.958120 0.564671 -0.279708
N4    N     N_1   0.230453 0.165559 0.244845 -0.283759
N5    N     N_1   0.817739 0.117693 0.766639 -0.279807
N6    N     N_1   0.828764 0.167131 0.916064 -0.258179
O1    O     O_2   0.889550 0.449610 0.359390 -0.467173
O2    O     O_2   0.184600 0.175316 0.530109 -0.466423
O3    O     O_3   0.093900 0.190907 0.639082 -0.616279
O4    O     O_3   0.130110 0.450560 0.430470 -0.493462
O5    O     O_3   0.576420 0.610430 0.532020 -0.479261
O6    O     O_2   0.341600 0.276000 0.466340 -0.462818
O7    O     O_3   0.517152 0.250879 0.368406 -0.657357
O8    O     O_2   0.428375 0.453486 0.708667 -0.508516
O9    O     O_3   0.443666 0.278144 0.691380 -0.594280
O10   O     O_2   0.090907 0.628288 0.856706 -0.611779
O11   O     O_2   0.880719 0.331630 0.849444 -0.614381
O12   O     O_3   0.671524 0.743996 0.627100 -0.656869
O13   O     O_2   0.118918 0.353459 0.141966 -0.605548
O14   O     O_2   0.300575 0.654031 0.150221 -0.619885
O15   O     O_3   0.674110 0.616450 0.398780 -0.486592
O16   O     O_2   0.801098 0.554741 0.295124 -0.480222
O17   O     O_3   0.020184 0.304130 0.348397 -0.634789
O18   O     O_3   0.733136 0.719545 0.304003 -0.577172
O19   O     O_2   0.848090 0.724020 0.533700 -0.481272
O20   O     O_3   0.092920 0.663620 0.428750 -0.463798
O21   O     O_2   0.011094 0.823621 0.468113 -0.477502
O22   O     O_3   0.086393 0.797398 0.356693 -0.582877
O23   O     O_2   0.300150 0.550420 0.640640 -0.450969
O24   O     O_3   0.059600 0.549520 0.569540 -0.494188
O25   O     O_3   0.515600 0.383630 0.601220 -0.469504
O26   O     O_3   0.179873 0.693820 0.658427 -0.643084
O27   O     O_3   0.613290 0.389640 0.467990 -0.473407
O28   O     O_3   0.096790 0.336450 0.571260 -0.488866
P1    P     P_3+3 0.056000 0.422550 0.367550 0.985359
P2    P     P_3+3 0.670460 0.710570 0.550500 0.975285
P3    P     P_3+3 0.137470 0.779362 0.427465 0.965360
P4    P     P_3+3 0.133720 0.577520 0.632450 0.987605
P5    P     P_3+3 0.054383 0.218123 0.569622 0.949492
P6    P     P_3+3 0.667767 0.610619 0.321779 0.979678
P7    P     P_3+3 0.524891 0.276502 0.445641 0.940531
P8    P     P_3+3 0.535611 0.385288 0.676962 0.940587

loop_
_geom_bond_atom_site_label_1
_geom_bond_atom_site_label_2
_ccdc_geom_bond_type
C37   H36   S    
C53   C54   S    
O26   P4    S    
C57   H50   S    
O19   P2    D    
C14   H24   S    
Ba2   O4    S    
C12   H1    S    
Ba1   O5    S    
C40   H12   S    
C19   C24   D    
C38   P2    S    
C68   H31   S    
C53   O12   S    
C51   C52   S    
O25   P8    S    
C52   H56   S    
O16   P6    D    
O8    P8    D    
C18   O14   D    
C12   O18   S    
C59   H54   S    
C22   H28   S    
C63   H57   S    
C16   H42   S    
C32   C33   A    
C35   C38   A    
C36   C37   A    
C19   H29   S    
O7    P7    S    
C41   C50   A    
C46   H37   S    
Ba1   O27   S    
C51   H34   S    
C13   C14   A    
C45   O3    S    
Ba1   P2    S    
C16   H11   S    
C45   H14   S    
Ba1   Ba2   S    
Ba1   O15   S    
C7    C11   A    
C66   O9    S    
O17   P1    S    
C41   P7    S    
C56   C64   S    
C21   P4    S    
C4    O22   S    
Ba1   O24   S    
C42   C44   A    
C66   C67   S    
C47   C49   A    
C44   H38   S    
C21   C22   D    
C58   H48   S    
C24   N1    S    
C45   H13   S    
C67   H22   S    
C57   C58   S    
C39   H39   S    
C19   C20   S    
C52   H45   S    
C25   H26   S    
C20   C31   S    
C67   H19   S    
C1    H10   S    
C56   H16   S    
C40   C55   S    
C60   H53   S    
O18   P6    S    
O2    P5    D    
O28   P5    S    
C4    C16   S    
C44   C46   A    
C54   H4    S    
C64   N5    T    
C51   H23   S    
C23   H8    S    
C63   H58   S    
Ba1   O19   S    
Ba1   O1    S    
C16   H41   S    
C28   O26   S    
Ba2   O24   S    
C30   N2    S    
C6    C7    A    
C21   C31   D    
C17   N2    Am   
C53   H63   S    
O4    P1    S    
C3    O10   D    
Ba2   O5    S    
Ba2   O23   S    
C8    H27   S    
C33   C37   A    
C41   C42   A    
C5    N1    Am   
C35   C36   A    
O23   P4    D    
O12   P2    S    
C63   H59   S    
C29   C30   A    
C62   H61   S    
C50   H40   S    
C13   C65   S    
O6    P7    D    
C10   C18   A    
O1    P1    D    
C55   N3    T    
C58   H47   S    
C23   O7    S    
C29   H30   S    
C18   N2    Am   
C65   N6    T    
Ba2   O25   S    
C1    C12   S    
C5    O11   D    
O15   P6    S    
C38   C39   A    
C62   H60   S    
C6    C13   A    
C66   H18   S    
C61   N4    T    
C23   H7    S    
C58   H46   S    
O3    P5    S    
C2    C8    A    
C67   H20   S    
C34   C61   S    
C56   H15   S    
Ba2   O28   S    
C60   H52   S    
C42   C43   A    
O27   P7    S    
C27   C68   A    
C28   H44   S    
C9    H25   S    
C3    N1    Am   
O24   P4    S    
O5    P2    S    
C46   C47   A    
C57   H49   S    
C54   H3    S    
C25   C30   A    
C31   H33   S    
C32   C50   A    
Ba1   O20   S    
C26   C68   A    
C22   C24   S    
C2    C3    A    
C34   H9    S    
C40   C57   S    
C20   P8    S    
C9    C10   A    
Ba2   O6    S    
C53   H64   S    
C52   H62   S    
C51   O17   S    
C11   C15   A    
O9    P8    S    
C62   C63   S    
C36   H35   S    
C49   P3    S    
C1    H2    S    
C27   C29   A    
C32   P5    S    
C12   H5    S    
C45   C56   S    
C35   C48   A    
C26   P6    S    
C14   C15   A    
C43   C48   A    
C17   O13   D    
Ba1   P1    S    
C15   C17   A    
O20   P3    S    
C4    H32   S    
C59   C60   S    
C5    C6    A    
C8    C9    A    
C23   C34   S    
O21   P3    D    
O22   P3    S    
C10   C11   A    
C47   C48   A    
C25   C26   A    
Ba1   O4    S    
C66   H17   S    
C1    H6    S    
C54   C59   S    
C28   C40   S    
C59   H55   S    
C27   P1    S    
C2    C7    A    
C34   C62   S    
Ba2   O27   S    
C39   C49   A    
C60   H51   S    
C4    H21   S    
Ba2   P4    S    
C28   H43   S    
C33   C43   A    
