data_mof_unit_54991.cif
_audit_creation_date              2012-12-11T15:48:55-0500
_audit_creation_method            fapswitch 2.2
_symmetry_space_group_name_H-M    P1
_symmetry_Int_Tables_number       1
_space_group_crystal_system       triclinic
_cell_length_a                    10.933244
_cell_length_b                    10.973767
_cell_length_c                    18.816715
_cell_angle_alpha                 90.551723
_cell_angle_beta                  90.161345
_cell_angle_gamma                 60.285642
_cell_volume                      1960.65342164

loop_
_atom_site_label
_atom_site_type_symbol
_atom_type_description
_atom_site_fract_x
_atom_site_fract_y
_atom_site_fract_z
_atom_type_partial_charge
C1    C     C_R   0.241072 0.645005 0.610745 0.541145
C2    C     C_R   0.577187 0.143234 0.710053 -0.182107
C3    C     C_R   0.574423 0.149424 0.783107 -0.173976
C4    C     C_R   0.654147 0.622592 0.600690 0.538208
C5    C     C_3   0.938864 0.081999 0.784358 -0.027972
C6    C     C_3   0.933148 0.090113 0.703775 -0.231249
C7    C     C_R   0.674375 0.164152 0.672108 0.007765
C8    C     C_R   0.182773 0.666026 0.835573 0.007320
C9    C     C_R   0.154145 0.576565 0.794241 0.017621
C10   C     C_R   0.162918 0.574668 0.720500 -0.007437
C11   C     C_R   0.223071 0.757765 0.727062 -0.170077
C12   C     C_3   0.657198 0.560529 0.799991 -0.254322
C13   C     C_R   0.220414 0.755066 0.800918 -0.178541
C14   C     C_3   0.226663 0.420536 0.797268 -0.278184
C15   C     C_3   0.233189 0.419083 0.716892 -0.268207
C16   C     C_R   0.630247 0.225723 0.601898 0.539389
C17   C     C_R   0.198996 0.664000 0.685516 0.006803
C18   C     C_R   0.674047 0.680938 0.173916 0.020956
C19   C     C_R   0.794175 0.603019 0.215320 0.051915
C20   C     C_R   0.788608 0.598529 0.287959 0.016827
C21   C     C_R   0.539149 0.762151 0.283150 -0.163276
C22   C     C_R   0.546473 0.767939 0.208815 -0.176823
C23   C     C_3   0.698364 0.674049 0.812054 0.048652
C24   C     C_3   0.903258 0.451842 0.209019 -0.262842
C25   C     C_3   0.901846 0.447600 0.289166 -0.272290
C26   C     C_R   0.659214 0.668847 0.322798 0.014063
C27   C     C_R   0.638715 0.185699 0.169929 0.019405
C28   C     C_R   0.227535 0.646122 0.399504 0.548098
C29   C     C_R   0.517839 0.210257 0.207162 0.023344
C30   C     C_R   0.515543 0.217978 0.280053 0.043015
C31   C     C_R   0.743340 0.200999 0.280696 -0.166770
C32   C     C_R   0.743972 0.198284 0.206618 -0.168441
C33   C     C_3   0.437491 0.132378 0.207134 -0.270545
C34   C     C_3   0.670028 0.648145 0.676077 0.058486
C35   C     C_3   0.436854 0.140045 0.287391 -0.278689
C36   C     C_R   0.632189 0.201956 0.318180 0.021701
C37   C     C_R   0.168715 0.666901 0.178383 0.020051
C38   C     C_R   0.192249 0.764356 0.215880 0.025056
C39   C     C_R   0.203464 0.757927 0.287767 0.036167
C40   C     C_R   0.642308 0.623754 0.392697 0.551774
C41   C     C_R   0.200828 0.540236 0.287275 -0.151572
C42   C     C_R   0.189401 0.545914 0.213176 -0.157109
C43   C     C_3   0.110344 0.922218 0.219128 -0.267511
C44   C     C_3   0.124531 0.912720 0.298811 -0.280093
C45   C     C_3   0.820796 0.618741 0.691269 -0.246008
C46   C     C_R   0.194680 0.654357 0.325261 0.021711
C47   C     C_R   0.702388 0.099718 0.895183 0.537348
C48   C     C_R   0.723028 0.687953 0.888226 0.542001
C49   C     C_R   0.119406 0.705406 0.906145 0.535169
C50   C     C_R   0.673238 0.110807 0.102753 0.548165
C51   C     C_R   0.697828 0.691613 0.098739 0.544766
C52   C     C_R   0.614376 0.233693 0.393344 0.545240
C53   C     C_R   0.096462 0.708721 0.111389 0.549651
C54   C     C_3   0.580363 0.814415 0.780868 -0.230729
C55   C     C_3   0.565482 0.800129 0.700371 -0.240983
C56   C     C_3   0.641104 0.544870 0.719801 -0.213753
C57   C     C_3   0.837042 0.633703 0.771219 -0.217563
C58   C     C_R   0.683385 0.152064 0.822254 0.001784
C59   C     C_R   0.782763 0.170790 0.784504 -0.000530
C60   C     C_R   0.776784 0.179246 0.710211 -0.013721
Cr1   Cr    Cr6+3 0.392960 0.397920 0.502240 1.005802
Cr2   Cr    Cr6+3 0.398340 0.708480 0.501250 1.002711
Cr3   Cr    Cr6+3 0.708670 0.393570 0.496460 1.003708
Cr4   Cr    Cr6+3 0.937650 0.938540 0.007610 1.001371
Cr5   Cr    Cr6+3 0.625330 0.937370 0.994520 1.005139
Cr6   Cr    Cr6+3 0.937940 0.625230 0.001190 1.006692
H1    H     H_    0.608148 0.897210 0.790378 0.145295
H2    H     H_    0.248949 0.830913 0.702772 0.143174
H3    H     H_    0.478012 0.846822 0.807734 0.125152
H4    H     H_    0.238219 0.829908 0.830630 0.151776
H5    H     H_    0.158223 0.381049 0.818458 0.140383
H6    H     H_    0.330600 0.377397 0.823647 0.143514
H7    H     H_    0.340998 0.374062 0.695482 0.179274
H8    H     H_    0.166201 0.381579 0.691086 0.127093
H9    H     H_    0.437682 0.821875 0.308637 0.139827
H10   H     H_    0.452547 0.835633 0.178871 0.120590
H11   H     H_    0.003395 0.435301 0.186456 0.141046
H12   H     H_    0.717326 0.435921 0.703568 0.146645
H13   H     H_    0.861607 0.388628 0.183117 0.134306
H14   H     H_    0.866075 0.376299 0.309051 0.162365
H15   H     H_    0.455435 0.827813 0.688464 0.135901
H16   H     H_    0.000325 0.433386 0.313852 0.126199
H17   H     H_    0.831901 0.196307 0.308603 0.118881
H18   H     H_    0.834682 0.188962 0.178815 0.117466
H19   H     H_    0.500401 0.023887 0.186516 0.173157
H20   H     H_    0.330977 0.194351 0.183433 0.122942
H21   H     H_    0.329896 0.205356 0.310220 0.129965
H22   H     H_    0.500974 0.036333 0.312934 0.142158
H23   H     H_    0.922892 0.531989 0.790892 0.140181
H24   H     H_    0.211381 0.449522 0.314663 0.127962
H25   H     H_    0.187724 0.461692 0.184009 0.115708
H26   H     H_    0.999709 0.964791 0.202220 0.171585
H27   H     H_    0.587231 0.875090 0.671254 0.113932
H28   H     H_    0.167672 0.970873 0.194185 0.127449
H29   H     H_    0.191228 0.954574 0.320295 0.135890
H30   H     H_    0.022940 0.948966 0.327092 0.136251
H31   H     H_    0.867471 0.715469 0.780586 0.125883
H32   H     H_    0.842432 0.693366 0.661616 0.115203
H33   H     H_    0.738855 0.458783 0.822143 0.126000
H34   H     H_    0.899888 0.510729 0.673794 0.134223
H35   H     H_    0.556243 0.590187 0.827660 0.120167
H36   H     H_    0.533506 0.562479 0.708613 0.129612
H37   H     H_    0.966925 0.254517 0.797244 0.226732
H38   H     H_    0.990525 0.160381 0.871186 0.249265
H39   H     H_    0.494972 0.132570 0.683365 0.132405
H40   H     H_    0.491656 0.138247 0.808287 0.144189
H41   H     H_    0.973987 0.976264 0.805875 0.180936
H42   H     H_    0.981840 0.148955 0.680680 0.147176
H43   H     H_    0.964728 0.987724 0.677278 0.123103
N1    N     N_3   0.009923 0.152238 0.816487 -0.647701
O1    O     O_R   0.507380 0.255700 0.581440 -0.535220
O2    O     O_R   0.837170 0.593410 0.915250 -0.527674
O3    O     O_R   0.065200 0.635530 0.931570 -0.500459
O4    O     O_R   0.280320 0.527350 0.578930 -0.502718
O5    O     O_R   0.068260 0.828890 0.091840 -0.527177
O6    O     O_R   0.798870 0.057410 0.079340 -0.511561
O7    O     O_R   0.584930 0.080350 0.076780 -0.523043
O8    O     O_R   0.626960 0.809650 0.067060 -0.507108
O9    O     O_R   0.816040 0.596610 0.076510 -0.519811
O10   O     O_R   0.045610 0.638500 0.081060 -0.507339
O11   O     O_3   0.833640 0.833710 0.001100 -0.247587
O12   O     O_R   0.524480 0.695810 0.424040 -0.509307
O13   O     O_R   0.260510 0.739590 0.584590 -0.532531
O14   O     O_R   0.532300 0.695080 0.573820 -0.511093
O15   O     O_R   0.744840 0.503500 0.576370 -0.529230
O16   O     O_R   0.699120 0.276560 0.571960 -0.501224
O17   O     O_R   0.498940 0.256500 0.419860 -0.519546
O18   O     O_R   0.272500 0.528080 0.429150 -0.508175
O19   O     O_R   0.252060 0.740380 0.423010 -0.519512
O20   O     O_R   0.736390 0.504290 0.414790 -0.523971
O21   O     O_R   0.691300 0.277290 0.422170 -0.510526
O22   O     O_3   0.499990 0.499990 0.499980 -0.248665
O23   O     O_R   0.089400 0.825690 0.930570 -0.528459
O24   O     O_R   0.818460 0.054440 0.929850 -0.505822
O25   O     O_R   0.606060 0.077150 0.915510 -0.533314
O26   O     O_R   0.646550 0.806680 0.917570 -0.509887

loop_
_geom_bond_atom_site_label_1
_geom_bond_atom_site_label_2
_ccdc_geom_bond_type
C49   O3    A    
C21   C26   A    
C34   C56   S    
C8    C13   A    
Cr4   O6    S    
Cr6   O3    S    
C27   C29   A    
C50   O7    A    
C14   H5    S    
C2    C7    A    
C22   H10   S    
C55   H27   S    
C43   H28   S    
Cr2   O14   S    
C53   O10   A    
C56   H12   S    
C12   C23   S    
C45   C57   S    
C29   C30   A    
C57   H23   S    
C4    O15   A    
H37   N1    S    
C28   O19   A    
C45   H32   S    
C31   C36   A    
C38   C39   A    
C13   H4    S    
C10   C17   A    
Cr4   O11   S    
C25   H14   S    
C29   C33   S    
C51   O8    A    
C31   H17   S    
C4    O14   A    
C18   C19   A    
C41   C42   A    
Cr3   O20   S    
C37   C42   A    
C33   H19   S    
C12   H33   S    
C49   O23   A    
Cr1   O22   S    
Cr4   O23   S    
C35   H21   S    
C19   C20   A    
C8    C9    A    
C20   C25   S    
C51   O9    A    
C41   C46   A    
Cr5   O11   S    
C55   H15   S    
C9    C10   A    
C36   C52   S    
C27   C50   S    
C37   C53   S    
C41   H24   S    
C28   O18   A    
C34   C55   S    
Cr4   O5    S    
Cr6   O10   S    
C21   C22   A    
Cr2   O19   S    
Cr2   O13   S    
C52   O17   A    
C18   C51   S    
C4    C34   S    
C3    H40   S    
C32   H18   S    
Cr4   O24   S    
C5    C59   S    
Cr5   O26   S    
C6    C60   S    
C24   C25   S    
C9    C14   S    
C54   H1    S    
C58   C59   A    
C43   C44   S    
C1    O13   A    
C59   C60   A    
C37   C38   A    
C44   H30   S    
Cr2   O22   S    
C35   H22   S    
C24   H13   S    
C31   C32   A    
Cr5   O8    S    
C57   H31   S    
Cr6   O11   S    
C47   O25   A    
Cr1   O17   S    
C34   C45   S    
Cr5   O25   S    
Cr3   O22   S    
C12   C56   S    
C39   C46   A    
C30   C35   S    
C7    C16   S    
C48   O2    A    
Cr3   O21   S    
Cr6   O9    S    
C47   O24   A    
C25   H16   S    
C6    H43   S    
Cr3   O15   S    
C1    O4    A    
Cr1   O1    S    
C7    C60   A    
Cr2   O12   S    
C11   H2    S    
C23   C54   S    
C5    H41   S    
C23   C57   S    
C40   O20   A    
C54   C55   S    
C11   C17   A    
C6    H42   S    
C23   C48   S    
C15   H7    S    
C27   C32   A    
C18   C22   A    
C52   O21   A    
C14   H6    S    
C48   O26   A    
C45   H34   S    
C39   C44   S    
C40   O12   A    
C21   H9    S    
C2    H39   S    
C1    C17   S    
C43   H26   S    
C30   C36   A    
C10   C15   S    
C28   C46   S    
C2    C3    A    
C56   H36   S    
C12   H35   S    
C44   H29   S    
C47   C58   S    
H38   N1    S    
C11   C13   A    
C26   C40   S    
C5    C6    S    
C54   H3    S    
C20   C26   A    
C33   C35   S    
C19   C24   S    
Cr1   O18   S    
C50   O6    A    
Cr3   O16   S    
C3    C58   A    
C53   O5    A    
C24   H11   S    
C38   C43   S    
C15   H8    S    
C5    N1    S    
Cr1   O4    S    
Cr5   O7    S    
C14   C15   S    
Cr6   O2    S    
C16   O16   A    
C8    C49   S    
C33   H20   S    
C42   H25   S    
C16   O1    A    
