data_mof_unit_64608.cif
_audit_creation_date              2012-12-11T17:30:26-0500
_audit_creation_method            fapswitch 2.2
_symmetry_space_group_name_H-M    P1
_symmetry_Int_Tables_number       1
_space_group_crystal_system       triclinic
_cell_length_a                    26.292653
_cell_length_b                    7.25745
_cell_length_c                    23.822562
_cell_angle_alpha                 89.999284
_cell_angle_beta                  101.016187
_cell_angle_gamma                 89.999835
_cell_volume                      4462.00073054

loop_
_atom_site_label
_atom_site_type_symbol
_atom_type_description
_atom_site_fract_x
_atom_site_fract_y
_atom_site_fract_z
_atom_type_partial_charge
O1    O     O_R   0.192950 0.385540 0.693930 -0.529004
O2    O     O_R   0.807050 0.614460 0.306070 -0.529004
O3    O     O_R   0.307050 0.885540 0.806070 -0.529007
O4    O     O_R   0.692950 0.114460 0.193930 -0.529007
O5    O     O_R   0.296670 0.712560 0.696510 -0.544889
O6    O     O_R   0.703330 0.287440 0.303490 -0.544886
O7    O     O_R   0.203330 0.212560 0.803490 -0.544880
O8    O     O_R   0.796670 0.787440 0.196510 -0.544879
C1    C     C_R   0.313419 0.547324 0.685319 0.782716
C2    C     C_R   0.686581 0.452676 0.314681 0.782717
C3    C     C_R   0.186581 0.047323 0.814682 0.782703
C4    C     C_R   0.813418 0.952677 0.185318 0.782702
O9    O     O_R   0.192700 0.715080 0.687210 -0.536466
O10   O     O_R   0.807300 0.284920 0.312790 -0.536467
O11   O     O_R   0.307300 0.215080 0.812790 -0.536470
O12   O     O_R   0.692700 0.784920 0.187210 -0.536470
O13   O     O_R   0.202340 0.888100 0.796700 -0.508881
O14   O     O_R   0.797660 0.111900 0.203300 -0.508881
O15   O     O_R   0.297660 0.388100 0.703300 -0.508869
O16   O     O_R   0.702340 0.611900 0.296700 -0.508869
C5    C     C_R   0.174423 0.546674 0.672116 0.699747
C6    C     C_R   0.825577 0.453326 0.327884 0.699747
C7    C     C_R   0.325577 0.046672 0.827883 0.699751
C8    C     C_R   0.674423 0.953328 0.172116 0.699751
O17   O     O_3   0.253290 0.552920 0.785930 -0.366493
O18   O     O_3   0.746710 0.447080 0.214070 -0.366493
O19   O     O_3   0.246710 0.052920 0.714070 -0.366484
O20   O     O_3   0.753290 0.947080 0.285930 -0.366483
V1    V     V_3+5 0.249390 0.826720 0.743330 1.541191
V2    V     V_3+5 0.750610 0.173280 0.256670 1.541194
V3    V     V_3+5 0.250610 0.326720 0.756670 1.541190
V4    V     V_3+5 0.749390 0.673280 0.243330 1.541192
C9    C     C_R   0.523881 0.829317 0.013731 -0.284521
C10   C     C_R   0.476119 0.170683 0.986269 -0.284520
C11   C     C_R   0.976200 0.329244 0.486169 -0.284693
C12   C     C_R   0.023800 0.670756 0.513830 -0.284693
H1    H     H_    0.541974 0.696257 0.023912 0.224429
H2    H     H_    0.458026 0.303743 0.976087 0.224429
H3    H     H_    0.958170 0.196129 0.475910 0.224674
H4    H     H_    0.041829 0.803871 0.524090 0.224674
C13   C     C_R   0.544760 0.987081 0.043717 -0.103841
C14   C     C_R   0.455240 0.012919 0.956283 -0.103841
C15   C     C_R   0.955239 0.487077 0.456285 -0.103840
C16   C     C_R   0.044761 0.512923 0.543715 -0.103839
C17   C     C_R   0.520512 0.158152 0.029659 0.663005
C18   C     C_R   0.479488 0.841848 0.970341 0.663005
C19   C     C_R   0.979405 0.658220 0.470442 0.663058
C20   C     C_R   0.020595 0.341780 0.529558 0.663058
C21   C     C_1   0.590749 0.973071 0.088784 0.121850
C22   C     C_1   0.409252 0.026929 0.911216 0.121849
C23   C     C_1   0.909251 0.473064 0.411218 0.121859
C24   C     C_1   0.090749 0.526936 0.588782 0.121859
C25   C     C_1   0.371006 0.037144 0.873425 -0.128794
C26   C     C_1   0.628993 0.962856 0.126575 -0.128794
C27   C     C_1   0.128994 0.537150 0.626574 -0.128780
C28   C     C_1   0.871006 0.462850 0.373426 -0.128780
C29   C     C_R   0.852643 0.104812 0.109077 0.597911
C30   C     C_R   0.147357 0.895188 0.890923 0.597911
C31   C     C_R   0.647348 0.604835 0.390913 0.597886
C32   C     C_R   0.352653 0.395162 0.609088 0.597885
C33   C     C_R   0.889105 0.113649 0.073431 -0.255647
C34   C     C_R   0.110895 0.886351 0.926569 -0.255647
C35   C     C_R   0.610886 0.613670 0.426559 -0.255610
C36   C     C_R   0.389115 0.386326 0.573442 -0.255608
H5    H     H_    0.886791 0.227394 0.043638 0.215084
H6    H     H_    0.113209 0.772606 0.956362 0.215084
H7    H     H_    0.613195 0.727437 0.456343 0.215102
H8    H     H_    0.386807 0.272556 0.543660 0.215102
C37   C     C_R   0.927494 0.977840 0.075434 -0.214849
C38   C     C_R   0.072506 0.022160 0.924567 -0.214849
C39   C     C_R   0.572504 0.477838 0.424566 -0.214821
C40   C     C_R   0.427497 0.522159 0.575436 -0.214824
C41   C     C_R   0.929052 0.832657 0.115098 0.670454
C42   C     C_R   0.070948 0.167343 0.884902 0.670455
C43   C     C_R   0.570952 0.332631 0.384909 0.670454
C44   C     C_R   0.429048 0.667371 0.615091 0.670451
C45   C     C_R   0.892772 0.822549 0.151783 -0.042071
C46   C     C_R   0.107229 0.177451 0.848217 -0.042071
C47   C     C_R   0.607236 0.322513 0.348227 -0.042071
C48   C     C_R   0.392764 0.677491 0.651772 -0.042070
C49   C     C_R   0.853340 0.959096 0.148277 -0.254439
C50   C     C_R   0.146660 0.040904 0.851723 -0.254440
C51   C     C_R   0.646659 0.459090 0.351724 -0.254475
C52   C     C_R   0.353341 0.540910 0.648276 -0.254482
N1    N     N_R   0.000978 0.853998 0.034694 -0.162194
N2    N     N_R   0.999023 0.146003 0.965306 -0.162194
N3    N     N_R   0.498997 0.353977 0.465280 -0.162092
N4    N     N_R   0.501004 0.646019 0.534722 -0.162092
N5    N     N_R   0.034680 0.864432 0.999496 -0.263257
N6    N     N_R   0.965321 0.135568 0.000504 -0.263257
N7    N     N_R   0.465298 0.364408 0.500479 -0.263190
N8    N     N_R   0.534703 0.635588 0.499523 -0.263191
C53   C     C_R   0.034513 0.010744 0.963888 0.588847
C54   C     C_R   0.965487 0.989256 0.036112 0.588847
C55   C     C_R   0.465491 0.510739 0.536115 0.588615
C56   C     C_R   0.534511 0.489257 0.463887 0.588614
F1    F     F_    0.460249 0.686973 0.942075 -0.670215
F2    F     F_    0.539751 0.313027 0.057925 -0.670215
F3    F     F_    0.039915 0.186838 0.557724 -0.670304
F4    F     F_    0.960085 0.813162 0.442276 -0.670304
F5    F     F_    0.815727 0.237815 0.104084 -0.660859
F6    F     F_    0.184273 0.762185 0.895915 -0.660858
F7    F     F_    0.684257 0.737874 0.395897 -0.660847
F8    F     F_    0.315744 0.262122 0.604104 -0.660847
F9    F     F_    0.965963 0.699949 0.118335 -0.643398
F10   F     F_    0.034038 0.300051 0.881665 -0.643398
F11   F     F_    0.534044 0.199907 0.381672 -0.643380
F12   F     F_    0.465957 0.800097 0.618328 -0.643379
C57   C     C_3   0.897846 0.668631 0.195359 -0.585425
H9    H     H_    0.896913 0.725715 0.238400 0.173545
H10   H     H_    0.865929 0.567843 0.183044 0.227299
H11   H     H_    0.934818 0.591935 0.198951 0.249021
C58   C     C_3   0.102154 0.331370 0.804641 -0.585424
H12   H     H_    0.103085 0.274284 0.761599 0.173545
H13   H     H_    0.065183 0.408071 0.801051 0.249021
H14   H     H_    0.134073 0.432154 0.816955 0.227299
C59   C     C_3   0.602172 0.168548 0.304665 -0.585268
H15   H     H_    0.603084 0.225613 0.261613 0.173586
H16   H     H_    0.634108 0.067814 0.316985 0.227316
H17   H     H_    0.565214 0.091764 0.301094 0.249024
C60   C     C_3   0.397827 0.831461 0.695333 -0.585249
H18   H     H_    0.396923 0.774386 0.738387 0.173587
H19   H     H_    0.434782 0.908273 0.698898 0.249023
H20   H     H_    0.365885 0.932178 0.683016 0.227317

loop_
_geom_bond_atom_site_label_1
_geom_bond_atom_site_label_2
_ccdc_geom_bond_type
O17   V3    S    
C39   C43   A    
C30   C34   A    
N3    N7    A    
O19   V1    S    
O13   V1    S    
O3    C7    A    
C10   C14   A    
N8    C56   A    
C40   C44   A    
O15   V3    S    
C59   H16   S    
O1    C5    A    
C36   H8    S    
O9    V1    S    
C31   C51   A    
C17   F2    S    
C57   H10   S    
C11   H3    S    
O4    C8    A    
C8    C26   S    
C21   C26   T    
C2    C51   S    
O1    V3    S    
C34   C38   A    
C12   C19   A    
O2    V4    S    
C23   C28   T    
C14   C18   A    
O3    V1    S    
C38   C42   A    
C60   H20   S    
C40   C55   S    
C1    O15   A    
N4    N8    A    
C2    O16   A    
O2    C6    A    
C37   C41   A    
C30   F6    S    
C11   C15   A    
C24   C27   T    
C48   C52   A    
C58   H14   S    
C16   C24   S    
O11   C7    A    
N4    C55   A    
C44   F12   S    
C9    C18   A    
O10   V2    S    
C11   C20   A    
C13   C21   S    
N6    C54   A    
O5    V1    S    
C48   C60   S    
C3    C50   S    
C35   H7    S    
C22   C25   T    
O7    V3    S    
C34   H6    S    
O8    V4    S    
C43   F11   S    
C12   H4    S    
C38   C53   S    
C37   C54   S    
N2    N6    A    
C57   H11   S    
C5    C27   S    
N1    N5    A    
O18   V4    S    
C6    C28   S    
C39   C56   S    
O11   V3    S    
C9    H1    S    
C19   F4    S    
O7    C3    A    
O5    C1    A    
N2    C53   A    
C42   F10   S    
N1    C54   A    
C46   C50   A    
C41   F9    S    
C45   C49   A    
O8    C4    A    
N3    C56   A    
O9    C5    A    
C10   C17   A    
C45   C57   S    
C60   H18   S    
C14   C22   S    
O14   V2    S    
O6    V2    S    
C18   F1    S    
C35   C39   A    
C29   C49   A    
C59   H17   S    
C46   C58   S    
C58   H12   S    
O16   V4    S    
C33   C37   A    
C20   F3    S    
C3    O13   A    
C13   C17   A    
C10   H2    S    
C44   C48   A    
O6    C2    A    
C29   C33   A    
O12   V4    S    
C29   F5    S    
C31   C35   A    
C32   C36   A    
C9    C13   A    
O10   C6    A    
C30   C50   A    
C31   F7    S    
C32   F8    S    
C59   H15   S    
C47   C51   A    
C32   C52   A    
C15   C23   S    
C15   C19   A    
C47   C59   S    
C7    C25   S    
O20   V2    S    
C4    C49   S    
C36   C40   A    
N5    C53   A    
C60   H19   S    
C12   C16   A    
C1    C52   S    
N7    C55   A    
C33   H5    S    
O12   C8    A    
C42   C46   A    
C4    O14   A    
C41   C45   A    
C57   H9    S    
C43   C47   A    
O4    V2    S    
C16   C20   A    
C58   H13   S    
