data_mof_unit_55731.cif
_audit_creation_date              2012-12-11T15:13:48-0500
_audit_creation_method            fapswitch 2.2
_symmetry_space_group_name_H-M    P1
_symmetry_Int_Tables_number       1
_space_group_crystal_system       triclinic
_cell_length_a                    6.955399
_cell_length_b                    13.852959
_cell_length_c                    20.059871
_cell_angle_alpha                 104.741748
_cell_angle_beta                  90.593811
_cell_angle_gamma                 89.776822
_cell_volume                      1869.10031078

loop_
_atom_site_label
_atom_site_type_symbol
_atom_type_description
_atom_site_fract_x
_atom_site_fract_y
_atom_site_fract_z
_atom_type_partial_charge
O1    O     O_R   0.506780 0.600060 0.449950 -0.537973
O2    O     O_R   0.179840 0.597110 0.589410 -0.544480
O3    O     O_R   0.004570 0.399940 0.550050 -0.542861
C1    C     C_R   0.347311 0.609818 0.619269 0.682105
O4    O     O_R   0.177380 0.612160 0.452890 -0.541606
O5    O     O_R   0.002100 0.415100 0.412560 -0.542702
C2    C     C_R   0.345773 0.637370 0.435511 0.701082
O6    O     O_R   0.509250 0.584900 0.587440 -0.541600
O7    O     O_3   0.337570 0.435330 0.486930 -0.376228
V1    V     V_3+5 0.064650 0.512000 0.502430 1.410080
O8    O     O_R   0.672090 0.402890 0.410590 -0.543866
C3    C     C_R   0.840527 0.381028 0.383151 0.675811
O9    O     O_R   0.674540 0.387840 0.547110 -0.549489
C4    C     C_R   0.846009 0.363466 0.564023 0.695221
V2    V     V_3+5 0.564040 0.488000 0.497570 1.406122
O10   O     O_3   0.840990 0.564670 0.513070 -0.370521
C5    C     C_R   0.127147 0.178430 0.621642 -0.146178
H1    H     H_    0.093795 0.217666 0.527090 0.116391
H2    H     H_    0.257196 0.136746 0.604106 0.140239
C6    C     C_R   0.878558 0.288256 0.601177 -0.041170
C7    C     C_R   0.746888 0.294174 0.922577 -0.168506
C8    C     C_R   0.701143 0.365770 0.887760 -0.125634
C9    C     C_R   0.753809 0.352536 0.819530 -0.112045
C10   C     C_R   0.858268 0.267420 0.784443 0.018481
C11   C     C_R   0.918018 0.196028 0.821065 -0.085684
C12   C     C_R   0.905775 0.251962 0.713714 0.012753
C13   C     C_R   0.046163 0.179706 0.685053 -0.028414
C14   C     C_R   0.092876 0.104287 0.716817 0.307424
C15   C     C_R   0.027589 0.112011 0.784476 0.320798
C16   C     C_R   0.818271 0.304871 0.669577 -0.182708
C17   C     C_R   0.033673 0.224495 0.577785 -0.176542
C18   C     C_R   0.852505 0.208708 0.890862 -0.039844
H3    H     H_    0.707201 0.359924 0.687002 0.097886
H4    H     H_    0.697495 0.305209 0.975083 0.105393
H5    H     H_    0.715623 0.411744 0.795804 0.095451
H6    H     H_    0.621243 0.431665 0.913658 0.113042
C19   C     C_3   0.677364 0.221112 0.228403 -0.116330
C20   C     C_3   0.775794 0.202509 0.293653 -0.141905
H7    H     H_    0.709237 0.164172 0.329955 0.097045
H8    H     H_    0.529414 0.197382 0.210277 0.107598
C21   C     C_3   0.849438 0.310760 0.312534 -0.004069
C22   C     C_3   0.751089 0.330176 0.248101 -0.139826
C23   C     C_3   0.937091 0.296622 0.206627 -0.145354
C24   C     C_3   0.035516 0.277985 0.271861 -0.119510
C25   C     C_3   0.961786 0.168916 0.252143 -0.140638
C26   C     C_3   0.863447 0.188411 0.187722 -0.003325
H9    H     H_    0.663948 0.397057 0.246932 0.100377
H10   H     H_    0.003669 0.334955 0.170325 0.099301
H11   H     H_    0.183514 0.301572 0.290001 0.109254
C27   C     C_3   0.495214 0.756408 0.718216 -0.164012
C28   C     C_3   0.327440 0.824776 0.751244 -0.123145
H12   H     H_    0.313353 0.903072 0.748448 0.197425
C29   C     C_3   0.356907 0.792906 0.818483 -0.023286
C30   C     C_3   0.524502 0.723302 0.785892 -0.136861
C31   C     C_3   0.381771 0.636415 0.759398 -0.138028
C32   C     C_3   0.214980 0.705588 0.793706 -0.140842
C33   C     C_3   0.184274 0.737691 0.725906 -0.112374
C34   C     C_3   0.352554 0.671016 0.692739 0.004175
H13   H     H_    0.662833 0.713218 0.811275 0.107854
H14   H     H_    0.404932 0.558166 0.762115 0.096061
H15   H     H_    0.099840 0.684106 0.825034 0.095809
H16   H     H_    0.038720 0.736764 0.702925 0.097983
C35   C     C_R   0.422882 0.883807 0.393656 -0.162970
H17   H     H_    0.427618 0.832864 0.485908 0.112092
H18   H     H_    0.453090 0.008019 0.313348 0.116670
H19   H     H_    0.457073 0.959793 0.421372 0.108859
C36   C     C_R   0.356899 0.713821 0.396669 -0.031945
C37   C     C_R   0.323861 0.687383 0.065963 -0.165380
C38   C     C_R   0.304092 0.612192 0.099879 -0.122877
C39   C     C_R   0.315492 0.633918 0.171574 -0.162031
C40   C     C_R   0.348228 0.732619 0.211635 0.077498
C41   C     C_R   0.371255 0.809335 0.176312 0.069946
C42   C     C_R   0.360495 0.757571 0.285381 0.073476
C43   C     C_R   0.401496 0.857813 0.321623 0.145828
C44   C     C_R   0.423044 0.931410 0.285866 -0.213220
C45   C     C_R   0.407006 0.907891 0.214503 -0.204190
C46   C     C_R   0.335091 0.686693 0.324709 -0.218297
C47   C     C_R   0.404153 0.811948 0.430670 -0.181241
C48   C     C_R   0.357550 0.785752 0.103254 -0.066889
H20   H     H_    0.301217 0.609632 0.301175 0.091319
H21   H     H_    0.299206 0.571519 0.193893 0.102678
H22   H     H_    0.424981 0.967807 0.189411 0.116861
O11   O     O_R   0.203580 0.914920 0.912610 -0.520727
O12   O     O_R   0.535710 0.887810 0.047120 -0.543804
O13   O     O_R   0.710730 0.084950 0.087430 -0.542931
C49   C     C_R   0.367593 0.862887 0.064736 0.672871
O14   O     O_R   0.533010 0.902850 0.910600 -0.558428
O15   O     O_R   0.708010 0.100090 0.949930 -0.549598
C50   C     C_R   0.363478 0.872448 0.886549 0.708956
O16   O     O_R   0.206300 0.899780 0.050100 -0.542423
O17   O     O_3   0.375170 0.064580 0.013100 -0.369052
V3    V     V_3+5 0.648200 0.988020 0.997570 1.398269
O18   O     O_R   0.038030 0.112330 0.952840 -0.524756
C51   C     C_R   0.868968 0.132888 0.931374 0.744517
O19   O     O_R   0.040730 0.097300 0.089360 -0.545863
C52   C     C_R   0.872349 0.118661 0.116952 0.676638
V4    V     V_3+5 0.148780 0.012220 0.002360 1.446293
O20   O     O_3   0.871930 0.935430 0.986900 -0.389957
H23   H     H_    0.048976 0.102022 0.253278 0.108964
H24   H     H_    0.611411 0.777275 0.686989 0.108052
O21   O     O_3   0.185990 0.017047 0.680410 -0.558840
C53   C     C_3   0.076617 0.966389 0.620910 0.072190
H25   H     H_    0.103777 0.997198 0.576272 0.137735
H26   H     H_    0.918727 0.970309 0.630362 0.099641
C54   C     C_3   0.136183 0.857245 0.596270 -0.733820
H27   H     H_    0.044241 0.810517 0.619664 0.191529
H28   H     H_    0.112754 0.830360 0.539726 0.187079
H29   H     H_    0.290143 0.847139 0.608055 0.226367
H30   H     H_    0.312069 0.668859 0.010228 0.097300
H31   H     H_    0.278738 0.536201 0.070319 0.115662
O22   O     O_3   0.043957 0.029142 0.809526 -0.547079
C55   C     C_3   0.907611 0.959315 0.773468 0.031190
H32   H     H_    0.973774 0.907389 0.729058 0.170483
H33   H     H_    0.779262 0.993941 0.754049 0.096443
C56   C     C_3   0.836851 0.899467 0.819810 -0.651292
H34   H     H_    0.853084 0.941505 0.873345 0.278849
H35   H     H_    0.684820 0.888366 0.807667 0.183284
H36   H     H_    0.911709 0.827505 0.812525 0.176469

loop_
_geom_bond_atom_site_label_1
_geom_bond_atom_site_label_2
_ccdc_geom_bond_type
C24   H11   S    
C18   C51   S    
C31   C32   S    
O18   C51   A    
O19   C52   A    
C21   C22   S    
O22   C55   S    
C36   C46   A    
C1    O6    A    
C55   H33   S    
V4    O20   S    
V3    O20   S    
C33   H16   S    
C6    C16   A    
C29   C30   S    
C54   H28   S    
C12   C13   A    
C27   C30   S    
C7    C8    A    
C14   C15   A    
O12   C49   A    
C41   C48   A    
O5    C3    A    
C20   H7    S    
O13   C52   A    
C29   C32   S    
V2    O10   S    
C32   C33   S    
C53   C54   S    
C42   C43   A    
C19   C22   S    
C39   H21   S    
C20   C25   S    
O8    V2    S    
C14   O21   S    
O15   V3    S    
C37   C38   A    
C56   H35   S    
C9    C10   A    
C39   C40   A    
C28   C33   S    
C23   H10   S    
O16   V4    S    
C41   C45   A    
C22   H9    S    
C11   C18   A    
C35   H19   S    
O9    C4    A    
C38   C39   A    
C36   C47   A    
C55   H32   S    
C7    C18   A    
O13   V3    S    
C30   H13   S    
C8    C9    A    
C11   C15   A    
O11   C50   A    
C54   H29   S    
O15   C51   A    
C43   C44   A    
C28   H12   S    
C5    C13   A    
O21   C53   S    
C4    C6    S    
C10   C11   A    
C20   C21   S    
C25   H23   S    
C45   H22   S    
O17   V3    S    
C40   C42   A    
C7    H4    S    
C25   C26   S    
C28   C29   S    
C27   C34   S    
O2    C1    A    
C44   C45   A    
C19   C20   S    
C38   H31   S    
C56   H36   S    
C27   C28   S    
O17   V4    S    
C53   H26   S    
O3    C4    A    
O1    V2    S    
C12   C16   A    
O6    V2    S    
C9    H5    S    
O14   C50   A    
C23   C24   S    
C49   O16   A    
C5    C17   A    
C21   C24   S    
C22   C23   S    
O2    V1    S    
O18   V4    S    
O14   V3    S    
C24   C25   S    
C3    C21   S    
O4    C2    A    
O7    V1    S    
C46   H20   S    
C30   C31   S    
C16   H3    S    
O1    C2    A    
H17   C47   S    
C15   O22   S    
C10   C12   A    
O5    V1    S    
O8    C3    A    
O19   V4    S    
C35   C43   A    
C19   H8    S    
C8    H6    S    
C54   H27   S    
C27   H24   S    
H18   C44   S    
O9    V2    S    
O7    V2    S    
O4    V1    S    
O3    V1    S    
V1    O10   S    
C29   C50   S    
C33   C34   S    
C37   C48   A    
C5    H2    S    
C37   H30   S    
C55   C56   S    
C53   H25   S    
C23   C26   S    
C2    C36   S    
C40   C41   A    
C26   C52   S    
O11   V4    S    
C31   C34   S    
C1    C34   S    
C13   C14   A    
C42   C46   A    
C32   H15   S    
H1    C17   S    
O12   V3    S    
C19   C26   S    
C31   H14   S    
C35   C47   A    
C48   C49   S    
C56   H34   S    
C6    C17   A    
