data_mof_unit_61329.cif
_audit_creation_date              2013-03-05T15:57:32-0500
_audit_creation_method            fapswitch 2.2
_symmetry_space_group_name_H-M    P1
_symmetry_Int_Tables_number       1
_space_group_crystal_system       triclinic
_cell_length_a                    27.792308
_cell_length_b                    36.174827
_cell_length_c                    27.793079
_cell_angle_alpha                 89.996664
_cell_angle_beta                  89.999902
_cell_angle_gamma                 89.994053
_cell_volume                      27942.6593142

loop_
_atom_site_label
_atom_site_type_symbol
_atom_site_description
_atom_site_fract_x
_atom_site_fract_y
_atom_site_fract_z
_atom_type_partial_charge
Zn1   Zn    Zn3+2 0.539790 0.780710 0.210180 1.014658
Zn2   Zn    Zn3+2 0.539790 0.780710 0.789820 1.012498
Zn3   Zn    Zn3+2 0.539790 0.219290 0.789820 1.015613
Zn4   Zn    Zn3+2 0.539790 0.219290 0.210180 1.017768
Zn5   Zn    Zn3+2 0.539790 0.280710 0.710180 1.013895
Zn6   Zn    Zn3+2 0.539790 0.280710 0.289820 1.015177
Zn7   Zn    Zn3+2 0.539790 0.719290 0.289820 1.018164
Zn8   Zn    Zn3+2 0.539790 0.719290 0.710180 1.016900
Zn9   Zn    Zn3+2 0.039790 0.780710 0.710180 1.016806
Zn10  Zn    Zn3+2 0.039790 0.780710 0.289820 1.016676
Zn11  Zn    Zn3+2 0.039790 0.219290 0.289820 1.013533
Zn12  Zn    Zn3+2 0.039790 0.219290 0.710180 1.013607
Zn13  Zn    Zn3+2 0.039790 0.280710 0.210180 1.015158
Zn14  Zn    Zn3+2 0.039790 0.280710 0.789820 1.014352
Zn15  Zn    Zn3+2 0.039790 0.719290 0.789820 1.017411
Zn16  Zn    Zn3+2 0.039790 0.719290 0.210180 1.015189
Zn17  Zn    Zn3+2 0.460190 0.719300 0.210200 1.011713
Zn18  Zn    Zn3+2 0.460190 0.719300 0.789800 1.013114
Zn19  Zn    Zn3+2 0.460190 0.280700 0.789800 1.016024
Zn20  Zn    Zn3+2 0.460190 0.280700 0.210200 1.014558
Zn21  Zn    Zn3+2 0.460190 0.219300 0.710200 1.014593
Zn22  Zn    Zn3+2 0.460190 0.219300 0.289800 1.012137
Zn23  Zn    Zn3+2 0.460190 0.780700 0.289800 1.015133
Zn24  Zn    Zn3+2 0.460190 0.780700 0.710200 1.017708
Zn25  Zn    Zn3+2 0.960190 0.719300 0.710200 1.012631
Zn26  Zn    Zn3+2 0.960190 0.719300 0.289800 1.015275
Zn27  Zn    Zn3+2 0.960190 0.280700 0.289800 1.015767
Zn28  Zn    Zn3+2 0.960190 0.280700 0.710200 1.015520
Zn29  Zn    Zn3+2 0.960190 0.219300 0.210200 1.015741
Zn30  Zn    Zn3+2 0.960190 0.219300 0.789800 1.016527
Zn31  Zn    Zn3+2 0.960190 0.780700 0.789800 1.013462
Zn32  Zn    Zn3+2 0.960190 0.780700 0.210200 1.013232
O1    O     O_3   0.499990 0.750000 0.250000 -0.498409
O2    O     O_3   0.499990 0.750000 0.750000 -0.498492
O3    O     O_3   0.499990 0.250000 0.750000 -0.498459
O4    O     O_3   0.499990 0.250000 0.250000 -0.498406
O5    O     O_3   0.999990 0.750000 0.750000 -0.498510
O6    O     O_3   0.999990 0.750000 0.250000 -0.498507
O7    O     O_3   0.999990 0.250000 0.250000 -0.498566
O8    O     O_3   0.999990 0.250000 0.750000 -0.498437
O9    O     O_R   0.527870 0.668020 0.277880 -0.617262
O10   O     O_R   0.527870 0.668020 0.722120 -0.618934
O11   O     O_R   0.527870 0.331980 0.722120 -0.624598
O12   O     O_R   0.527870 0.331980 0.277880 -0.623013
O13   O     O_R   0.527870 0.168020 0.777880 -0.620691
O14   O     O_R   0.527870 0.168020 0.222120 -0.617654
O15   O     O_R   0.527870 0.831980 0.222120 -0.623494
O16   O     O_R   0.527870 0.831980 0.777880 -0.626274
O17   O     O_R   0.027870 0.668020 0.777880 -0.618246
O18   O     O_R   0.027870 0.668020 0.222120 -0.622431
O19   O     O_R   0.027870 0.331980 0.222120 -0.621198
O20   O     O_R   0.027870 0.331980 0.777880 -0.623963
O21   O     O_R   0.027870 0.168020 0.277880 -0.624720
O22   O     O_R   0.027870 0.168020 0.722120 -0.625011
O23   O     O_R   0.027870 0.831980 0.722120 -0.619292
O24   O     O_R   0.027870 0.831980 0.277880 -0.618922
O25   O     O_R   0.472130 0.728510 0.143730 -0.634879
O26   O     O_R   0.472130 0.728510 0.856270 -0.634552
O27   O     O_R   0.472130 0.271490 0.856270 -0.634632
O28   O     O_R   0.472130 0.271490 0.143730 -0.635009
O29   O     O_R   0.472130 0.228510 0.643730 -0.634503
O30   O     O_R   0.472130 0.228510 0.356270 -0.634877
O31   O     O_R   0.472130 0.771490 0.356270 -0.634888
O32   O     O_R   0.472130 0.771490 0.643730 -0.634429
O33   O     O_R   0.972130 0.728510 0.643730 -0.634883
O34   O     O_R   0.972130 0.728510 0.356270 -0.634807
O35   O     O_R   0.972130 0.271490 0.356270 -0.634132
O36   O     O_R   0.972130 0.271490 0.643730 -0.634502
O37   O     O_R   0.972130 0.228510 0.143730 -0.634617
O38   O     O_R   0.972130 0.228510 0.856270 -0.634456
O39   O     O_R   0.972130 0.771490 0.856270 -0.634876
O40   O     O_R   0.972130 0.771490 0.143730 -0.634816
O41   O     O_R   0.393720 0.728520 0.222140 -0.625819
O42   O     O_R   0.393720 0.728520 0.777860 -0.625500
O43   O     O_R   0.393720 0.271480 0.777860 -0.624598
O44   O     O_R   0.393720 0.271480 0.222140 -0.624788
O45   O     O_R   0.393720 0.228520 0.722140 -0.624812
O46   O     O_R   0.393720 0.228520 0.277860 -0.625622
O47   O     O_R   0.393720 0.771480 0.277860 -0.624548
O48   O     O_R   0.393720 0.771480 0.722140 -0.623881
O49   O     O_R   0.893720 0.728520 0.722140 -0.625312
O50   O     O_R   0.893720 0.728520 0.277860 -0.624609
O51   O     O_R   0.893720 0.271480 0.277860 -0.624632
O52   O     O_R   0.893720 0.271480 0.722140 -0.624895
O53   O     O_R   0.893720 0.228520 0.222140 -0.624614
O54   O     O_R   0.893720 0.228520 0.777860 -0.624457
O55   O     O_R   0.893720 0.771480 0.777860 -0.624989
O56   O     O_R   0.893720 0.771480 0.222140 -0.625265
O57   O     O_R   0.606280 0.728500 0.277860 -0.630656
O58   O     O_R   0.606280 0.728500 0.722140 -0.630857
O59   O     O_R   0.606280 0.271500 0.722140 -0.631221
O60   O     O_R   0.606280 0.271500 0.277860 -0.631108
O61   O     O_R   0.606280 0.228500 0.777860 -0.631106
O62   O     O_R   0.606280 0.228500 0.222140 -0.630747
O63   O     O_R   0.606280 0.771500 0.222140 -0.631262
O64   O     O_R   0.606280 0.771500 0.777860 -0.631472
O65   O     O_R   0.106280 0.728500 0.777860 -0.631006
O66   O     O_R   0.106280 0.728500 0.222140 -0.631466
O67   O     O_R   0.106280 0.271500 0.222140 -0.630942
O68   O     O_R   0.106280 0.271500 0.777860 -0.631039
O69   O     O_R   0.106280 0.228500 0.277860 -0.631385
O70   O     O_R   0.106280 0.228500 0.722140 -0.631153
O71   O     O_R   0.106280 0.771500 0.722140 -0.630924
O72   O     O_R   0.106280 0.771500 0.277860 -0.630932
O73   O     O_R   0.527850 0.771500 0.143710 -0.621068
O74   O     O_R   0.527850 0.771500 0.856290 -0.621795
O75   O     O_R   0.527850 0.228500 0.856290 -0.621189
O76   O     O_R   0.527850 0.228500 0.143710 -0.620564
O77   O     O_R   0.527850 0.271500 0.643710 -0.621328
O78   O     O_R   0.527850 0.271500 0.356290 -0.620820
O79   O     O_R   0.527850 0.728500 0.356290 -0.620442
O80   O     O_R   0.527850 0.728500 0.643710 -0.620854
O81   O     O_R   0.027850 0.771500 0.643710 -0.620741
O82   O     O_R   0.027850 0.771500 0.356290 -0.620796
O83   O     O_R   0.027850 0.228500 0.356290 -0.621610
O84   O     O_R   0.027850 0.228500 0.643710 -0.621606
O85   O     O_R   0.027850 0.271500 0.143710 -0.621084
O86   O     O_R   0.027850 0.271500 0.856290 -0.621326
O87   O     O_R   0.027850 0.728500 0.856290 -0.620572
O88   O     O_R   0.027850 0.728500 0.143710 -0.620761
O89   O     O_R   0.472140 0.668020 0.222150 -0.634193
O90   O     O_R   0.472140 0.668020 0.777850 -0.632630
O91   O     O_R   0.472140 0.331980 0.777850 -0.627193
O92   O     O_R   0.472140 0.331980 0.222150 -0.628906
O93   O     O_R   0.472140 0.168020 0.722150 -0.630925
O94   O     O_R   0.472140 0.168020 0.277850 -0.633797
O95   O     O_R   0.472140 0.831980 0.277850 -0.628382
O96   O     O_R   0.472140 0.831980 0.722150 -0.625269
O97   O     O_R   0.972140 0.668020 0.722150 -0.633247
O98   O     O_R   0.972140 0.668020 0.277850 -0.628674
O99   O     O_R   0.972140 0.331980 0.277850 -0.627743
O100  O     O_R   0.972140 0.331980 0.722150 -0.627892
O101  O     O_R   0.972140 0.168020 0.222150 -0.627029
O102  O     O_R   0.972140 0.168020 0.777850 -0.626643
O103  O     O_R   0.972140 0.831980 0.777850 -0.632224
O104  O     O_R   0.972140 0.831980 0.222150 -0.632685
C1    C     C_R   0.500067 0.650312 0.249972 0.831539
C2    C     C_R   0.500065 0.650312 0.750030 0.831661
C3    C     C_R   0.500053 0.349688 0.750043 0.831695
C4    C     C_R   0.500053 0.349688 0.249958 0.831724
C5    C     C_R   0.500065 0.150312 0.749970 0.831783
C6    C     C_R   0.500066 0.150312 0.250029 0.831582
C7    C     C_R   0.500054 0.849688 0.250042 0.831759
C8    C     C_R   0.500052 0.849688 0.749954 0.831668
C9    C     C_R   0.000067 0.650312 0.749971 0.831626
C10   C     C_R   0.000070 0.650309 0.250049 0.831557
C11   C     C_R   0.000068 0.349689 0.250042 0.827362
C12   C     C_R   0.000052 0.349688 0.749957 0.831705
C13   C     C_R   0.000055 0.150312 0.249959 0.831795
C14   C     C_R   0.000054 0.150312 0.750042 0.831754
C15   C     C_R   0.000064 0.849688 0.750032 0.831725
C16   C     C_R   0.000063 0.849688 0.249967 0.831618
C17   C     C_R   0.499985 0.750004 0.120623 0.829149
C18   C     C_R   0.499984 0.750003 0.879377 0.829068
C19   C     C_R   0.499985 0.249996 0.879378 0.828643
C20   C     C_R   0.499984 0.249997 0.120622 0.828548
C21   C     C_R   0.499985 0.250004 0.620623 0.828939
C22   C     C_R   0.499984 0.250003 0.379377 0.829135
C23   C     C_R   0.499985 0.749996 0.379378 0.828559
C24   C     C_R   0.499984 0.749997 0.620622 0.828488
C25   C     C_R   0.999985 0.750004 0.620623 0.828866
C26   C     C_R   0.999984 0.750003 0.379377 0.828537
C27   C     C_R   0.999985 0.249996 0.379378 0.828889
C28   C     C_R   0.999984 0.249997 0.620622 0.828861
C29   C     C_R   0.999985 0.250004 0.120623 0.828102
C30   C     C_R   0.999984 0.250003 0.879377 0.828688
C31   C     C_R   0.999985 0.749996 0.879378 0.828845
C32   C     C_R   0.999983 0.749997 0.120622 0.829299
C33   C     C_R   0.370618 0.750001 0.250001 0.839235
C34   C     C_R   0.370618 0.750001 0.749999 0.839306
C35   C     C_R   0.370618 0.250001 0.750001 0.839335
C36   C     C_R   0.370617 0.250001 0.249999 0.839290
C37   C     C_R   0.870618 0.750001 0.750001 0.839449
C38   C     C_R   0.870618 0.750001 0.249999 0.839441
C39   C     C_R   0.870618 0.250001 0.250001 0.838545
C40   C     C_R   0.870618 0.250001 0.749999 0.839160
C41   C     C_R   0.629376 0.749999 0.250001 0.818362
C42   C     C_R   0.629375 0.749999 0.749999 0.818554
C43   C     C_R   0.629376 0.249999 0.750001 0.818552
C44   C     C_R   0.629375 0.249999 0.249999 0.818273
C45   C     C_R   0.129376 0.749999 0.750001 0.818234
C46   C     C_R   0.129375 0.749999 0.249999 0.818158
C47   C     C_R   0.129376 0.249999 0.250001 0.818536
C48   C     C_R   0.129375 0.249999 0.749999 0.818752
C49   C     C_1   0.681111 0.749998 0.250002 -0.120920
C50   C     C_1   0.681111 0.749998 0.749997 -0.121484
C51   C     C_1   0.681111 0.249998 0.750002 -0.121400
C52   C     C_1   0.681111 0.249998 0.249998 -0.120830
C53   C     C_1   0.181111 0.749998 0.750002 -0.120631
C54   C     C_1   0.181111 0.749998 0.249998 -0.121426
C55   C     C_1   0.181111 0.249998 0.250002 -0.121798
C56   C     C_1   0.181111 0.249998 0.749998 -0.121368
C57   C     C_1   0.724548 0.749999 0.250001 0.025884
C58   C     C_1   0.724548 0.749999 0.749999 0.025516
C59   C     C_1   0.724548 0.249999 0.750001 0.025667
C60   C     C_1   0.724548 0.249999 0.249999 0.025936
C61   C     C_1   0.224548 0.749999 0.750001 0.026166
C62   C     C_1   0.224548 0.749999 0.249999 0.025282
C63   C     C_1   0.224548 0.249999 0.250001 0.025154
C64   C     C_1   0.224548 0.249999 0.749999 0.025865
C65   C     C_1   0.775445 0.750001 0.249999 0.030131
C66   C     C_1   0.775445 0.750001 0.750001 0.029812
C67   C     C_1   0.775445 0.250001 0.749999 0.030162
C68   C     C_1   0.775446 0.250001 0.250001 0.030233
C69   C     C_1   0.275445 0.750001 0.749999 0.030556
C70   C     C_1   0.275446 0.750001 0.250001 0.029464
C71   C     C_1   0.275445 0.250001 0.249999 0.029371
C72   C     C_1   0.275445 0.250001 0.750001 0.030389
C73   C     C_1   0.818883 0.750002 0.249998 -0.115139
C74   C     C_1   0.818883 0.750002 0.750002 -0.115549
C75   C     C_1   0.818883 0.250001 0.749997 -0.114675
C76   C     C_1   0.818883 0.250002 0.250003 -0.114688
C77   C     C_1   0.318883 0.750002 0.749998 -0.114471
C78   C     C_1   0.318883 0.750002 0.250003 -0.115835
C79   C     C_1   0.318883 0.250002 0.249997 -0.115936
C80   C     C_1   0.318883 0.250002 0.750003 -0.114576
C81   C     C_3   0.548307 0.978311 0.242853 -0.417305
C82   C     C_3   0.546908 0.978313 0.764242 -0.416664
C83   C     C_3   0.546053 0.020883 0.770149 -0.389266
C84   C     C_3   0.548324 0.020881 0.236900 -0.389711
C85   C     C_3   0.547835 0.478314 0.739823 -0.417203
C86   C     C_3   0.548408 0.478308 0.256266 -0.417532
C87   C     C_3   0.548534 0.520877 0.262218 -0.389993
C88   C     C_3   0.547481 0.520884 0.733879 -0.389705
C89   C     C_3   0.047121 0.979108 0.732765 -0.389145
C90   C     C_3   0.047547 0.979106 0.265902 -0.389901
C91   C     C_3   0.047878 0.021676 0.259959 -0.417399
C92   C     C_3   0.047614 0.021678 0.738699 -0.416597
C93   C     C_3   0.046372 0.478756 0.232932 -0.406375
C94   C     C_3   0.048113 0.478310 0.758536 -0.417190
C95   C     C_3   0.047962 0.520879 0.764490 -0.389680
C96   C     C_3   0.047630 0.521325 0.239106 -0.412847
C97   C     C_3   0.474754 0.979107 0.293594 -0.393507
C98   C     C_3   0.481498 0.979120 0.703365 -0.394052
C99   C     C_3   0.487425 0.021689 0.702717 -0.421647
C100  C     C_3   0.480527 0.021677 0.295109 -0.421179
C101  C     C_3   0.477539 0.479108 0.794989 -0.393880
C102  C     C_3   0.473963 0.479112 0.206843 -0.393625
C103  C     C_3   0.479711 0.521683 0.205226 -0.421222
C104  C     C_3   0.483390 0.521678 0.796144 -0.421508
C105  C     C_3   0.984483 0.978321 0.796493 -0.421511
C106  C     C_3   0.983181 0.978328 0.203920 -0.421412
C107  C     C_3   0.977339 0.020899 0.205105 -0.393697
C108  C     C_3   0.978610 0.020892 0.795472 -0.393862
C109  C     C_3   0.982820 0.478593 0.295632 -0.428019
C110  C     C_3   0.976017 0.479113 0.705746 -0.393701
C111  C     C_3   0.981830 0.521683 0.704397 -0.421347
C112  C     C_3   0.977194 0.520975 0.294212 -0.427257
H1    H     H_    0.069523 0.528294 0.271429 0.195873
H2    H     H_    0.074208 0.533074 0.738713 0.189090
H3    H     H_    0.068746 0.471098 0.725477 0.194926
H4    H     H_    0.073506 0.466278 0.257548 0.188413
H5    H     H_    0.070081 0.028885 0.770540 0.195531
H6    H     H_    0.069460 0.028888 0.227513 0.194935
H7    H     H_    0.074526 0.966908 0.240893 0.189028
H8    H     H_    0.074777 0.966907 0.757021 0.189767
H9    H     H_    0.574572 0.533077 0.758766 0.189179
H10   H     H_    0.573569 0.533070 0.235262 0.188722
H11   H     H_    0.567500 0.471095 0.222294 0.194574
H12   H     H_    0.569560 0.471099 0.772175 0.195039
H13   H     H_    0.573834 0.033072 0.263407 0.188958
H14   H     H_    0.575137 0.033085 0.747629 0.189876
H15   H     H_    0.571274 0.971108 0.733827 0.195727
H16   H     H_    0.568002 0.971095 0.276478 0.194778
H17   H     H_    0.436353 0.971671 0.298094 0.259877
H18   H     H_    0.444157 0.971686 0.693334 0.259661
H19   H     H_    0.455921 0.035036 0.685362 0.234891
H20   H     H_    0.446833 0.035021 0.307702 0.235284
H21   H     H_    0.439488 0.471670 0.801842 0.259731
H22   H     H_    0.435487 0.471678 0.203027 0.259795
H23   H     H_    0.445799 0.535029 0.193236 0.235189
H24   H     H_    0.450533 0.535019 0.810784 0.235052
H25   H     H_    0.951971 0.964985 0.811887 0.235037
H26   H     H_    0.950258 0.964994 0.189425 0.235172
H27   H     H_    0.939258 0.028345 0.198421 0.259835
H28   H     H_    0.940728 0.028337 0.803202 0.259727
H29   H     H_    0.950049 0.466028 0.311360 0.241624
H30   H     H_    0.937757 0.471678 0.700167 0.259802
H31   H     H_    0.948504 0.535028 0.690862 0.235178
H32   H     H_    0.939129 0.528138 0.301178 0.249809
H33   H     H_    0.493890 0.966899 0.325005 0.184096
H34   H     H_    0.504992 0.966922 0.675058 0.184030
H35   H     H_    0.518651 0.028895 0.679400 0.191663
H36   H     H_    0.508032 0.028877 0.322718 0.191330
H37   H     H_    0.498571 0.466903 0.825167 0.183831
H38   H     H_    0.492537 0.466907 0.175096 0.183910
H39   H     H_    0.506721 0.528884 0.177132 0.191159
H40   H     H_    0.512540 0.528880 0.822010 0.191270
H41   H     H_    0.014222 0.971111 0.821679 0.191526
H42   H     H_    0.012216 0.971121 0.177925 0.191336
H43   H     H_    0.998238 0.033102 0.174836 0.183973
H44   H     H_    0.000334 0.033091 0.825156 0.184038
H45   H     H_    0.012290 0.471389 0.321144 0.192969
H46   H     H_    0.996029 0.466909 0.674884 0.183934
H47   H     H_    0.010102 0.528887 0.677573 0.191261
H48   H     H_    0.998102 0.533184 0.324477 0.191572
C113  C     C_1   0.999124 0.610699 0.249096 -0.064890
C114  C     C_1   0.999271 0.610702 0.750924 -0.064453
C115  C     C_1   0.999112 0.389298 0.750827 -0.064522
C116  C     C_1   0.998968 0.389293 0.248872 -0.063894
C117  C     C_1   0.999111 0.110702 0.749185 -0.064242
C118  C     C_1   0.999117 0.110702 0.250827 -0.064564
C119  C     C_1   0.999249 0.889298 0.250915 -0.064520
C120  C     C_1   0.999241 0.889298 0.749082 -0.064254
C121  C     C_1   0.499252 0.610702 0.749078 -0.064476
C122  C     C_1   0.499292 0.610702 0.250922 -0.064604
C123  C     C_1   0.499120 0.389297 0.250839 -0.064667
C124  C     C_1   0.499110 0.389298 0.749179 -0.064493
C125  C     C_1   0.499281 0.110702 0.249080 -0.064496
C126  C     C_1   0.499224 0.110702 0.750923 -0.064342
C127  C     C_1   0.499105 0.889298 0.750781 -0.064201
C128  C     C_1   0.499120 0.889298 0.249162 -0.064557
C129  C     C_3   0.495826 0.963370 0.245944 0.078598
C130  C     C_3   0.495432 0.963371 0.753563 0.078319
C131  C     C_3   0.496350 0.036629 0.754526 0.078483
C132  C     C_3   0.496884 0.036630 0.245151 0.078637
C133  C     C_3   0.495644 0.463371 0.746135 0.078781
C134  C     C_3   0.495879 0.463370 0.254110 0.078945
C135  C     C_3   0.496956 0.536629 0.254886 0.078973
C136  C     C_3   0.496644 0.536630 0.745274 0.078869
C137  C     C_3   0.996558 0.963371 0.745330 0.078301
C138  C     C_3   0.996658 0.963371 0.254730 0.078905
C139  C     C_3   0.995660 0.036630 0.253880 0.078776
C140  C     C_3   0.995583 0.036630 0.746214 0.078194
C141  C     C_3   0.995336 0.463390 0.244642 0.103174
C142  C     C_3   0.995739 0.463370 0.753969 0.078671
C143  C     C_3   0.996775 0.536629 0.754797 0.078734
C144  C     C_3   0.995676 0.536639 0.245433 0.087282
C145  C     C_3   0.963100 0.522744 0.201838 0.326392
C146  C     C_3   0.960047 0.522359 0.794810 0.334243
C147  C     C_3   0.963875 0.477653 0.797946 0.334005
C148  C     C_3   0.956735 0.478036 0.205912 0.326522
C149  C     C_3   0.961287 0.022355 0.704104 0.334078
C150  C     C_3   0.962535 0.022349 0.296915 0.334030
C151  C     C_3   0.958790 0.977645 0.293664 0.334375
C152  C     C_3   0.957634 0.977650 0.707453 0.334545
C153  C     C_3   0.458603 0.522361 0.706508 0.334205
C154  C     C_3   0.462105 0.522361 0.296544 0.334229
C155  C     C_3   0.466070 0.477655 0.299504 0.333958
C156  C     C_3   0.462329 0.477656 0.703245 0.333826
C157  C     C_3   0.461296 0.022364 0.204119 0.334474
C158  C     C_3   0.455194 0.022350 0.789962 0.334505
C159  C     C_3   0.458626 0.977644 0.793502 0.334010
C160  C     C_3   0.465212 0.977659 0.201088 0.334199
C161  C     C_1   0.997830 0.577413 0.247750 0.057071
C162  C     C_1   0.998341 0.577411 0.752392 0.048798
C163  C     C_1   0.997792 0.422588 0.751978 0.049162
C164  C     C_1   0.997565 0.422577 0.247227 0.085462
C165  C     C_1   0.997746 0.077412 0.748091 0.049409
C166  C     C_1   0.997773 0.077412 0.251949 0.049108
C167  C     C_1   0.998285 0.922589 0.252365 0.048815
C168  C     C_1   0.998247 0.922589 0.747649 0.049138
C169  C     C_1   0.498284 0.577411 0.747629 0.048808
C170  C     C_1   0.498418 0.577410 0.252414 0.048592
C171  C     C_1   0.497840 0.422588 0.252034 0.049029
C172  C     C_1   0.497762 0.422589 0.748060 0.049118
C173  C     C_1   0.498385 0.077411 0.247598 0.048816
C174  C     C_1   0.498167 0.077411 0.752316 0.049078
C175  C     C_1   0.497698 0.922589 0.751807 0.049304
C176  C     C_1   0.497824 0.922588 0.247985 0.049195
H49   H     H_    0.569063 0.964974 0.213472 0.238282
H50   H     H_    0.563183 0.964967 0.796317 0.238545
H51   H     H_    0.554812 0.028317 0.807808 0.262087
H52   H     H_    0.562456 0.028325 0.200914 0.261801
H53   H     H_    0.566746 0.464976 0.709223 0.238359
H54   H     H_    0.569683 0.464967 0.285272 0.238212
H55   H     H_    0.563305 0.528317 0.297947 0.261732
H56   H     H_    0.559375 0.528328 0.697091 0.261916
H57   H     H_    0.058161 0.971664 0.695713 0.262076
H58   H     H_    0.059602 0.971657 0.302636 0.261782
H59   H     H_    0.066924 0.035008 0.290477 0.238179
H60   H     H_    0.065814 0.035014 0.707670 0.238618
H61   H     H_    0.057785 0.471069 0.196071 0.262755
H62   H     H_    0.068033 0.464969 0.788489 0.238344
H63   H     H_    0.061076 0.528319 0.800860 0.261864
H64   H     H_    0.066503 0.534441 0.208284 0.236901
C177  C     C_1   0.499975 0.749998 0.431114 -0.117296
C178  C     C_1   0.499972 0.750000 0.568886 -0.117194
C179  C     C_1   0.499974 0.250002 0.568886 -0.118006
C180  C     C_1   0.499972 0.250000 0.431113 -0.118032
C181  C     C_1   0.499975 0.249999 0.931114 -0.117947
C182  C     C_1   0.499972 0.250000 0.068886 -0.117721
C183  C     C_1   0.499974 0.750002 0.068887 -0.118436
C184  C     C_1   0.499972 0.750000 0.931113 -0.118746
C185  C     C_1   0.999974 0.749998 0.931114 -0.117699
C186  C     C_1   0.999972 0.750000 0.068886 -0.117854
C187  C     C_1   0.999975 0.250001 0.068887 -0.117920
C188  C     C_1   0.999972 0.250000 0.931113 -0.117794
C189  C     C_1   0.999974 0.249998 0.431114 -0.118068
C190  C     C_1   0.999972 0.250000 0.568886 -0.118195
C191  C     C_1   0.999975 0.750002 0.568886 -0.117972
C192  C     C_1   0.999972 0.750000 0.431113 -0.117720
C193  C     C_1   0.499969 0.749999 0.474551 0.028556
C194  C     C_1   0.499968 0.750000 0.525449 0.028578
C195  C     C_1   0.499969 0.250001 0.525449 0.028203
C196  C     C_1   0.499968 0.250000 0.474551 0.028224
C197  C     C_1   0.499969 0.250000 0.974551 0.028016
C198  C     C_1   0.499968 0.250000 0.025449 0.028091
C199  C     C_1   0.499969 0.750001 0.025449 0.027779
C200  C     C_1   0.499968 0.750000 0.974551 0.027652
C201  C     C_1   0.999969 0.749999 0.974551 0.028311
C202  C     C_1   0.999968 0.750000 0.025449 0.028312
C203  C     C_1   0.999969 0.250001 0.025449 0.028043
C204  C     C_1   0.999968 0.250000 0.974551 0.028143
C205  C     C_1   0.999969 0.249999 0.474551 0.028044
C206  C     C_1   0.999968 0.250000 0.525449 0.027982
C207  C     C_1   0.999969 0.750001 0.525449 0.028077
C208  C     C_1   0.999968 0.750000 0.474551 0.028113
N1    N     N_R   0.489837 0.965069 0.156429 0.217664
O105  O     O_R   0.528397 0.981209 0.140107 -0.346125
O106  O     O_R   0.476132 0.934603 0.135549 -0.290008
N2    N     N_R   0.476500 0.965033 0.841258 0.217703
O107  O     O_R   0.512300 0.981150 0.863006 -0.342952
O108  O     O_R   0.459868 0.934582 0.859936 -0.291449
N3    N     N_R   0.459562 0.038533 0.838884 0.242122
O109  O     O_R   0.492599 0.062571 0.849991 -0.356788
O110  O     O_R   0.427066 0.030741 0.871090 -0.229289
N4    N     N_R   0.472695 0.038566 0.156353 0.242022
O111  O     O_R   0.507015 0.062584 0.150147 -0.357114
O112  O     O_R   0.445185 0.030802 0.119787 -0.226575
N5    N     N_R   0.484164 0.465065 0.657157 0.217826
O113  O     O_R   0.521647 0.481208 0.638494 -0.343860
O114  O     O_R   0.469207 0.434597 0.637161 -0.289950
N6    N     N_R   0.491486 0.465059 0.343716 0.217758
O115  O     O_R   0.530332 0.481195 0.359350 -0.345692
O116  O     O_R   0.478151 0.434592 0.364839 -0.289142
N7    N     N_R   0.474354 0.538556 0.344101 0.242077
O117  O     O_R   0.508781 0.562572 0.349695 -0.356647
O118  O     O_R   0.447499 0.530789 0.381150 -0.225499
N8    N     N_R   0.467044 0.538563 0.658130 0.242147
O119  O     O_R   0.500914 0.562585 0.649829 -0.356363
O120  O     O_R   0.437342 0.530795 0.623323 -0.226952
N9    N     N_R   0.964955 0.961452 0.658894 0.242081
O121  O     O_R   0.998622 0.937423 0.649813 -0.356650
O122  O     O_R   0.934458 0.969228 0.624781 -0.227964
N10   N     N_R   0.967443 0.961440 0.342002 0.242104
O123  O     O_R   0.001348 0.937411 0.350153 -0.356966
O124  O     O_R   0.937894 0.969211 0.376940 -0.227386
N11   N     N_R   0.984574 0.034933 0.342906 0.217746
O125  O     O_R   0.022136 0.018781 0.361403 -0.344941
O126  O     O_R   0.969709 0.065405 0.362969 -0.290458
N12   N     N_R   0.982054 0.034945 0.657525 0.217721
O127  O     O_R   0.019093 0.018796 0.638002 -0.343950
O128  O     O_R   0.966643 0.065420 0.637881 -0.290703
N13   N     N_R   0.963602 0.460643 0.158049 0.237837
O129  O     O_R   0.996713 0.435961 0.149962 -0.362769
O130  O     O_R   0.934945 0.469415 0.122777 -0.225855
N14   N     N_R   0.987234 0.465057 0.843279 0.217771
O131  O     O_R   0.025319 0.481194 0.860682 -0.344946
O132  O     O_R   0.972946 0.434588 0.863764 -0.289914
N15   N     N_R   0.970098 0.538554 0.842879 0.242109
O133  O     O_R   0.004229 0.562573 0.850048 -0.356578
O134  O     O_R   0.941572 0.530785 0.878657 -0.226369
N16   N     N_R   0.987594 0.534266 0.156496 0.225656
O135  O     O_R   0.021047 0.514378 0.136370 -0.334703
O136  O     O_R   0.982124 0.567991 0.140995 -0.306335
N17   N     N_R   0.416112 0.961470 0.199947 0.241401
O137  O     O_R   0.387754 0.969255 0.164041 -0.241905
O138  O     O_R   0.401376 0.937437 0.231541 -0.370534
N18   N     N_R   0.409879 0.961461 0.787487 0.241459
O139  O     O_R   0.376604 0.969236 0.818894 -0.244899
O140  O     O_R   0.399887 0.937440 0.754076 -0.369194
N19   N     N_R   0.408062 0.034954 0.770492 0.215690
O141  O     O_R   0.388772 0.065362 0.786556 -0.305478
O142  O     O_R   0.387558 0.018855 0.733953 -0.360555
N20   N     N_R   0.411843 0.034964 0.216568 0.215693
O143  O     O_R   0.395153 0.065446 0.198018 -0.305688
O144  O     O_R   0.386235 0.018817 0.249692 -0.360942
N21   N     N_R   0.413254 0.461464 0.705123 0.241429
O145  O     O_R   0.382741 0.469246 0.671026 -0.243164
O146  O     O_R   0.400486 0.437434 0.737567 -0.370040
N22   N     N_R   0.416998 0.461468 0.301519 0.241406
O147  O     O_R   0.389284 0.469250 0.337925 -0.241386
O148  O     O_R   0.401699 0.437439 0.270192 -0.370831
N23   N     N_R   0.412438 0.534964 0.284979 0.215702
O149  O     O_R   0.396083 0.565443 0.303826 -0.305589
O150  O     O_R   0.386243 0.518822 0.252315 -0.361143
N24   N     N_R   0.410006 0.534958 0.721970 0.215735
O151  O     O_R   0.392203 0.565438 0.704478 -0.305652
O152  O     O_R   0.386485 0.518812 0.756609 -0.360632
N25   N     N_R   0.909407 0.965062 0.724033 0.215701
O153  O     O_R   0.891203 0.934586 0.706958 -0.305964
O154  O     O_R   0.886691 0.981210 0.759204 -0.360937
N26   N     N_R   0.910125 0.965059 0.278415 0.215708
O155  O     O_R   0.892399 0.934581 0.295981 -0.305615
O156  O     O_R   0.886451 0.981212 0.243884 -0.360428
N27   N     N_R   0.913453 0.038551 0.295255 0.241419
O157  O     O_R   0.883092 0.030774 0.329486 -0.242972
O158  O     O_R   0.900544 0.062586 0.262871 -0.369790
N28   N     N_R   0.912269 0.038556 0.707113 0.241430
O159  O     O_R   0.880978 0.030784 0.673729 -0.243861
O160  O     O_R   0.900254 0.062586 0.739843 -0.369960
N29   N     N_R   0.907114 0.467736 0.221638 0.203487
O161  O     O_R   0.870300 0.477053 0.195368 -0.248265
O162  O     O_R   0.900147 0.440746 0.251809 -0.394529
N30   N     N_R   0.914763 0.461464 0.797705 0.241396
O163  O     O_R   0.885405 0.469245 0.832800 -0.242445
O164  O     O_R   0.900920 0.437436 0.765706 -0.370408
N31   N     N_R   0.910963 0.534961 0.780977 0.215727
O165  O     O_R   0.893757 0.565438 0.799054 -0.305563
O166  O     O_R   0.886297 0.518819 0.747142 -0.360802
N32   N     N_R   0.915257 0.541123 0.201804 0.229720
O167  O     O_R   0.890902 0.543191 0.161826 -0.228362
O168  O     O_R   0.898419 0.558500 0.239179 -0.388806

loop_
_geom_bond_atom_site_label_1
_geom_bond_atom_site_label_2
_geom_bond_distance
_ccdc_geom_bond_type
Zn29  O101  1.913531 S    
N7    O117  1.301777 A    
Zn4   O4    1.918962 S    
O87   C31   1.271279 A    
O98   C10   1.268854 A    
O40   C32   1.271302 A    
N17   O137  1.302427 A    
O72   C46   1.271422 A    
C37   C74   1.437841 S    
O48   C34   1.271039 A    
C7    C128  1.433299 S    
C8    C127  1.433299 S    
N21   O145  1.302440 A    
C83   H14   1.113543 S    
O88   C32   1.271272 A    
C92   H5    1.114047 S    
C59   C67   1.414545 S    
Zn28  O8    1.918356 S    
C190  C206  1.207254 T    
C127  C175  1.205273 T    
C89   C92   1.548845 S    
C57   C65   1.414545 S    
O16   C8    1.268998 A    
C89   C137  1.555920 S    
C102  H22   1.107750 S    
N25   O154  1.302029 A    
C156  N5    1.488765 S    
O60   C44   1.271424 A    
C112  C144  1.556547 S    
Zn13  O19   1.913030 S    
C2    C121  1.433311 S    
C100  C132  1.557928 S    
Zn14  O20   1.912992 S    
Zn24  O96   1.913635 S    
O50   C38   1.271028 A    
C101  C133  1.555931 S    
N31   O166  1.302048 A    
O64   C42   1.271422 A    
C160  N17   1.485338 S    
C60   C68   1.414553 S    
Zn11  O83   1.906325 S    
O97   C9    1.269057 A    
Zn26  O98   1.913568 S    
Zn2   O2    1.919093 S    
Zn25  O97   1.913531 S    
Zn5   O11   1.913030 S    
C64   C72   1.414551 S    
C81   H16   1.114037 S    
Zn6   O12   1.912992 S    
Zn25  O49   1.906300 S    
Zn7   O1    1.918888 S    
Zn15  O65   1.906932 S    
O104  C16   1.269055 A    
Zn29  O37   1.906300 S    
O36   C28   1.271303 A    
C107  H43   1.113541 S    
N32   O168  1.301244 A    
C90   H58   1.107756 S    
Zn31  O55   1.906368 S    
C146  C147  1.623054 S    
N19   O141  1.302570 A    
Zn7   O79   1.906324 S    
C98   C130  1.555920 S    
O14   C6    1.268550 A    
Zn10  O82   1.906299 S    
O21   C13   1.268964 A    
C158  C159  1.623020 S    
Zn26  O6    1.918488 S    
C110  H46   1.113541 S    
C99   H35   1.114052 S    
Zn31  O5    1.918427 S    
Zn26  O34   1.906338 S    
Zn12  O8    1.918962 S    
Zn6   O4    1.919093 S    
N23   O150  1.302044 A    
Zn4   O76   1.906288 S    
Zn9   O71   1.906867 S    
C68   C76   1.207228 T    
O46   C36   1.271029 A    
O101  C13   1.268664 A    
N27   O158  1.301770 A    
O95   C7    1.268698 A    
O23   C15   1.268591 A    
O96   C8    1.268630 A    
C178  C194  1.207256 T    
Zn18  O90   1.913568 S    
C111  C143  1.557929 S    
C35   C80   1.437841 S    
N18   O140  1.301790 A    
N29   O162  1.301482 A    
N28   O159  1.302429 A    
C83   H51   1.107754 S    
C153  C156  1.623046 S    
C109  C141  1.559444 S    
N10   O123  1.301777 A    
C23   C177  1.437892 S    
C155  N6    1.488756 S    
C149  C152  1.623074 S    
C53   C61   1.207226 T    
C103  H39   1.114038 S    
O80   C24   1.271271 A    
O71   C45   1.271378 A    
C132  C157  1.595361 S    
Zn14  O68   1.906872 S    
Zn21  O3    1.918566 S    
Zn22  O4    1.918488 S    
C193  C194  1.414593 S    
C129  C160  1.595334 S    
Zn10  O6    1.919093 S    
Zn19  O27   1.906289 S    
C153  N8    1.485362 S    
Zn2   O64   1.906872 S    
Zn19  O3    1.918427 S    
C205  C206  1.414595 S    
C160  N1    1.488758 S    
C144  C161  1.477621 S    
C99   H19   1.110096 S    
Zn16  O66   1.906940 S    
Zn6   O60   1.906872 S    
Zn27  O51   1.906368 S    
Zn2   O74   1.906299 S    
Zn24  O32   1.906325 S    
Zn15  O17   1.913097 S    
O83   C27   1.271277 A    
N13   O129  1.301697 A    
N8    O120  1.302447 A    
O82   C26   1.271347 A    
C105  H41   1.114045 S    
C42   C50   1.437855 S    
O69   C47   1.271388 A    
N20   O143  1.302579 A    
C109  C112  1.541626 S    
O33   C25   1.271377 A    
C119  C167  1.205267 T    
O10   C2    1.268581 A    
C46   C54   1.437855 S    
N1    O105  1.302034 A    
O75   C19   1.271277 A    
Zn1   O73   1.906338 S    
C88   H9    1.113543 S    
C97   H33   1.113530 S    
C134  C155  1.595333 S    
N5    O113  1.302057 A    
O15   C7    1.268927 A    
C203  C204  1.414609 S    
C84   H13   1.113536 S    
O31   C23   1.271297 A    
O77   C21   1.271362 A    
C130  C159  1.595352 S    
C201  C202  1.414593 S    
O22   C14   1.268973 A    
C34   C77   1.437835 S    
C138  C151  1.595360 S    
N7    O118  1.302428 A    
Zn19  O91   1.913598 S    
N2    O107  1.302063 A    
Zn28  O36   1.906325 S    
C135  C170  1.477410 S    
N11   O126  1.302557 A    
C177  C193  1.207256 T    
C199  C200  1.414612 S    
Zn32  O56   1.906361 S    
O91   C3    1.268669 A    
C14   C117  1.433305 S    
O56   C38   1.271042 A    
O94   C6    1.269071 A    
C150  N11   1.488762 S    
C81   H49   1.110099 S    
O44   C36   1.271041 A    
C83   C131  1.555944 S    
Zn15  O5    1.918888 S    
O79   C23   1.271277 A    
C148  N13   1.483912 S    
C15   C120  1.433303 S    
C137  C168  1.477419 S    
O93   C5    1.269010 A    
Zn30  O102  1.913568 S    
C154  C155  1.623059 S    
N3    O110  1.302432 A    
O99   C11   1.268945 A    
N16   O135  1.301833 A    
C152  N25   1.488742 S    
C31   C185  1.437892 S    
C185  C201  1.207256 T    
C86   H11   1.114041 S    
C56   C64   1.207231 T    
O20   C12   1.268939 A    
O39   C31   1.271295 A    
Zn17  O41   1.906300 S    
C82   H15   1.114052 S    
C96   C144  1.556453 S    
C67   C75   1.207220 T    
C139  C150  1.595340 S    
C65   C73   1.207220 T    
N26   O155  1.302586 A    
C192  C208  1.207267 T    
O63   C41   1.271378 A    
N4    O112  1.302432 A    
C92   C140  1.557924 S    
C123  C171  1.205262 T    
Zn13  O7    1.919018 S    
C108  C140  1.555923 S    
C189  C205  1.207256 T    
N22   O147  1.302429 A    
Zn23  O1    1.918427 S    
O85   C29   1.271361 A    
C32   C186  1.437892 S    
C150  C151  1.623058 S    
C3    C124  1.433314 S    
O74   C18   1.271349 A    
O81   C25   1.271358 A    
C102  C134  1.555927 S    
C115  C163  1.205267 T    
Zn28  O100  1.913635 S    
O49   C37   1.271073 A    
Zn13  O67   1.906866 S    
N24   O152  1.302045 A    
Zn3   O3    1.918888 S    
Zn1   O63   1.906867 S    
N30   O164  1.301779 A    
N25   O153  1.302591 A    
Zn3   O61   1.906933 S    
Zn8   O2    1.918962 S    
Zn5   O59   1.906866 S    
C136  C169  1.477409 S    
C20   C182  1.437892 S    
C94   C142  1.557926 S    
O24   C16   1.268572 A    
C132  C173  1.477414 S    
C141  C164  1.479425 S    
C107  H27   1.107751 S    
C159  N18   1.485361 S    
C90   C138  1.555916 S    
C129  C176  1.477412 S    
C154  N7    1.485352 S    
N6    O115  1.302018 A    
C182  C198  1.207254 T    
C120  C168  1.205266 T    
Zn21  O29   1.906300 S    
O67   C47   1.271380 A    
C86   H54   1.110107 S    
C144  C145  1.593905 S    
C116  C164  1.205521 T    
C101  H21   1.107753 S    
C140  C165  1.477418 S    
C87   C135  1.555905 S    
C105  C108  1.548862 S    
Zn9   O81   1.906338 S    
C152  N9    1.485343 S    
C88   C136  1.555920 S    
C147  N14   1.488757 S    
C131  C158  1.595365 S    
C197  C198  1.414595 S    
C70   C78   1.207228 T    
Zn5   O3    1.919018 S    
Zn15  O87   1.906324 S    
Zn7   O9    1.913097 S    
C111  H31   1.110093 S    
N24   O151  1.302570 A    
C97   C100  1.548906 S    
Zn12  O22   1.913059 S    
C112  H32   1.106231 S    
Zn27  O35   1.906289 S    
C121  C169  1.205267 T    
N15   O133  1.301769 A    
C106  C138  1.557920 S    
O12   C4    1.268915 A    
C90   C91   1.548830 S    
C146  N15   1.485355 S    
C101  C104  1.548868 S    
N27   O157  1.302429 A    
C137  C152  1.595355 S    
C109  H29   1.107811 S    
C96   H1    1.113931 S    
N12   O127  1.302024 A    
C94   H3    1.114047 S    
C138  C167  1.477418 S    
Zn12  O84   1.906288 S    
C113  C161  1.205242 T    
O58   C42   1.271438 A    
Zn28  O52   1.906361 S    
C38   C73   1.437832 S    
N17   O138  1.301772 A    
C61   C69   1.414545 S    
C100  H36   1.114036 S    
C101  H37   1.113542 S    
C155  N22   1.485324 S    
O61   C43   1.271391 A    
Zn32  O40   1.906325 S    
C95   C143  1.555914 S    
C81   C84   1.548813 S    
C153  N24   1.488752 S    
C19   C181  1.437892 S    
N28   O160  1.301785 A    
C21   C179  1.437908 S    
Zn16  O18   1.913059 S    
C85   C88   1.548827 S    
Zn8   O80   1.906288 S    
C93   C141  1.557867 S    
C106  H42   1.114042 S    
C43   C51   1.437843 S    
N5    O114  1.302551 A    
C58   C66   1.414551 S    
C179  C195  1.207265 T    
C6    C125  1.433301 S    
C41   C49   1.437843 S    
O34   C26   1.271385 A    
O78   C22   1.271351 A    
C105  H25   1.110100 S    
O76   C20   1.271269 A    
C107  C139  1.555930 S    
O26   C18   1.271386 A    
C110  C111  1.548890 S    
C45   C53   1.437843 S    
C154  N23   1.488748 S    
C29   C187  1.437906 S    
C85   H53   1.110102 S    
C98   H34   1.113551 S    
C30   C188  1.437908 S    
C139  C166  1.477409 S    
C48   C56   1.437855 S    
Zn20  O28   1.906325 S    
C85   H12   1.114050 S    
C96   H64   1.110897 S    
C25   C191  1.437908 S    
O9    C1    1.268546 A    
C92   H60   1.110103 S    
C26   C192  1.437908 S    
O18   C10   1.268856 A    
Zn23  O31   1.906289 S    
C69   C77   1.207220 T    
Zn26  O50   1.906295 S    
N29   O161  1.301312 A    
C157  N20   1.488744 S    
O13   C5    1.268621 A    
C157  N4    1.485355 S    
C88   H56   1.107757 S    
C147  N30   1.485334 S    
Zn17  O1    1.918566 S    
Zn30  O38   1.906338 S    
C50   C58   1.207231 T    
C91   H6    1.114043 S    
N21   O146  1.301766 A    
C91   H59   1.110101 S    
O55   C37   1.271087 A    
C135  C154  1.595360 S    
Zn27  O7    1.918427 S    
C104  H40   1.114048 S    
O90   C2    1.269047 A    
Zn31  O103  1.913598 S    
C63   C71   1.414545 S    
C102  C103  1.548913 S    
Zn32  O104  1.913635 S    
C9    C114  1.433301 S    
Zn1   O15   1.913030 S    
C87   H55   1.107763 S    
Zn2   O16   1.912992 S    
C150  N27   1.485339 S    
O25   C17   1.271375 A    
Zn3   O13   1.913097 S    
C47   C55   1.437843 S    
C148  N29   1.493927 S    
N14   O132  1.302588 A    
N1    O106  1.302571 A    
O66   C46   1.271438 A    
N11   O125  1.302044 A    
O28   C20   1.271303 A    
C103  C135  1.557932 S    
O29   C21   1.271375 A    
C104  C136  1.557925 S    
C188  C204  1.207267 T    
C118  C166  1.205267 T    
C145  N16   1.491721 S    
O32   C24   1.271303 A    
C71   C79   1.207220 T    
C106  C107  1.548877 S    
O17   C9    1.268570 A    
C183  C199  1.207265 T    
C184  C200  1.207265 T    
Zn22  O46   1.906295 S    
Zn17  O89   1.913531 S    
C10   C113  1.433401 S    
N20   O144  1.302028 A    
C98   C99   1.548818 S    
Zn21  O93   1.913531 S    
C110  C142  1.555925 S    
C99   C131  1.557933 S    
C151  N26   1.488744 S    
C54   C62   1.207228 T    
Zn23  O95   1.913598 S    
N10   O124  1.302434 A    
C140  C149  1.595347 S    
N32   O167  1.303177 A    
C131  C174  1.477414 S    
C105  C137  1.557923 S    
O92   C4    1.268713 A    
N22   O148  1.301785 A    
C133  C156  1.595353 S    
C158  N19   1.488763 S    
Zn13  O85   1.906337 S    
C195  C196  1.414609 S    
C84   C132  1.555906 S    
C85   C133  1.557925 S    
C93   C96   1.549864 S    
C40   C75   1.437832 S    
O47   C33   1.271087 A    
N2    O108  1.302546 A    
C90   H7    1.113544 S    
C27   C189  1.437892 S    
C143  C162  1.477413 S    
Zn5   O77   1.906337 S    
O103  C15   1.269037 A    
Zn19  O43   1.906368 S    
C22   C180  1.437908 S    
O30   C22   1.271383 A    
C94   C95   1.548824 S    
O68   C48   1.271424 A    
Zn24  O2    1.918356 S    
C136  C153  1.595370 S    
Zn22  O94   1.913568 S    
C89   H57   1.107759 S    
Zn20  O4    1.918356 S    
C12   C115  1.433304 S    
N18   O139  1.302422 A    
C13   C118  1.433304 S    
C106  H26   1.110099 S    
C100  H20   1.110091 S    
C159  N2    1.488772 S    
N16   O136  1.302692 A    
O52   C40   1.271043 A    
C95   H63   1.107758 S    
Zn17  O25   1.906300 S    
N15   O134  1.302432 A    
O102  C14   1.268655 A    
C86   C134  1.557921 S    
O51   C39   1.271088 A    
Zn27  O99   1.913598 S    
C142  C163  1.477415 S    
C82   H50   1.110101 S    
Zn8   O10   1.913059 S    
C117  C165  1.205269 T    
N26   O156  1.302028 A    
C17   C183  1.437908 S    
Zn1   O1    1.919018 S    
Zn4   O14   1.913059 S    
C33   C78   1.437841 S    
C112  H48   1.113721 S    
C55   C63   1.207226 T    
O38   C30   1.271385 A    
C98   H18   1.107747 S    
O89   C1    1.269078 A    
N31   O165  1.302557 A    
Zn7   O57   1.906932 S    
C111  H47   1.114043 S    
N14   O131  1.302025 A    
Zn20  O44   1.906361 S    
C141  C148  1.609397 S    
N13   O130  1.302296 A    
C97   C129  1.555929 S    
C110  H30   1.107749 S    
N8    O119  1.301759 A    
N30   O163  1.302431 A    
Zn25  O5    1.918566 S    
C108  H44   1.113544 S    
C126  C174  1.205277 T    
C109  H45   1.114198 S    
Zn14  O86   1.906298 S    
C87   H10   1.113541 S    
C94   H62   1.110101 S    
C207  C208  1.414609 S    
O11   C3    1.268959 A    
Zn9   O23   1.913030 S    
O57   C41   1.271391 A    
Zn30  O54   1.906295 S    
C36   C79   1.437832 S    
Zn10  O24   1.912992 S    
C158  N3    1.485377 S    
Zn11  O21   1.913097 S    
O45   C35   1.271073 A    
C81   C129  1.557920 S    
N6    O116  1.302603 A    
C72   C80   1.207228 T    
C149  N12   1.488752 S    
Zn6   O78   1.906298 S    
C44   C52   1.437852 S    
O86   C30   1.271350 A    
C66   C74   1.207228 T    
O84   C28   1.271269 A    
Zn24  O48   1.906361 S    
O37   C29   1.271376 A    
C93   H61   1.107941 S    
C122  C170  1.205266 T    
Zn20  O92   1.913635 S    
C84   H52   1.107754 S    
O100  C12   1.268689 A    
Zn25  O33   1.906300 S    
C128  C176  1.205266 T    
Zn11  O69   1.906933 S    
C181  C197  1.207256 T    
N23   O149  1.302562 A    
O27   C19   1.271295 A    
C145  N32   1.486586 S    
Zn3   O75   1.906325 S    
O73   C17   1.271356 A    
C97   H17   1.107749 S    
C124  C172  1.205263 T    
C134  C171  1.477416 S    
O59   C43   1.271378 A    
C114  C162  1.205267 T    
C28   C190  1.437892 S    
Zn12  O70   1.906941 S    
O35   C27   1.271295 A    
C62   C70   1.414553 S    
Zn22  O30   1.906338 S    
N3    O109  1.301781 A    
O19   C11   1.268692 A    
Zn29  O7    1.918566 S    
Zn9   O5    1.919018 S    
Zn30  O8    1.918488 S    
O62   C44   1.271436 A    
C39   C76   1.437841 S    
Zn11  O7    1.918888 S    
Zn18  O2    1.918488 S    
C125  C173  1.205266 T    
Zn4   O62   1.906941 S    
C146  N31   1.488751 S    
C5    C126  1.433303 S    
Zn32  O6    1.918356 S    
O43   C35   1.271088 A    
C145  C148  1.630883 S    
C133  C172  1.477409 S    
Zn8   O58   1.906940 S    
N12   O128  1.302596 A    
C91   C139  1.557925 S    
C156  N21   1.485350 S    
C108  H28   1.107755 S    
N4    O111  1.301773 A    
C157  C160  1.623056 S    
Zn16  O88   1.906288 S    
C51   C59   1.207226 T    
Zn29  O53   1.906300 S    
C180  C196  1.207267 T    
C49   C57   1.207226 T    
Zn18  O26   1.906338 S    
C102  H38   1.113538 S    
C143  C146  1.595360 S    
O65   C45   1.271391 A    
C130  C175  1.477409 S    
C187  C203  1.207267 T    
N9    O122  1.302430 A    
C103  H23   1.110095 S    
O70   C48   1.271436 A    
C104  H24   1.110097 S    
Zn10  O72   1.906872 S    
C24   C178  1.437892 S    
C18   C184  1.437908 S    
C16   C119  1.433305 S    
C82   C83   1.548870 S    
C89   H8    1.113542 S    
C191  C207  1.207265 T    
Zn31  O39   1.906289 S    
C149  N28   1.485330 S    
O53   C39   1.271073 A    
O54   C40   1.271027 A    
C86   C87   1.548805 S    
O42   C34   1.271028 A    
C93   H4    1.113723 S    
Zn14  O8    1.919093 S    
C4    C123  1.433299 S    
C11   C116  1.433390 S    
C52   C60   1.207231 T    
Zn18  O42   1.906295 S    
N9    O121  1.301781 A    
Zn21  O45   1.906300 S    
C142  C147  1.595341 S    
N19   O142  1.302054 A    
C151  N10   1.485347 S    
C186  C202  1.207256 T    
C82   C130  1.557948 S    
Zn23  O47   1.906368 S    
C95   H2    1.113540 S    
O41   C33   1.271073 A    
C1    C122  1.433298 S    
Zn16  O6    1.918962 S    
