data_mof_unit_68436.cif
_audit_creation_date              2013-03-05T15:58:39-0500
_audit_creation_method            fapswitch 2.2
_symmetry_space_group_name_H-M    P1
_symmetry_Int_Tables_number       1
_space_group_crystal_system       triclinic
_cell_length_a                    8.457527
_cell_length_b                    13.427333
_cell_length_c                    15.05717
_cell_angle_alpha                 97.139675
_cell_angle_beta                  97.452183
_cell_angle_gamma                 99.467452
_cell_volume                      1653.74503858

loop_
_atom_site_label
_atom_site_type_symbol
_atom_site_description
_atom_site_fract_x
_atom_site_fract_y
_atom_site_fract_z
_atom_type_partial_charge
P1    P     P_3+3 0.998770 0.403620 0.291990 0.441985
O1    O     O_2   0.827930 0.435360 0.277760 -0.350704
O2    O     O_3   0.100310 0.439010 0.391180 -0.438544
O3    O     O_3   0.625610 0.634200 0.333270 -0.392106
O4    O     O_2   0.702404 0.543936 0.179886 -0.368339
O5    O     O_3   0.909998 0.274907 0.275241 -0.542644
O6    O     O_3   0.636143 0.724831 0.173737 -0.545796
H1    H     H_    0.719047 0.795872 0.308377 0.064847
C1    C     C_3   0.739876 0.905559 0.220391 -0.999218
H2    H     H_    0.868631 0.902626 0.224410 0.252057
H3    H     H_    0.688948 0.918078 0.151927 0.283123
P2    P     P_3+3 0.687370 0.751000 0.571300 0.476816
P3    P     P_3+3 0.121329 0.818751 0.381481 0.487968
O7    O     O_2   0.857120 0.766320 0.543890 -0.343430
O8    O     O_3   0.056570 0.691100 0.379020 -0.374774
O9    O     O_2   0.984320 0.872808 0.411194 -0.420257
O10   O     O_3   0.725870 0.814038 0.683477 -0.586717
O11   O     O_3   0.126626 0.840264 0.269893 -0.536625
C2    C     C_3   0.053937 0.757287 0.203898 0.272301
H4    H     H_    0.925529 0.736996 0.211344 0.131450
H5    H     H_    0.108905 0.688836 0.212177 0.096061
C3    C     C_3   0.073843 0.791043 0.109548 0.350569
C4    C     C_3   0.270963 0.762062 0.641175 0.390559
H6    H     H_    0.350251 0.718709 0.605346 0.093170
H7    H     H_    0.151802 0.754239 0.597884 0.157239
C5    C     C_3   0.349354 0.874202 0.663192 -1.000531
H8    H     H_    0.480085 0.880928 0.684375 0.259699
H9    H     H_    0.330002 0.915758 0.605626 0.255305
H10   H     H_    0.299053 0.913045 0.718896 0.295823
Ba1   Ba    Ba6+2 0.843760 0.550230 0.455610 1.574087
C6    C     C_3   0.025111 0.215820 0.261053 0.331772
H11   H     H_    0.974925 0.139936 0.277303 0.100724
H12   H     H_    0.136904 0.248576 0.308761 0.097669
C7    C     C_3   0.051537 0.202208 0.162235 -1.061388
H13   H     H_    0.933048 0.186073 0.116874 0.282628
H14   H     H_    0.116241 0.137757 0.149505 0.241621
H15   H     H_    0.127337 0.270869 0.146183 0.249448
C8    C     C_3   0.764287 0.765049 0.757093 0.480896
H16   H     H_    0.799656 0.689917 0.737752 0.065521
C9    C     C_3   0.616602 0.756836 0.803999 -0.225869
H17   H     H_    0.584922 0.833476 0.821398 0.151778
H18   H     H_    0.519734 0.712303 0.755687 0.192498
P4    P     P_3+3 0.190950 0.596470 0.708020 0.424857
O12   O     O_2   0.361790 0.564680 0.722290 -0.379084
O13   O     O_3   0.089410 0.561080 0.608830 -0.440277
O14   O     O_3   0.564100 0.365890 0.666740 -0.398930
O15   O     O_3   0.250981 0.727811 0.723483 -0.602494
P5    P     P_3+3 0.082153 0.179624 0.630377 0.472662
O16   O     O_3   0.601940 0.368260 0.453780 -0.408764
O17   O     O_3   0.133140 0.308990 0.620990 -0.408409
O18   O     O_2   0.198880 0.135547 0.573269 -0.364980
O19   O     O_3   0.159129 0.148909 0.736342 -0.500430
Ba2   Ba    Ba6+2 0.346080 0.449860 0.544400 1.533519
P6    P     P_3+3 0.580174 0.607808 0.213578 0.483990
C10   C     C_3   0.648504 0.807019 0.244352 0.850320
H19   H     H_    0.731666 0.971954 0.270551 0.241064
O20   O     O_3   0.587770 0.631830 0.546230 -0.406015
C11   C     C_3   0.478475 0.288467 0.269007 0.472325
H20   H     H_    0.363797 0.314831 0.276837 0.008428
H21   H     H_    0.577197 0.352755 0.296773 0.158217
C12   C     C_3   0.487219 0.261769 0.168723 -0.967885
H22   H     H_    0.394463 0.193665 0.138071 0.255307
H23   H     H_    0.465928 0.327033 0.132990 0.218772
H24   H     H_    0.608946 0.244954 0.159846 0.286488
P7    P     P_3+3 0.509791 0.234674 0.430457 0.448589
O21   O     O_2   0.332600 0.233710 0.456170 -0.382795
O22   O     O_3   0.492020 0.202509 0.312198 -0.569454
C13   C     C_3   0.145187 0.219124 0.811771 0.655571
H25   H     H_    0.191745 0.298603 0.801542 0.093089
C14   C     C_3   0.252207 0.194009 0.894249 -0.862651
H26   H     H_    0.280979 0.259276 0.950345 0.221268
H27   H     H_    0.192171 0.124534 0.918203 0.234410
H28   H     H_    0.367346 0.176298 0.877216 0.285237
P8    P     P_3+3 0.610348 0.385222 0.783958 0.475493
C15   C     C_3   0.585966 0.191540 0.743570 0.469168
H29   H     H_    0.701165 0.211638 0.716604 0.019234
O23   O     O_2   0.477877 0.437435 0.821163 -0.348568
O24   O     O_3   0.575116 0.264639 0.816666 -0.561473
H30   H     H_    0.482173 0.185104 0.688455 0.167835
H31   H     H_    0.622311 0.036461 0.723823 0.256341
C16   C     C_3   0.579687 0.088116 0.774890 -1.052683
H32   H     H_    0.454200 0.057278 0.783395 0.278290
H33   H     H_    0.657458 0.093049 0.840897 0.285270
C17   C     C_R   0.365358 0.541507 0.166516 0.216965
H34   H     H_    0.326559 0.509832 0.298731 0.169444
H35   H     H_    0.511580 0.596148 0.026922 0.256059
C18   C     C_R   0.107322 0.460117 0.203812 0.278415
C19   C     C_R   0.916137 0.493969 0.769246 -0.468137
C20   C     C_R   0.819803 0.451987 0.828697 0.328331
C21   C     C_R   0.883540 0.455811 0.920119 -0.144201
C22   C     C_R   0.049547 0.494785 0.953300 0.109606
C23   C     C_R   0.146862 0.536661 0.890597 -0.032098
C24   C     C_R   0.122115 0.493986 0.046499 0.044018
C25   C     C_R   0.291991 0.533180 0.073951 -0.113775
C26   C     C_R   0.382776 0.568970 0.009420 -0.095210
C27   C     C_R   0.309849 0.574489 0.922096 -0.080819
C28   C     C_R   0.032912 0.455598 0.113404 -0.278622
C29   C     C_R   0.270854 0.504628 0.229004 -0.428341
C30   C     C_R   0.078879 0.538837 0.797733 0.238948
H36   H     H_    0.906447 0.420968 0.097279 0.174358
H37   H     H_    0.862660 0.492102 0.699623 0.160664
H38   H     H_    0.801612 0.424435 0.962936 0.137024
H39   H     H_    0.382059 0.609243 0.878123 0.217994
C31   C     C_R   0.763641 0.177188 0.538843 -0.266220
C32   C     C_R   0.434834 0.811961 0.466757 -0.441480
C33   C     C_R   0.388166 0.980595 0.441663 0.107194
C34   C     C_R   0.330806 0.875733 0.438183 0.303546
C35   C     C_R   0.593163 0.849498 0.510289 0.301792
C36   C     C_R   0.654859 0.960702 0.520217 -0.243998
C37   C     C_R   0.550930 0.026413 0.481248 -0.150076
C38   C     C_R   0.610728 0.136306 0.489022 0.264248
C39   C     C_R   0.867629 0.116688 0.574631 0.044045
C40   C     C_R   0.812974 0.010801 0.567813 0.309984
H40   H     H_    0.387475 0.730862 0.458418 0.168571
N1    N     N_2   0.890727 0.835285 0.819274 -0.096454
H41   H     H_    0.880848 0.842400 0.886338 0.211511
C41   C     C_3   0.053449 0.840267 0.803217 -0.661824
H42   H     H_    0.127282 0.914901 0.836440 0.225837
H43   H     H_    0.053117 0.832869 0.729568 0.294412
H44   H     H_    0.103068 0.778739 0.832676 0.254786
N2    N     N_R   0.640809 0.710650 0.885470 0.241327
O25   O     O_R   0.606656 0.754208 0.960723 -0.443285
O26   O     O_R   0.678735 0.620761 0.881324 -0.363774
N3    N     N_R   0.487455 0.820594 0.259223 0.202877
O27   O     O_R   0.430296 0.896579 0.231249 -0.460603
O28   O     O_R   0.389985 0.747148 0.283057 -0.482511
N4    N     N_2   0.238260 0.785521 0.092429 -0.083571
H45   H     H_    0.279599 0.720268 0.104237 0.186934
C42   C     C_3   0.305735 0.834198 0.021325 -0.651078
H46   H     H_    0.292967 0.777970 0.959390 0.245411
H47   H     H_    0.436505 0.864369 0.044378 0.264136
H48   H     H_    0.248569 0.899163 0.004513 0.210398
N5    N     N_2   0.976428 0.209684 0.826441 -0.139525
H49   H     H_    0.902620 0.145924 0.789250 0.227950
C43   C     C_3   0.940851 0.227117 0.918429 -1.053994
H50   H     H_    0.818140 0.245039 0.918015 0.295911
H51   H     H_    0.027921 0.291719 0.959891 0.268390
H52   H     H_    0.944133 0.157274 0.950606 0.281567
N6    N     N_2   0.272147 0.040791 0.416410 -0.076094
H53   H     H_    0.169089 0.027073 0.445182 0.238108
C44   C     C_3   0.230519 0.045327 0.321628 -0.685759
H54   H     H_    0.235641 0.122690 0.312760 0.215448
H55   H     H_    0.103951 0.008272 0.295567 0.219305
H56   H     H_    0.319892 0.022918 0.281786 0.306094
N7    N     N_R   0.915654 0.960756 0.621192 0.275027
O29   O     O_R   0.923573 0.983085 0.708163 -0.418596
O30   O     O_R   0.044782 0.939777 0.590631 -0.392713
N8    N     N_2   0.815036 0.283653 0.551630 -0.106469
H57   H     H_    0.855459 0.317366 0.617726 0.147839
C45   C     C_3   0.910118 0.317687 0.484863 -0.452799
H58   H     H_    0.972485 0.396379 0.510785 0.266322
H59   H     H_    0.832444 0.314499 0.420146 0.232061
H60   H     H_    0.999738 0.268470 0.469833 0.203221
N9    N     N_R   0.957154 0.722188 0.038010 0.245013
O31   O     O_R   0.989359 0.710965 0.955951 -0.442136
O32   O     O_R   0.842884 0.655247 0.057987 -0.349534
N10   N     N_2   0.052068 0.897863 0.114544 -0.110931
H61   H     H_    0.152506 0.951728 0.143830 0.217803
C46   C     C_3   0.944208 0.935304 0.049866 -0.951412
H62   H     H_    0.905433 0.003098 0.083655 0.255178
H63   H     H_    0.832999 0.878877 0.025697 0.324331
H64   H     H_    0.008447 0.960232 0.994605 0.246111

loop_
_geom_bond_atom_site_label_1
_geom_bond_atom_site_label_2
_geom_bond_distance
_ccdc_geom_bond_type
P1    C18   1.875797 S    
C43   H52   1.110411 S    
C15   H29   1.109190 S    
C24   C25   1.433578 A    
C12   H24   1.110580 S    
C7    H15   1.104759 S    
N6    C44   1.436223 S    
C31   N8    1.405363 S    
Ba1   O13   2.869440 S    
C26   C27   1.394143 A    
O6    C10   1.414509 S    
P3    C34   1.858065 S    
P6    C17   1.890140 S    
C16   H32   1.103673 S    
C33   N6    1.414647 S    
C43   H50   1.102679 S    
C9    N2    1.448133 S    
C32   C34   1.390565 A    
C5    H8    1.095850 S    
N10   H61   1.029842 S    
O16   P7    1.805715 S    
P3    O11   1.744831 S    
P8    C20   1.847556 S    
N3    O28   1.295436 A    
C13   N5    1.459865 S    
C2    H5    1.109261 S    
P4    C30   1.916420 S    
C7    H13   1.109921 S    
C44   H55   1.102140 S    
C3    N9    1.471592 S    
C8    H16   1.113941 S    
C33   C34   1.403905 A    
C11   H21   1.095310 S    
N1    H41   1.017997 S    
Ba1   O20   2.987436 S    
C23   C27   1.386830 A    
C35   C36   1.480590 A    
P1    O1    1.568503 D    
C4    C5    1.518956 S    
C40   N7    1.413098 S    
C12   H23   1.110784 S    
C37   C38   1.463888 A    
C21   H38   1.077323 S    
H34   C29   1.082474 S    
N7    O30   1.297362 A    
O12   Ba2   2.895311 S    
P4    Ba2   3.485520 S    
P5    O18   1.533037 D    
P7    C38   1.927738 S    
C46   H62   1.105159 S    
C13   H25   1.111759 S    
P7    O22   1.760076 S    
C45   H60   1.111110 S    
P2    O10   1.756899 S    
C4    H6    1.106243 S    
C6    H12   1.100856 S    
C14   H26   1.110494 S    
C1    C10   1.527293 S    
C1    H2    1.090238 S    
N9    O32   1.299712 A    
O19   C13   1.413450 S    
C36   C40   1.445689 A    
C18   C29   1.396286 A    
P2    Ba1   3.557335 S    
C11   C12   1.522233 S    
P5    O17   1.747474 S    
O5    C6    1.374358 S    
O13   Ba2   3.022636 S    
N10   C46   1.440632 S    
C12   H22   1.108973 S    
O7    Ba1   3.015443 S    
H1    C10   1.106241 S    
C39   C40   1.407433 A    
C32   C35   1.394617 A    
N7    O29   1.297031 A    
Ba1   Ba2   4.621902 S    
C6    C7    1.526229 S    
O17   Ba2   2.848063 S    
C4    O15   1.395154 S    
P1    O5    1.740660 S    
C32   H40   1.082345 S    
C2    C3    1.564928 S    
N8    H57   1.030099 S    
C44   H56   1.081369 S    
C22   C23   1.437442 A    
P2    C35   1.920088 S    
Ba2   O20   2.911144 S    
O11   C2    1.395600 S    
N1    C41   1.420202 S    
C11   H20   1.100976 S    
P8    O23   1.544070 D    
P1    O2    1.597041 S    
C19   H37   1.082087 S    
O2    Ba1   3.021785 S    
P4    O12   1.568830 D    
N4    C42   1.452180 S    
C22   C24   1.458970 A    
C1    H3    1.108239 S    
O4    P6    1.543089 D    
C6    H11   1.106733 S    
C14   H28   1.093801 S    
C46   H63   1.095166 S    
N2    O25   1.298128 A    
C46   H64   1.107359 S    
C1    H19   1.112042 S    
C17   C25   1.433258 A    
Ba2   O21   3.015754 S    
P4    O13   1.597042 S    
N9    O31   1.295395 A    
C3    N4    1.458682 S    
P2    O20   1.654224 S    
C9    H17   1.114140 S    
P5    C39   1.906507 S    
Ba1   O16   2.911765 S    
P2    O7    1.533440 D    
P3    O8    1.705669 S    
N5    H49   1.024962 S    
C45   H59   1.094201 S    
C41   H44   1.101028 S    
N4    H45   1.022212 S    
C24   C28   1.431086 A    
O14   P8    1.734689 S    
C28   H36   1.077094 S    
O8    Ba1   2.847431 S    
C31   C39   1.394526 A    
C42   H46   1.106072 S    
C33   C37   1.430432 A    
C43   H51   1.104750 S    
C10   N3    1.445422 S    
O3    P6    1.771455 S    
C15   C16   1.516168 S    
N8    C45   1.438472 S    
H31   C16   1.106280 S    
C16   H33   1.106585 S    
C31   C38   1.396078 A    
N6    H53   1.022883 S    
C3    N10   1.469859 S    
C5    H9    1.096782 S    
O1    Ba1   2.894910 S    
C17   C29   1.396428 A    
C42   H48   1.104829 S    
C2    H4    1.099126 S    
C41   H43   1.100603 S    
C44   H54   1.058283 S    
C8    C9    1.507966 S    
C8    N1    1.448653 S    
O2    Ba2   2.870061 S    
C21   C22   1.416352 A    
C27   H39   1.056913 S    
P4    O15   1.730557 S    
O16   Ba2   2.986507 S    
O14   Ba2   2.895462 S    
C9    H18   1.064911 S    
P1    Ba1   3.484953 S    
C7    H14   1.107669 S    
O10   C8    1.387464 S    
C4    H7    1.108758 S    
C25   C26   1.397429 A    
C15   O24   1.403733 S    
N2    O26   1.295145 A    
C19   C30   1.396865 A    
H35   C26   1.077112 S    
C11   O22   1.406761 S    
P5    O19   1.766948 S    
C19   C20   1.395148 A    
C5    H10   1.101494 S    
C13   C14   1.545377 S    
P7    O21   1.594126 D    
P8    O24   1.740803 S    
P3    O9    1.549249 D    
C36   C37   1.464736 A    
N5    C43   1.454117 S    
C45   H58   1.098970 S    
C14   H27   1.110613 S    
O6    P6    1.765286 S    
C42   H47   1.107192 S    
C20   C21   1.403191 A    
C41   H42   1.110386 S    
C15   H30   1.111302 S    
O3    Ba1   2.896140 S    
C23   C30   1.446974 A    
N3    O27   1.291655 A    
C18   C28   1.413334 A    
