data_mof_unit_35659.cif
_audit_creation_date              2012-12-10T17:52:23-0500
_audit_creation_method            fapswitch 2.2
_symmetry_space_group_name_H-M    P1
_symmetry_Int_Tables_number       1
_space_group_crystal_system       triclinic
_cell_length_a                    19.086525
_cell_length_b                    10.727273
_cell_length_c                    9.872985
_cell_angle_alpha                 89.539067
_cell_angle_beta                  90.505844
_cell_angle_gamma                 91.774408
_cell_volume                      2020.34865854

loop_
_atom_site_label
_atom_site_type_symbol
_atom_type_description
_atom_site_fract_x
_atom_site_fract_y
_atom_site_fract_z
_atom_type_partial_charge
C1    C     C_R   0.504796 0.259997 0.501714 0.867511
C2    C     C_R   0.289390 0.477697 0.497138 -0.028205
C3    C     C_R   0.928034 0.404430 0.486939 0.299805
C4    C     C_R   0.069452 0.403847 0.487402 0.286648
C5    C     C_R   0.815811 0.404077 0.611037 -0.215421
C6    C     C_R   0.744913 0.430472 0.618106 0.099899
C7    C     C_R   0.710195 0.476374 0.501719 -0.044199
C8    C     C_R   0.747272 0.493809 0.380658 -0.240432
C9    C     C_R   0.817703 0.466822 0.374682 -0.163693
C10   C     C_R   0.852520 0.422383 0.489960 0.068021
C11   C     C_R   0.518565 0.109886 0.760913 -0.162876
C12   C     C_R   0.365259 0.496995 0.499392 0.837348
C13   C     C_R   0.497010 0.048246 0.879003 -0.146474
C14   C     C_R   0.459648 0.935398 0.870402 -0.170041
C15   C     C_R   0.450272 0.878543 0.744880 -0.151195
C16   C     C_R   0.478084 0.935170 0.625818 0.100730
C17   C     C_R   0.502263 0.059217 0.631488 0.097074
C18   C     C_R   0.508331 0.126208 0.506933 -0.121302
C19   C     C_R   0.505970 0.063965 0.383110 -0.219961
C20   C     C_R   0.496935 0.937049 0.380904 -0.217496
C21   C     C_R   0.484919 0.871730 0.501664 -0.133344
C22   C     C_R   0.407735 0.336689 0.140360 -0.166474
C23   C     C_R   0.493092 0.739061 0.499969 0.889570
C24   C     C_R   0.362434 0.256012 0.069882 -0.212100
C25   C     C_R   0.362542 0.255791 0.929753 -0.183501
C26   C     C_R   0.407989 0.336174 0.859402 -0.154513
C27   C     C_R   0.454629 0.419269 0.927523 0.110159
C28   C     C_R   0.454579 0.419417 0.072325 0.159636
C29   C     C_R   0.543397 0.577202 0.071989 -0.191061
C30   C     C_R   0.543554 0.577443 0.928151 0.158022
C31   C     C_R   0.634724 0.496459 0.500752 0.882517
C32   C     C_R   0.253017 0.456564 0.618265 -0.207946
C33   C     C_R   0.181576 0.428404 0.614947 -0.161328
C34   C     C_R   0.145603 0.421713 0.490478 0.088702
C35   C     C_R   0.182194 0.442185 0.369401 -0.164264
C36   C     C_R   0.253567 0.470090 0.372708 -0.201523
H1    H     H_    0.279728 0.460552 0.715459 0.159257
H2    H     H_    0.549663 0.194830 0.773648 0.170492
H3    H     H_    0.508009 0.089495 0.976953 0.143262
H4    H     H_    0.440006 0.889859 0.961295 0.138963
H5    H     H_    0.420776 0.790860 0.742101 0.159827
H6    H     H_    0.500386 0.890195 0.284447 0.168007
H7    H     H_    0.578669 0.639981 0.126829 0.146812
H8    H     H_    0.404279 0.331404 0.247684 0.208194
H9    H     H_    0.327048 0.193286 0.124517 0.155270
H10   H     H_    0.327404 0.192625 0.875007 0.155446
H11   H     H_    0.405220 0.329602 0.752088 0.208266
H12   H     H_    0.154514 0.413758 0.709960 0.150717
H13   H     H_    0.155711 0.437818 0.272018 0.150653
H14   H     H_    0.280652 0.484749 0.277671 0.161833
H15   H     H_    0.841967 0.369581 0.701036 0.149690
H16   H     H_    0.721774 0.528215 0.289901 0.161297
H17   H     H_    0.844994 0.482722 0.280116 0.153855
H18   H     H_    0.511752 0.113041 0.287266 0.171412
N1    N     N_R   0.033315 0.419568 0.370010 -0.179663
N2    N     N_R   0.963820 0.419921 0.369774 -0.180256
N3    N     N_R   0.964090 0.384381 0.603592 -0.178919
N4    N     N_R   0.033589 0.384181 0.603855 -0.180220
N5    N     N_R   0.499340 0.498800 0.142780 -0.123206
N6    N     N_R   0.499320 0.498720 0.857170 -0.121545
O1    O     O_R   0.500000 0.316780 0.614690 -0.652289
O2    O     O_R   0.499990 0.316750 0.385360 -0.637410
O3    O     O_R   0.398140 0.500000 0.614700 -0.646490
O4    O     O_R   0.398130 0.499970 0.385370 -0.637676
O5    O     O_R   0.500010 0.683250 0.614640 -0.604071
O6    O     O_R   0.500000 0.683220 0.385310 -0.618027
O7    O     O_R   0.601870 0.500030 0.614630 -0.566707
O8    O     O_R   0.601860 0.500000 0.385300 -0.623238
Zn1   Zn    Zn3+2 0.500000 0.500020 0.653130 0.947459
Zn2   Zn    Zn3+2 0.500000 0.499980 0.346870 0.931078
N7    N     N_3   0.590278 0.660292 0.856273 -0.381903
H19   H     H_    0.580042 0.751395 0.885317 0.172851
H20   H     H_    0.641446 0.641368 0.886956 0.163131
N8    N     N_3   0.708505 0.407657 0.742672 -0.437422
H21   H     H_    0.733635 0.460285 0.818534 0.177354
H22   H     H_    0.712710 0.313354 0.768121 0.175624

loop_
_geom_bond_atom_site_label_1
_geom_bond_atom_site_label_2
_ccdc_geom_bond_type
N1    N2    A    
C16   C21   A    
C35   C36   A    
C2    C12   S    
C1    O2    A    
C30   N7    S    
C7    C8    A    
C31   O7    A    
C1    C18   S    
N8    H22   S    
C24   H9    S    
C23   O6    A    
C2    C32   A    
C18   C19   A    
C27   N6    A    
O3    Zn1   S    
C5    C6    A    
C12   O4    A    
O1    Zn1   S    
C15   C16   A    
O2    Zn2   S    
C17   C18   A    
C34   C35   A    
C22   H8    S    
C19   C20   A    
C8    C9    A    
C30   N6    A    
C35   H13   S    
O4    Zn2   S    
C9    C10   A    
C8    H16   S    
C22   C28   A    
C13   C14   A    
C29   H7    S    
C6    N8    S    
C31   O8    A    
C4    C34   S    
C7    C31   S    
N8    H21   S    
C29   N5    A    
C24   C25   A    
C15   H5    S    
N7    H20   S    
C12   O3    A    
C16   C17   A    
C25   C26   A    
O7    Zn1   S    
C11   H2    S    
C29   C30   A    
C3    N2    A    
C33   C34   A    
C26   C27   A    
C32   H1    S    
C26   H11   S    
C3    N3    A    
C19   H18   S    
C21   C23   S    
C4    N1    A    
C22   C24   A    
C9    H17   S    
C36   H14   S    
C28   N5    A    
C2    C36   A    
C11   C17   A    
C1    O1    A    
C20   H6    S    
C6    C7    A    
C32   C33   A    
C23   O5    A    
C5    C10   A    
C3    C10   S    
C11   C13   A    
N3    N4    A    
O6    Zn2   S    
N6    Zn1   S    
O5    Zn1   S    
C13   H3    S    
N5    Zn2   S    
C14   H4    S    
N7    H19   S    
C20   C21   A    
O8    Zn2   S    
C4    N4    A    
C27   C28   A    
C33   H12   S    
C14   C15   A    
C5    H15   S    
C25   H10   S    
