data_mof_unit_35365.cif
_audit_creation_date              2012-12-11T16:53:36-0500
_audit_creation_method            fapswitch 2.2
_symmetry_space_group_name_H-M    P1
_symmetry_Int_Tables_number       1
_space_group_crystal_system       triclinic
_cell_length_a                    14.830614
_cell_length_b                    14.744954
_cell_length_c                    17.015631
_cell_angle_alpha                 108.715557
_cell_angle_beta                  105.96393
_cell_angle_gamma                 108.142536
_cell_volume                      3044.52915426

loop_
_atom_site_label
_atom_site_type_symbol
_atom_type_description
_atom_site_fract_x
_atom_site_fract_y
_atom_site_fract_z
_atom_type_partial_charge
C1    C     C_R   0.089999 0.283352 0.069951 -0.121021
C2    C     C_R   0.030483 0.464078 0.727042 0.025610
C3    C     C_R   0.662063 0.222895 0.746731 -0.172181
C4    C     C_R   0.361645 0.563635 0.054831 0.068295
C5    C     C_R   0.220304 0.704708 0.264664 -0.123983
C6    C     C_R   0.752623 0.568244 0.976990 -0.071813
C7    C     C_R   0.891486 0.393152 0.174750 0.143205
C8    C     C_R   0.083901 0.801033 0.004159 -0.134868
C9    C     C_R   0.913475 0.717459 0.927716 -0.118231
C10   C     C_R   0.063852 0.483643 0.254506 -0.181028
C11   C     C_R   0.225251 0.798668 0.184613 -0.118033
C12   C     C_R   0.937411 0.450092 0.736465 -0.087241
C13   C     C_R   0.745465 0.472664 0.054947 -0.075942
C14   C     C_R   0.244810 0.806810 0.271112 0.055748
C15   C     C_R   0.718282 0.549792 0.040523 0.014477
C16   C     C_R   0.972527 0.423191 0.256669 0.004150
C17   C     C_R   0.998971 0.813068 0.958080 0.063068
C18   C     C_R   0.529029 0.663688 0.050710 0.120617
C19   C     C_R   0.474967 0.604215 0.086926 0.012548
C20   C     C_R   0.529942 0.569399 0.142846 -0.168365
C21   C     C_R   0.622520 0.566932 0.139796 -0.180299
C22   C     C_R   0.658449 0.597508 0.079607 0.054198
C23   C     C_R   0.718785 0.215479 0.822532 0.420625
C24   C     C_R   0.618531 0.658173 0.045439 0.111499
C25   C     C_3   0.590574 0.658553 0.954072 -0.559906
C26   C     C_3   0.494477 0.668095 0.960986 0.031595
C27   C     C_R   0.964875 0.389487 0.328066 0.144823
C28   C     C_R   0.039289 0.419336 0.640329 0.124948
C29   C     C_R   0.141742 0.432028 0.551537 -0.206712
C30   C     C_R   0.136636 0.447891 0.635409 -0.152432
C31   C     C_R   0.947959 0.361906 0.559522 -0.260812
C32   C     C_R   0.952558 0.357470 0.478392 0.178205
C33   C     C_R   0.050144 0.394246 0.474039 0.175818
C34   C     C_R   0.301275 0.595949 0.003777 -0.165971
C35   C     C_R   0.054790 0.403827 0.396074 -0.281902
C36   C     C_R   0.869117 0.354812 0.335038 -0.127829
C37   C     C_R   0.861816 0.332328 0.406458 -0.208325
C38   C     C_R   0.558054 0.149224 0.672837 0.180636
C39   C     C_R   0.296962 0.906938 0.353617 0.129428
C40   C     C_R   0.435238 0.085334 0.431078 -0.202290
C41   C     C_R   0.358756 0.999316 0.351254 -0.185609
C42   C     C_R   0.299595 0.908264 0.436970 -0.264207
C43   C     C_R   0.376820 0.995313 0.517987 0.180936
C44   C     C_R   0.449140 0.079837 0.513360 0.159000
C45   C     C_R   0.724573 0.318068 0.752134 0.345716
C46   C     C_R   0.540156 0.152291 0.589023 -0.206968
C47   C     C_R   0.479580 0.073950 0.680667 -0.092240
C48   C     C_R   0.389971 0.995389 0.602747 -0.248802
C49   C     C_R   0.088744 0.120056 0.143772 0.153278
C50   C     C_R   0.002582 0.104092 0.071139 0.037251
C51   C     C_R   0.910890 0.008159 0.033414 -0.171258
C52   C     C_R   0.902487 0.939986 0.075943 -0.161366
C53   C     C_R   0.985433 0.965594 0.155836 0.034703
C54   C     C_R   0.080266 0.051603 0.184488 0.139359
C55   C     C_3   0.150263 0.139769 0.277734 -0.456185
C56   C     C_R   0.296530 0.498397 0.079185 -0.100636
C57   C     C_3   0.159410 0.215311 0.233930 -0.516468
C58   C     C_R   0.111269 0.535234 0.812818 -0.113744
C59   C     C_R   0.917710 0.198354 0.994977 -0.048261
C60   C     C_R   0.004620 0.187660 0.039971 0.020214
H1    H     H_    0.168717 0.309286 0.117458 0.102752
H2    H     H_    0.748877 0.625905 0.952261 0.107707
H3    H     H_    0.164359 0.854800 0.026130 0.110742
H4    H     H_    0.836025 0.693970 0.879172 0.130053
H5    H     H_    0.142749 0.507153 0.300022 0.105380
H6    H     H_    0.235565 0.861719 0.164175 0.095011
H7    H     H_    0.733176 0.441302 0.102085 0.124531
H8    H     H_    0.495850 0.531387 0.179150 0.126526
H9    H     H_    0.656304 0.527704 0.174402 0.130770
H10   H     H_    0.647553 0.729804 0.955741 0.216550
H11   H     H_    0.858897 0.399574 0.685105 0.136162
H12   H     H_    0.570403 0.581212 0.897722 0.204452
H13   H     H_    0.421333 0.597817 0.906862 0.113727
H14   H     H_    0.129763 0.431677 0.392967 0.121584
H15   H     H_    0.800496 0.352164 0.289543 0.150043
H16   H     H_    0.217417 0.459658 0.549389 0.140170
H17   H     H_    0.787012 0.307612 0.410595 0.138045
H18   H     H_    0.208707 0.488466 0.696354 0.126475
H19   H     H_    0.871959 0.333533 0.560409 0.121250
H20   H     H_    0.600602 0.206025 0.579788 0.163373
H21   H     H_    0.487111 0.073352 0.745256 0.199457
H22   H     H_    0.488657 0.152173 0.427754 0.141401
H23   H     H_    0.333303 0.933157 0.608196 0.148995
H24   H     H_    0.356710 0.002346 0.288237 0.125958
H25   H     H_    0.248726 0.838662 0.438805 0.125390
H26   H     H_    0.843472 0.988661 0.974570 0.159164
H27   H     H_    0.829673 0.870455 0.049830 0.136641
H28   H     H_    0.109296 0.150702 0.323334 0.204859
H29   H     H_    0.224552 0.134905 0.306849 0.197018
H30   H     H_    0.123478 0.269856 0.253934 0.205853
H31   H     H_    0.328226 0.661525 0.987744 0.137164
H32   H     H_    0.239358 0.254546 0.238787 0.190862
H33   H     H_    0.319989 0.470892 0.129573 0.084748
H34   H     H_    0.194008 0.563666 0.830982 0.107433
H35   H     H_    0.839022 0.146369 0.978087 0.194665
H36   H     H_    0.228207 0.681889 0.319552 0.102194
N1    N     N_R   0.055640 0.348550 0.045600 -0.048585
N2    N     N_R   0.798340 0.505430 0.954400 -0.035133
N3    N     N_R   0.931580 0.439470 0.128350 -0.061213
N4    N     N_R   0.051950 0.704140 0.002340 -0.047884
N5    N     N_R   0.944360 0.651450 0.954400 -0.043106
N6    N     N_R   0.039170 0.492150 0.176290 -0.050933
N7    N     N_R   0.188710 0.696600 0.128350 -0.040525
N8    N     N_R   0.794820 0.447010 0.002340 -0.039971
N9    N     N_R   0.960830 0.507850 0.823710 -0.031515
N10   N     N_R   0.811290 0.303400 0.871650 -0.104623
N11   N     N_R   0.205180 0.552990 0.997660 -0.043200
N12   N     N_R   0.814810 0.361830 0.823710 -0.106037
N13   N     N_R   0.201660 0.494570 0.045600 -0.043458
N14   N     N_R   0.068420 0.560530 0.871650 -0.044943
N15   N     N_R   0.948050 0.295860 0.997660 -0.042572
N16   N     N_R   0.185190 0.638170 0.176290 -0.042591
Ni1   Ni    Ni4+2 0.119330 0.493420 0.109950 0.200986
Ni2   Ni    Ni4+2 0.880670 0.506580 0.890050 0.276793
Ni3   Ni    Ni4+2 0.872590 0.372590 0.000000 0.281505
Ni4   Ni    Ni4+2 0.127410 0.627410 0.000000 0.223304
I1    I     I_    0.748161 0.251512 0.105389 -0.377322
I2    I     I_    0.501012 0.820997 0.977442 -0.370108
Cl1   Cl    Cl    0.670270 0.121480 0.860413 -0.674872
Cl2   Cl    Cl    0.679511 0.398488 0.710882 -0.706124

loop_
_geom_bond_atom_site_label_1
_geom_bond_atom_site_label_2
_ccdc_geom_bond_type
N9    N14   A    
C35   H14   S    
C57   H32   S    
C9    H4    S    
C7    I1    S    
C3    C23   A    
C19   C20   A    
N4    Ni4   S    
C2    C12   A    
C39   C41   A    
C29   H16   S    
C53   C54   A    
C7    N3    A    
C18   C24   A    
C34   N11   A    
C6    N2    A    
C36   C37   A    
N3    Ni3   S    
C12   N9    A    
N1    N15   A    
C11   C14   A    
N2    Ni2   S    
C49   C54   A    
C29   C33   A    
C26   H13   S    
C49   C57   S    
C18   C19   A    
N12   Ni2   S    
C55   H28   S    
C34   H31   S    
C14   C39   S    
C4    C19   S    
C15   C22   S    
C47   C48   A    
C3    C38   S    
C18   C26   S    
C59   N15   A    
C43   C48   A    
C45   N12   A    
N13   Ni1   S    
C16   C27   S    
C6    C15   A    
C59   C60   A    
C21   C22   A    
C4    C56   A    
N5    Ni2   S    
N11   N13   A    
C59   H35   S    
C51   H26   S    
N16   Ni1   S    
C44   C46   A    
C39   C42   A    
C52   H27   S    
C56   H33   S    
C4    C34   A    
C57   H30   S    
C51   C52   A    
C40   H22   S    
N9    Ni2   S    
C10   N6    A    
C24   C25   S    
C1    C60   A    
C1    N1    A    
C42   H25   S    
C27   C35   A    
C25   C26   S    
C23   N10   A    
C37   H17   S    
C3    C45   A    
C21   H9    S    
N7    N16   A    
C43   C44   A    
C29   C30   A    
C36   H15   S    
N8    Ni3   S    
N15   Ni3   S    
C31   C32   A    
C50   C51   A    
C38   C47   A    
C25   H12   S    
C32   C37   A    
C13   N8    A    
C5    C14   A    
C45   Cl2   S    
C9    C17   A    
C7    C16   A    
C12   H11   S    
C55   C57   S    
C22   C24   A    
C42   C43   A    
N1    Ni1   S    
N14   Ni4   S    
C56   N13   A    
C5    H36   S    
C52   C53   A    
C13   H7    S    
C10   H5    S    
C54   C55   S    
C40   C41   A    
C58   N14   A    
C20   H8    S    
C28   C31   A    
C26   I2    S    
C1    H1    S    
C11   N7    A    
C2    C58   A    
C31   H19   S    
C5    N16   A    
C27   C36   A    
C8    C17   A    
C48   H23   S    
N10   Ni3   S    
C50   C60   S    
C32   C33   A    
C6    H2    S    
C13   C15   A    
N7    Ni4   S    
C8    N4    A    
C55   H29   S    
N6    Ni1   S    
C10   C16   A    
C46   H20   S    
C41   H24   S    
N10   N12   A    
N2    N8    A    
C28   C30   A    
N4    N5    A    
C33   C35   A    
C47   H21   S    
C58   H34   S    
N11   Ni4   S    
C38   C46   A    
C8    H3    S    
C30   H18   S    
C40   C44   A    
N3    N6    A    
C20   C21   A    
C9    N5    A    
C49   C50   A    
C23   Cl1   S    
C2    C28   S    
C25   H10   S    
C11   H6    S    
