data_mof_unit_43326.cif
_audit_creation_date              2012-10-26T21:00:41-0400
_audit_creation_method            fapswitch 2.2
_symmetry_space_group_name_H-M    P1
_symmetry_Int_Tables_number       1
_space_group_crystal_system       triclinic
_cell_length_a                    10.817831
_cell_length_b                    9.524721
_cell_length_c                    10.750862
_cell_angle_alpha                 89.976799
_cell_angle_beta                  90.309433
_cell_angle_gamma                 90.146716
_cell_volume                      1107.71478443

loop_
_atom_site_label
_atom_site_type_symbol
_atom_type_description
_atom_site_fract_x
_atom_site_fract_y
_atom_site_fract_z
_atom_type_partial_charge
C1    C     C_R   0.262095 0.499872 0.499859 0.528384
C2    C     C_R   0.498808 0.499938 0.737496 0.537463
C3    C     C_R   0.275121 0.582081 0.127848 -0.117752
C4    C     C_R   0.274712 0.577698 0.868629 -0.107387
C5    C     C_R   0.166816 0.618880 0.063098 0.038352
C6    C     C_R   0.166163 0.614827 0.931356 0.040211
C7    C     C_R   0.383529 0.541323 0.933670 0.003627
C8    C     C_R   0.383485 0.542353 0.064613 0.000866
C9    C     C_R   0.491660 0.500097 0.128769 0.012034
C10   C     C_R   0.492042 0.499599 0.871153 0.012195
C11   C     C_R   0.596139 0.454970 0.064921 -0.149376
C12   C     C_R   0.737932 0.500090 0.500382 0.544624
C13   C     C_R   0.596412 0.454978 0.936556 -0.153696
C14   C     C_R   0.063649 0.372467 0.503386 -0.150856
C15   C     C_R   0.935874 0.372595 0.503720 -0.150850
C16   C     C_R   0.871813 0.500211 0.500922 0.013186
C17   C     C_R   0.128291 0.499935 0.500152 0.010297
C18   C     C_3   0.054990 0.661947 0.137965 -0.277890
C19   C     C_3   0.972786 0.535559 0.166524 -0.431546
C20   C     C_3   0.052502 0.647361 0.853648 -0.278459
C21   C     C_3   0.059372 0.795553 0.800241 -0.439139
C22   C     C_R   0.936484 0.627729 0.498076 -0.150016
C23   C     C_R   0.064269 0.627570 0.497451 -0.154965
C24   C     C_R   0.420770 0.074192 0.424900 0.013129
C25   C     C_R   0.579171 0.074591 0.575147 0.013149
C26   C     C_R   0.420760 0.925388 0.424903 0.012529
C27   C     C_R   0.579184 0.925801 0.575134 0.012991
C28   C     C_R   0.498069 0.500054 0.262505 0.538554
Cu1   Cu    Cu3+1 0.500000 0.640660 0.500000 0.921467
Cu2   Cu    Cu3+1 0.500000 0.359340 0.500000 0.929149
H1    H     H_    0.678286 0.421491 0.114871 0.112344
H2    H     H_    0.084934 0.710061 0.227442 0.135711
H3    H     H_    0.001053 0.744404 0.089138 0.142253
H4    H     H_    0.065105 0.873806 0.876646 0.151170
H5    H     H_    0.141522 0.806846 0.739434 0.159294
H6    H     H_    0.975146 0.816906 0.743911 0.132844
H7    H     H_    0.045126 0.570718 0.775961 0.150882
H8    H     H_    0.965810 0.635979 0.907044 0.143625
H9    H     H_    0.111491 0.272721 0.505566 0.128332
H10   H     H_    0.887566 0.272880 0.506074 0.126820
H11   H     H_    0.888666 0.727480 0.495864 0.126238
H12   H     H_    0.678791 0.421641 0.887851 0.107270
H13   H     H_    0.112598 0.727253 0.494801 0.122715
H14   H     H_    0.357314 0.130065 0.364696 0.108774
H15   H     H_    0.642592 0.130779 0.635391 0.106236
H16   H     H_    0.357295 0.869163 0.364697 0.104908
H17   H     H_    0.642636 0.869923 0.635344 0.107613
H18   H     H_    0.273217 0.583005 0.228490 0.122284
H19   H     H_    0.272307 0.574980 0.768011 0.130210
H20   H     H_    0.941154 0.483727 0.079515 0.140212
H21   H     H_    0.024319 0.458163 0.223976 0.164725
H22   H     H_    0.890301 0.570496 0.219056 0.148173
N1    N     N_R   0.500000 0.852070 0.500000 -0.222953
N2    N     N_R   0.500000 0.147940 0.500000 -0.223092
O1    O     O_R   0.319640 0.618740 0.499990 -0.520751
O2    O     O_R   0.680360 0.618740 0.500010 -0.507963
O3    O     O_R   0.319620 0.381170 0.499990 -0.508565
O4    O     O_R   0.680380 0.381170 0.500010 -0.509955
O5    O     O_R   0.500000 0.618810 0.319650 -0.501371
O6    O     O_R   0.500000 0.618810 0.680350 -0.502141
O7    O     O_R   0.499970 0.381240 0.319640 -0.497969
O8    O     O_R   0.500030 0.381240 0.680360 -0.498146

loop_
_geom_bond_atom_site_label_1
_geom_bond_atom_site_label_2
_ccdc_geom_bond_type
C7    C10   A    
C27   N1    A    
Cu1   Cu2   S    
C21   H5    S    
Cu1   O2    S    
C1    O3    A    
C25   C27   A    
C20   H8    S    
C1    C17   S    
C19   H20   S    
Cu1   O6    S    
C4    H19   S    
C12   O4    A    
C28   O7    A    
Cu2   N2    S    
C1    O1    A    
C11   H1    S    
C7    C8    A    
C21   H6    S    
C17   C23   A    
C25   N2    A    
C20   H7    S    
C9    C11   A    
C14   C17   A    
C12   O2    A    
Cu1   N1    S    
C4    C7    A    
Cu2   O4    S    
C13   H12   S    
C24   C26   A    
C3    C8    A    
C19   H21   S    
Cu2   O8    S    
C5    C6    A    
C24   H14   S    
C18   H3    S    
C2    O6    A    
C15   H10   S    
Cu2   O7    S    
C22   H11   S    
C18   H2    S    
C26   H16   S    
C24   N2    A    
C15   C16   A    
C2    C10   S    
C26   N1    A    
C25   H15   S    
C3    H18   S    
C11   C13   A    
C6    C20   S    
C20   C21   S    
C4    C6    A    
C18   C19   S    
C28   O5    A    
C27   H17   S    
Cu1   O5    S    
C14   C15   A    
C8    C9    A    
C16   C22   A    
C5    C18   S    
Cu1   O1    S    
C14   H9    S    
C22   C23   A    
C23   H13   S    
C2    O8    A    
C19   H22   S    
C21   H4    S    
C12   C16   S    
C9    C28   S    
Cu2   O3    S    
C3    C5    A    
C10   C13   A    
