data_mof_unit_18307.cif
_audit_creation_date              2012-12-10T18:53:05-0500
_audit_creation_method            fapswitch 2.2
_symmetry_space_group_name_H-M    P1
_symmetry_Int_Tables_number       1
_space_group_crystal_system       triclinic
_cell_length_a                    9.899898
_cell_length_b                    10.725907
_cell_length_c                    17.062152
_cell_angle_alpha                 93.155074
_cell_angle_beta                  87.432105
_cell_angle_gamma                 89.986292
_cell_volume                      1807.18178885

loop_
_atom_site_label
_atom_site_type_symbol
_atom_type_description
_atom_site_fract_x
_atom_site_fract_y
_atom_site_fract_z
_atom_type_partial_charge
Br1   Br    Br    0.772769 0.425477 0.731630 -0.448484
Br2   Br    Br    0.224318 0.499154 0.257063 -0.477830
Br3   Br    Br    0.551338 0.351920 0.967574 -0.473834
Br4   Br    Br    0.525837 0.787996 0.026333 -0.482421
Br5   Br    Br    0.842933 0.291568 0.387615 -0.430730
Br6   Br    Br    0.155183 0.711899 0.610339 -0.462735
Br7   Br    Br    0.172119 0.284115 0.392950 -0.366142
Br8   Br    Br    0.824108 0.702092 0.616146 -0.392658
C1    C     C_R   0.500092 0.739936 0.499773 0.880439
C2    C     C_R   0.067861 0.586435 0.545831 0.208596
C3    C     C_R   0.075033 0.412591 0.454993 0.279946
C4    C     C_R   0.924308 0.585055 0.546706 0.269881
C5    C     C_R   0.484275 0.496104 0.652938 0.907089
C6    C     C_R   0.516035 0.510696 0.348076 0.926441
C7    C     C_R   0.485022 0.507344 0.739472 -0.182292
C8    C     C_R   0.522209 0.534221 0.263757 -0.206177
C9    C     C_R   0.612311 0.512044 0.774241 0.314643
C10   C     C_R   0.408370 0.510684 0.218074 0.284971
C11   C     C_R   0.623847 0.568223 0.847832 -0.169025
C12   C     C_R   0.499952 0.260089 0.500675 0.905169
C13   C     C_R   0.423429 0.505586 0.137682 -0.172248
C14   C     C_R   0.509616 0.607236 0.892483 0.051869
C15   C     C_R   0.547756 0.527405 0.100810 0.062034
C16   C     C_R   0.378911 0.593069 0.862878 0.154583
C17   C     C_R   0.660028 0.565708 0.143843 0.191789
C18   C     C_R   0.365409 0.533136 0.787285 0.102380
C19   C     C_R   0.643480 0.579302 0.226819 0.094298
C20   C     C_2   0.527842 0.622152 0.976622 0.152069
C21   C     C_2   0.550353 0.519126 0.015946 0.143481
C22   C     C_3   0.739051 0.663438 0.273505 -0.395934
C23   C     C_R   0.623390 0.936052 0.499549 -0.154807
C24   C     C_3   0.871921 0.599956 0.290566 -0.684113
C25   C     C_3   0.228470 0.482050 0.762758 -0.353020
C26   C     C_3   0.230740 0.339600 0.752189 -0.749632
C27   C     C_3   0.256885 0.642982 0.912273 -0.372105
C28   C     C_3   0.193072 0.544616 0.963923 -0.835117
C29   C     C_3   0.796600 0.582770 0.101441 -0.405309
C30   C     C_3   0.875407 0.459982 0.096668 -0.751455
C31   C     C_R   0.376972 0.063987 0.502710 -0.146024
C32   C     C_R   0.623276 0.063815 0.500871 -0.123869
C33   C     C_R   0.377092 0.936295 0.500864 -0.130106
C34   C     C_R   0.500063 0.127593 0.501714 -0.043484
C35   C     C_R   0.500220 0.872475 0.499756 -0.040257
C36   C     C_R   0.931682 0.413643 0.454165 0.209948
H1    H     H_    0.336269 0.484508 0.103249 0.185168
H2    H     H_    0.760566 0.749521 0.241860 0.213812
H3    H     H_    0.688853 0.699139 0.329810 0.207145
H4    H     H_    0.303795 0.307311 0.704115 0.249064
H5    H     H_    0.258840 0.298604 0.807621 0.278098
H6    H     H_    0.128745 0.305314 0.737158 0.269542
H7    H     H_    0.145501 0.505816 0.806196 0.227077
H8    H     H_    0.195624 0.522559 0.709014 0.266222
H9    H     H_    0.264428 0.467272 0.972364 0.286448
H10   H     H_    0.162729 0.589044 0.022363 0.257361
H11   H     H_    0.101248 0.504465 0.937518 0.258684
H12   H     H_    0.721849 0.569909 0.873956 0.184716
H13   H     H_    0.286691 0.724470 0.950335 0.252981
H14   H     H_    0.180416 0.682128 0.874688 0.215003
H15   H     H_    0.885761 0.424434 0.155944 0.283582
H16   H     H_    0.822839 0.388560 0.059661 0.289350
H17   H     H_    0.977852 0.474107 0.070144 0.249153
H18   H     H_    0.785258 0.612769 0.040888 0.224060
H19   H     H_    0.856657 0.657851 0.129952 0.222467
H20   H     H_    0.719567 0.887691 0.498293 0.195093
H21   H     H_    0.280748 0.112184 0.504743 0.198365
H22   H     H_    0.719343 0.111971 0.501136 0.203249
H23   H     H_    0.281015 0.888254 0.500303 0.203150
H24   H     H_    0.909964 0.639587 0.346893 0.240318
H25   H     H_    0.858067 0.498296 0.294613 0.296290
H26   H     H_    0.950187 0.615969 0.243818 0.264206
N1    N     N_R   0.142790 0.500030 0.500020 -0.165245
N2    N     N_R   0.857210 0.499970 0.499980 -0.165743
O1    O     O_R   0.385380 0.683250 0.500010 -0.590665
O2    O     O_R   0.614620 0.316750 0.499990 -0.584062
O3    O     O_R   0.614710 0.683220 0.500000 -0.612627
O4    O     O_R   0.385290 0.316780 0.500000 -0.601481
O5    O     O_R   0.371780 0.500040 0.615800 -0.605777
O6    O     O_R   0.628220 0.499960 0.384200 -0.591699
O7    O     O_R   0.601110 0.500010 0.615800 -0.545381
O8    O     O_R   0.398890 0.499990 0.384200 -0.546226
Zn1   Zn    Zn3+2 0.346870 0.500020 0.500000 1.049548
Zn2   Zn    Zn3+2 0.653130 0.499980 0.500000 1.048935

loop_
_geom_bond_atom_site_label_1
_geom_bond_atom_site_label_2
_ccdc_geom_bond_type
C11   H12   S    
C5    O7    A    
Br2   C10   S    
C10   C13   A    
C31   H21   S    
C27   C28   S    
C29   H18   S    
C31   C33   A    
C25   H8    S    
Br7   C3    S    
C23   C35   A    
C27   H14   S    
C15   C21   S    
C20   C21   D    
C16   C18   A    
C3    N1    A    
C6    O6    A    
C23   C32   A    
C12   O4    A    
Br3   C21   S    
C28   H9    S    
Br4   C20   S    
C6    O8    A    
C24   H24   S    
C30   H17   S    
C17   C29   S    
C2    N1    A    
C8    C19   A    
C32   C34   A    
C4    N2    A    
C14   C20   S    
C19   C22   S    
C33   C35   A    
C1    O1    A    
O2    Zn2   S    
O1    Zn1   S    
C29   H19   S    
C31   C34   A    
C13   H1    S    
C5    O5    A    
C1    C35   S    
C16   C27   S    
C26   H6    S    
C22   H3    S    
C11   C14   A    
C33   H23   S    
C7    C18   A    
C24   H26   S    
C25   H7    S    
C29   C30   S    
O6    Zn2   S    
C18   C25   S    
O5    Zn1   S    
Br8   C4    S    
C25   C26   S    
C12   O2    A    
C3    C36   A    
C2    C4    A    
C30   H16   S    
Br5   C36   S    
C5    C7    S    
C6    C8    S    
C26   H4    S    
C7    C9    A    
C26   H5    S    
C23   H20   S    
C22   H2    S    
O8    Zn1   S    
O4    Zn1   S    
Br6   C2    S    
O7    Zn2   S    
C12   C34   S    
O3    Zn2   S    
C24   H25   S    
C17   C19   A    
Br1   C9    S    
C27   H13   S    
C13   C15   A    
C28   H11   S    
C22   C24   S    
C9    C11   A    
C36   N2    A    
C14   C16   A    
C15   C17   A    
C28   H10   S    
C30   H15   S    
C8    C10   A    
C32   H22   S    
C1    O3    A    
N2    Zn2   S    
N1    Zn1   S    
