data_mof_unit_58619.cif
_audit_creation_date              2013-03-05T16:12:09-0500
_audit_creation_method            fapswitch 2.2
_symmetry_space_group_name_H-M    P1
_symmetry_Int_Tables_number       1
_space_group_crystal_system       triclinic
_cell_length_a                    10.724465
_cell_length_b                    9.403965
_cell_length_c                    27.808984
_cell_angle_alpha                 89.931234
_cell_angle_beta                  89.932133
_cell_angle_gamma                 89.988581
_cell_volume                      2804.60133584

loop_
_atom_site_label
_atom_site_type_symbol
_atom_site_description
_atom_site_fract_x
_atom_site_fract_y
_atom_site_fract_z
_atom_type_partial_charge
O1    O     O_R   0.317570 0.620260 0.500030 -0.596122
O2    O     O_R   0.317570 0.379740 0.500030 -0.595734
C1    C     C_R   0.259627 0.500210 0.500096 0.766396
O3    O     O_R   0.499900 0.620250 0.430280 -0.592867
O4    O     O_R   0.499900 0.379750 0.430280 -0.592794
C2    C     C_R   0.499876 0.500091 0.407453 0.805747
Cu1   Cu    Cu3+1 0.499860 0.642410 0.500020 0.895285
Cu2   Cu    Cu3+1 0.499860 0.357590 0.500020 0.894307
O5    O     O_R   0.682190 0.620260 0.500010 -0.596313
O6    O     O_R   0.682190 0.379740 0.500010 -0.595851
O7    O     O_R   0.499860 0.620280 0.569750 -0.588007
O8    O     O_R   0.499860 0.379720 0.569750 -0.592520
C3    C     C_R   0.740134 0.500193 0.500061 0.766845
C4    C     C_R   0.499877 0.499844 0.592584 0.812493
C5    C     C_R   0.390278 0.478706 0.178091 0.532879
O9    O     O_2   0.284018 0.456108 0.203009 -0.536643
N1    N     N_R   0.499551 0.501798 0.202118 -0.469658
C6    C     C_R   0.608730 0.525712 0.177999 0.532863
C7    C     C_R   0.511051 0.629259 0.278896 -0.103964
C8    C     C_R   0.510852 0.629042 0.329030 -0.227245
C9    C     C_R   0.488609 0.372205 0.328915 -0.227549
C10   C     C_R   0.488226 0.372845 0.278768 -0.103512
C11   C     C_R   0.499607 0.501278 0.253648 0.363472
C12   C     C_R   0.499374 0.503414 0.101920 -0.044196
C13   C     C_R   0.388073 0.479455 0.127609 -0.020064
C14   C     C_R   0.277314 0.456254 0.102519 -0.146312
C15   C     C_R   0.610753 0.526610 0.127515 -0.020041
C16   C     C_R   0.499799 0.500414 0.354512 -0.042071
H1    H     H_    0.479752 0.271551 0.347571 0.143192
H2    H     H_    0.479493 0.273583 0.259366 0.136090
H3    H     H_    0.190737 0.435784 0.121421 0.187438
C17   C     C_R   0.499935 0.498974 0.645561 -0.091272
C18   C     C_R   0.384623 0.491615 0.974495 0.043412
C19   C     C_R   0.613935 0.517630 0.974383 0.043496
C20   C     C_R   0.499292 0.504458 0.949187 0.066169
C21   C     C_R   0.272712 0.486584 0.947576 -0.205986
C22   C     C_R   0.273852 0.488054 0.897641 -0.147711
C23   C     C_R   0.386317 0.495146 0.872461 -0.018038
C24   C     C_R   0.499327 0.503906 0.898046 -0.044087
C25   C     C_R   0.612376 0.512003 0.872352 -0.018281
C26   C     C_R   0.610374 0.510040 0.821885 0.520994
N2    N     N_R   0.499533 0.500382 0.797921 -0.472299
C27   C     C_R   0.388495 0.494140 0.821990 0.520378
C28   C     C_R   0.495737 0.625968 0.721200 -0.120518
C29   C     C_R   0.495930 0.627155 0.671203 -0.230149
C30   C     C_R   0.504005 0.369359 0.670778 -0.208529
C31   C     C_R   0.504154 0.366499 0.721415 0.187172
C32   C     C_R   0.499743 0.497186 0.746373 0.313301
O10   O     O_2   0.280746 0.486350 0.797104 -0.538901
C33   C     C_R   0.385317 0.485076 0.025575 0.043149
C34   C     C_R   0.499309 0.504099 0.050775 0.067410
C35   C     C_R   0.613252 0.523690 0.025469 0.043174
C36   C     C_R   0.275705 0.458754 0.052591 -0.206242
H4    H     H_    0.492737 0.728482 0.652678 0.153453
H5    H     H_    0.492421 0.725579 0.740640 0.138468
H6    H     H_    0.185557 0.483435 0.878805 0.186606
H7    H     H_    0.181705 0.483985 0.963911 0.135382
H8    H     H_    0.186774 0.436676 0.036335 0.137187
O11   O     O_2   0.715072 0.547572 0.202825 -0.536628
C37   C     C_R   0.721408 0.550712 0.102334 -0.146435
H9    H     H_    0.519715 0.729414 0.347764 0.143124
H10   H     H_    0.519695 0.728860 0.259598 0.136000
H11   H     H_    0.808024 0.570728 0.121169 0.187339
C38   C     C_R   0.725833 0.523070 0.947354 -0.205860
C39   C     C_R   0.724756 0.520551 0.897426 -0.147781
O12   O     O_2   0.718163 0.517219 0.796900 -0.538258
C40   C     C_R   0.722888 0.549556 0.052400 -0.206224
H12   H     H_    0.816826 0.526490 0.963592 0.135354
H13   H     H_    0.507208 0.271398 0.650561 0.159973
H14   H     H_    0.813068 0.524982 0.878513 0.186693
H15   H     H_    0.811778 0.572070 0.036083 0.137169
C41   C     C_3   0.071202 0.655849 0.500712 -0.376424
C42   C     C_3   0.071702 0.422338 0.545270 -0.375882
H16   H     H_    0.105514 0.715208 0.468642 0.163093
H17   H     H_    0.106011 0.310617 0.545827 0.160273
H18   H     H_    0.105109 0.712697 0.533282 0.160110
H19   H     H_    0.106488 0.475158 0.578448 0.158777
C43   C     C_3   0.928505 0.655837 0.500647 -0.377157
C44   C     C_3   0.927762 0.422407 0.545273 -0.376345
H20   H     H_    0.894158 0.712902 0.533141 0.160612
H21   H     H_    0.892801 0.475375 0.578431 0.158896
H22   H     H_    0.894586 0.714976 0.468498 0.162354
H23   H     H_    0.893399 0.310720 0.545874 0.160234
H24   H     H_    0.106922 0.480555 0.421693 0.159194
H25   H     H_    0.106450 0.313804 0.453150 0.162577
H26   H     H_    0.893296 0.480268 0.421678 0.159279
H27   H     H_    0.893837 0.313638 0.453210 0.162189
C45   C     C_3   0.072014 0.425413 0.454493 -0.375912
C46   C     C_3   0.121701 0.500928 0.500146 0.157379
C47   C     C_3   0.878061 0.500904 0.500124 0.157514
C48   C     C_3   0.928103 0.425302 0.454498 -0.375780
C49   C     C_3   0.615076 0.083743 0.523361 -0.188241
C50   C     C_3   0.615079 0.916102 0.523352 -0.188288
H28   H     H_    0.624716 0.123535 0.560832 0.137707
H29   H     H_    0.624818 0.875981 0.560807 0.139654
H30   H     H_    0.698891 0.120839 0.503434 0.139143
H31   H     H_    0.698831 0.879264 0.503378 0.138361
H32   H     H_    0.395023 0.123182 0.566212 0.138804
H33   H     H_    0.394818 0.876334 0.566169 0.139231
C51   C     C_3   0.393009 0.083796 0.528525 -0.187858
C52   C     C_3   0.392973 0.916100 0.528498 -0.188033
C53   C     C_3   0.492596 0.083765 0.451658 -0.186074
C54   C     C_3   0.492653 0.916533 0.451657 -0.185991
N3    N     N_3   0.500250 0.143650 0.501060 -0.112056
N4    N     N_3   0.500250 0.856350 0.501060 -0.112129
H34   H     H_    0.406548 0.122852 0.433632 0.138643
H35   H     H_    0.406692 0.877496 0.433598 0.140288
H36   H     H_    0.572812 0.122206 0.429813 0.140859
H37   H     H_    0.572954 0.878268 0.429850 0.138715
H38   H     H_    0.303692 0.121341 0.512764 0.138815
H39   H     H_    0.303719 0.878886 0.512663 0.138117
C55   C     C_3   0.509062 0.228483 0.750057 -0.370213
C56   C     C_3   0.515128 0.091502 0.720504 -0.873676
H40   H     H_    0.430698 0.080540 0.697705 0.248596
H41   H     H_    0.600343 0.090041 0.697763 0.251490
H42   H     H_    0.519009 0.998789 0.745213 0.251127
H43   H     H_    0.592310 0.231120 0.773797 0.219320
H44   H     H_    0.425113 0.222475 0.773426 0.220959

loop_
_geom_bond_atom_site_label_1
_geom_bond_atom_site_label_2
_geom_bond_distance
_ccdc_geom_bond_type
C55   H44   1.111132 S    
C51   H38   1.111212 S    
H27   C48   1.113230 S    
C3    C47   1.479211 S    
C17   C29   1.401899 A    
C20   C24   1.422189 A    
C7    C8    1.394190 A    
C12   C15   1.408361 A    
C49   H30   1.111417 S    
C41   H18   1.113725 S    
Cu1   Cu2   2.678436 S    
C43   C47   1.554371 S    
Cu1   O7    1.950007 S    
N1    C11   1.433000 S    
C37   H11   1.083573 S    
C38   H12   1.076257 S    
C21   C22   1.388736 A    
C15   C37   1.395632 A    
O4    C2    1.296892 A    
O7    C4    1.297774 A    
C43   H20   1.113767 S    
C5    C13   1.404106 A    
C7    H10   1.082876 S    
C39   H14   1.083587 S    
C51   N3    1.489983 S    
C18   C21   1.416090 A    
Cu1   O5    1.966413 S    
C19   C20   1.421343 A    
C26   N2    1.366554 A    
C8    H9    1.082921 S    
O5    C3    1.288700 A    
C51   C52   1.577008 S    
C44   C47   1.550702 S    
C41   C43   1.530353 S    
C50   N4    1.489802 S    
C22   H6    1.083584 S    
C2    C16   1.472250 S    
C37   C40   1.388730 A    
C30   H13   1.080325 S    
Cu1   N4    2.012132 S    
C53   H36   1.112713 S    
C56   H42   1.110251 S    
C12   C34   1.422296 A    
C14   H3    1.083571 S    
C50   H29   1.112430 S    
C9    C10   1.394565 A    
C42   H17   1.113216 S    
O3    Cu1   1.950811 S    
C49   H28   1.112521 S    
C55   C56   1.530170 S    
C33   C34   1.421276 A    
C52   N4    1.490041 S    
C33   C36   1.416042 A    
C34   C35   1.421326 A    
C12   C13   1.408399 A    
O3    C2    1.296734 A    
C21   H7    1.076325 S    
C24   C25   1.408567 A    
C44   H21   1.113163 S    
C27   O10   1.349684 S    
C8    C16   1.406115 A    
C18   C33   1.421759 A    
C9    H1    1.082984 S    
O1    C1    1.288773 A    
C7    C11   1.399569 A    
C22   C23   1.395503 A    
C43   H22   1.113744 S    
C31   C32   1.412908 A    
C45   C48   1.543372 S    
Cu2   O8    1.950504 S    
C19   C38   1.416149 A    
N1    C6    1.367220 A    
C42   C44   1.543675 S    
C54   N4    1.487532 S    
N2    C32   1.433834 S    
C53   N3    1.487745 S    
Cu2   N3    2.012061 S    
C35   C40   1.416047 A    
C41   H16   1.113770 S    
C25   C26   1.403778 A    
H33   C52   1.112119 S    
C9    C16   1.406074 A    
O8    C4    1.296539 A    
C29   H4    1.083232 S    
H32   C51   1.112224 S    
C25   C39   1.395476 A    
N2    C27   1.366586 A    
C14   C36   1.388737 A    
C50   H31   1.111052 S    
C28   C29   1.390382 A    
C56   H40   1.110862 S    
H25   C45   1.113233 S    
C5    N1    1.367196 A    
C30   C31   1.408383 A    
C10   H2    1.082861 S    
O1    Cu1   1.966070 S    
C17   C30   1.406185 A    
O2    Cu2   1.965988 S    
C6    C15   1.404063 A    
H24   C45   1.113177 S    
C4    C17   1.473261 S    
O6    C3    1.292110 A    
O4    Cu2   1.950313 S    
C36   H8    1.076295 S    
C26   O12   1.349678 S    
C52   H39   1.110914 S    
C31   C55   1.522944 S    
C19   C35   1.421866 A    
C54   H37   1.112677 S    
C55   H43   1.111296 S    
C1    C46   1.479193 S    
C38   C39   1.388734 A    
O2    C1    1.292025 A    
C13   C14   1.395636 A    
C42   C46   1.550734 S    
C23   C27   1.403752 A    
C44   H23   1.113250 S    
C41   C46   1.554270 S    
C28   H5    1.082657 S    
C47   C48   1.550393 S    
C23   C24   1.408596 A    
C49   C50   1.576486 S    
C18   C20   1.421286 A    
C53   H34   1.112893 S    
C40   H15   1.076256 S    
C53   C54   1.572651 S    
C49   N3    1.489687 S    
C28   C32   1.398782 A    
C6    O11   1.349762 S    
C45   C46   1.550470 S    
Cu2   O6    1.966496 S    
H26   C48   1.113175 S    
C42   H19   1.113161 S    
C10   C11   1.399805 A    
C54   H35   1.112886 S    
C5    O9    1.349751 S    
C56   H41   1.110833 S    
