data_mof_unit_19434.cif
_audit_creation_date              2012-12-10T18:06:47-0500
_audit_creation_method            fapswitch 2.2
_symmetry_space_group_name_H-M    P1
_symmetry_Int_Tables_number       1
_space_group_crystal_system       triclinic
_cell_length_a                    12.639628
_cell_length_b                    13.196703
_cell_length_c                    15.385457
_cell_angle_alpha                 83.648994
_cell_angle_beta                  98.770513
_cell_angle_gamma                 96.696244
_cell_volume                      2507.71333985

loop_
_atom_site_label
_atom_site_type_symbol
_atom_type_description
_atom_site_fract_x
_atom_site_fract_y
_atom_site_fract_z
_atom_type_partial_charge
Br1   Br    Br    0.814268 0.138310 0.607144 -0.508839
Br2   Br    Br    0.131448 0.800018 0.635736 -0.468078
Br3   Br    Br    0.555621 0.766155 0.853543 -0.595840
C1    C     C_R   0.444020 0.308453 0.511199 0.928930
C2    C     C_R   0.678413 0.453159 0.940875 0.102650
C3    C     C_R   0.603025 0.523606 0.906788 0.142736
C4    C     C_R   0.436047 0.514029 0.335941 0.842936
C5    C     C_R   0.729687 0.407159 0.883537 -0.328640
C6    C     C_R   0.699394 0.422905 0.791634 0.519177
C7    C     C_R   0.566452 0.531686 0.816124 -0.306420
C8    C     C_R   0.725067 0.941424 0.504324 -0.141279
C9    C     C_R   0.587960 0.800802 0.480117 -0.080081
C10   C     C_R   0.298774 0.172925 0.476371 -0.275192
C11   C     C_R   0.269479 0.080610 0.440090 -0.165633
C12   C     C_R   0.479924 0.553886 0.103592 0.093451
C13   C     C_R   0.347425 0.015682 0.435181 0.586354
C14   C     C_R   0.454057 0.035538 0.481231 -0.103199
C15   C     C_R   0.481729 0.127377 0.521855 -0.166639
C16   C     C_R   0.555412 0.691507 0.487950 0.843297
C17   C     C_R   0.535166 0.969261 0.486387 0.022252
C18   C     C_R   0.644938 0.003800 0.512947 -0.001455
C19   C     C_R   0.669870 0.093640 0.555846 0.146290
C20   C     C_R   0.585968 0.146715 0.570435 0.503963
C21   C     C_R   0.508683 0.866162 0.475578 -0.119563
C22   C     C_R   0.695917 0.840308 0.485340 -0.223950
C23   C     C_R   0.418569 0.637222 0.072135 0.115133
C24   C     C_R   0.406396 0.199949 0.510236 -0.102235
C25   C     C_R   0.135485 0.665752 0.597704 0.161197
C26   C     C_R   0.756417 0.378067 0.397502 -0.165830
C27   C     C_R   0.850948 0.352538 0.373257 0.401551
C28   C     C_R   0.565465 0.486935 0.664347 0.901431
C29   C     C_R   0.949240 0.404293 0.406918 0.453533
C30   C     C_R   0.952753 0.471212 0.474644 -0.141998
C31   C     C_R   0.853639 0.494618 0.495068 0.100063
C32   C     C_R   0.048493 0.519988 0.519476 -0.075625
C33   C     C_R   0.042330 0.600858 0.572400 -0.085292
C34   C     C_R   0.554268 0.526145 0.052620 0.022307
C35   C     C_R   0.943627 0.616474 0.596939 0.484045
C36   C     C_R   0.850765 0.563727 0.556776 -0.268519
C37   C     C_R   0.150925 0.491540 0.515050 -0.108061
C38   C     C_R   0.233766 0.640034 0.581628 0.576939
C39   C     C_R   0.406995 0.540288 0.241543 -0.054888
C40   C     C_R   0.610553 0.479453 0.758729 -0.179458
C41   C     C_R   0.348442 0.667933 0.124544 -0.176236
C42   C     C_R   0.344210 0.620810 0.209906 -0.206768
C43   C     C_R   0.466050 0.501795 0.185741 -0.225643
C44   C     C_3   0.347819 0.970117 0.297438 -0.346384
C45   C     C_R   0.553634 0.571828 0.965175 0.023453
C46   C     C_3   0.562199 0.174724 0.708484 -0.197258
C47   C     C_3   0.368573 0.703426 0.683200 -0.158807
C48   C     C_3   0.871936 0.741072 0.658230 -0.187748
C49   C     C_3   0.053117 0.467454 0.301655 -0.266578
C50   C     C_3   0.818468 0.185241 0.345845 -0.252943
C51   C     C_3   0.858293 0.390409 0.748459 -0.177522
C52   C     C_R   0.504047 0.663460 0.940009 0.218159
C53   C     C_R   0.434259 0.693373 0.992007 -0.251944
C54   C     C_R   0.631779 0.457106 0.086367 -0.198412
C55   C     C_R   0.696512 0.424971 0.031504 -0.189555
H1    H     H_    0.396220 0.763337 0.971732 0.183689
H2    H     H_    0.679244 0.343402 0.368326 0.161491
H3    H     H_    0.776605 0.576373 0.575716 0.214965
H4    H     H_    0.755134 0.372096 0.059099 0.163628
H5    H     H_    0.302277 0.732375 0.101676 0.142089
H6    H     H_    0.298373 0.651895 0.252888 0.161737
H7    H     H_    0.506405 0.434588 0.210734 0.136566
H8    H     H_    0.646348 0.429125 0.155271 0.155750
H9    H     H_    0.436337 0.989855 0.301010 0.168580
H10   H     H_    0.304531 0.036532 0.265931 0.169838
H11   H     H_    0.324830 0.906610 0.254476 0.201799
H12   H     H_    0.788725 0.354542 0.910358 0.155400
H13   H     H_    0.597967 0.102948 0.736856 0.183479
H14   H     H_    0.473056 0.160035 0.694664 0.136434
H15   H     H_    0.580601 0.229815 0.759362 0.193718
H16   H     H_    0.456941 0.707801 0.685377 0.205831
H17   H     H_    0.341500 0.631938 0.723216 0.117267
H18   H     H_    0.350813 0.770596 0.713853 0.222634
H19   H     H_    0.786287 0.708905 0.652027 0.133918
H20   H     H_    0.888855 0.795344 0.600353 0.169927
H21   H     H_    0.886571 0.786077 0.716421 0.224293
H22   H     H_    0.065197 0.544945 0.325945 0.154660
H23   H     H_    0.757576 0.791081 0.482135 0.154460
H24   H     H_    0.983914 0.462857 0.247517 0.181857
H25   H     H_    0.126462 0.456747 0.273642 0.194125
H26   H     H_    0.734093 0.175862 0.360263 0.146247
H27   H     H_    0.874564 0.163482 0.406425 0.192577
H28   H     H_    0.823579 0.131149 0.296715 0.190334
H29   H     H_    0.892856 0.337044 0.803566 0.155402
H30   H     H_    0.886755 0.471420 0.760627 0.164874
H31   H     H_    0.889306 0.374836 0.688085 0.212160
H32   H     H_    0.809764 0.967687 0.517273 0.181971
H33   H     H_    0.426206 0.833714 0.472925 0.246446
H34   H     H_    0.239455 0.227393 0.469297 0.198994
H35   H     H_    0.187901 0.063902 0.407850 0.174275
H36   H     H_    0.498638 0.573528 0.790776 0.180694
H37   H     H_    0.163340 0.422576 0.488507 0.221888
N1    N     N_R   0.239390 0.551900 0.544730 -0.173741
N2    N     N_R   0.759950 0.448600 0.455730 -0.122036
O1    O     O_R   0.374950 0.371210 0.521360 -0.630859
O2    O     O_3   0.606753 0.217727 0.632283 -0.535861
O3    O     O_3   0.323196 0.709686 0.593687 -0.588553
O4    O     O_3   0.942305 0.663509 0.673324 -0.593083
O5    O     O_3   0.039193 0.389602 0.370763 -0.608998
O6    O     O_3   0.847742 0.285668 0.309536 -0.594553
O7    O     O_3   0.744955 0.372173 0.734382 -0.551586
O8    O     O_R   0.542050 0.338030 0.492790 -0.574189
O9    O     O_R   0.368720 0.526070 0.390200 -0.609710
O10   O     O_R   0.535820 0.492890 0.361630 -0.618041
O11   O     O_R   0.457950 0.661970 0.507210 -0.556556
O12   O     O_R   0.625050 0.628790 0.478640 -0.643376
O13   O     O_R   0.464180 0.507110 0.638370 -0.619545
O14   O     O_R   0.631280 0.473930 0.609800 -0.555219
O15   O     O_3   0.318196 0.936797 0.381472 -0.623407
Zn1   Zn    Zn3+2 0.388420 0.522150 0.519080 0.976293
Zn2   Zn    Zn3+2 0.611580 0.477850 0.480920 0.981683

loop_
_geom_bond_atom_site_label_1
_geom_bond_atom_site_label_2
_ccdc_geom_bond_type
C55   H4    S    
C45   C52   A    
C20   O2    S    
C52   C53   A    
C1    O1    A    
C32   C33   A    
C54   H8    S    
C46   H15   S    
C14   C17   A    
C23   C41   A    
C49   O5    S    
C3    C45   A    
C2    C55   A    
C50   H26   S    
C2    C3    A    
C51   O7    S    
C35   O4    S    
C47   H16   S    
C35   C36   A    
C38   N1    A    
C7    H36   S    
C44   O15   S    
C25   C38   A    
C31   N2    A    
C39   C43   A    
C4    C39   S    
C44   H11   S    
Br3   C52   S    
C12   C34   A    
C17   C21   A    
C5    C6    A    
C46   H14   S    
C27   O6    S    
C50   H28   S    
C11   C13   A    
C11   H35   S    
C16   O11   A    
Br1   C19   S    
C18   C19   A    
C22   H23   S    
C37   N1    A    
C44   H9    S    
C14   C15   A    
C16   O12   A    
C41   H5    S    
C36   H3    S    
C4    O9    A    
C6    C40   A    
O9    Zn1   S    
C15   C20   A    
O8    Zn2   S    
C51   H31   S    
C13   C14   A    
O1    Zn1   S    
C8    C18   A    
C31   C36   A    
C39   C42   A    
O11   Zn1   S    
C49   H25   S    
C48   H19   S    
O10   Zn2   S    
C26   C27   A    
C47   H18   S    
C46   O2    S    
C26   H2    S    
C30   C31   A    
C38   O3    S    
C34   C45   A    
C49   H24   S    
O13   Zn1   S    
C28   C40   S    
O12   Zn2   S    
C43   H7    S    
C10   H34   S    
C29   O5    S    
N1    Zn1   S    
C37   H37   S    
C21   H33   S    
C44   H10   S    
C1    C24   S    
C41   C42   A    
C13   O15   S    
C28   O14   A    
C7    C40   A    
C5    H12   S    
C15   C24   A    
C12   C23   A    
C23   C53   A    
C3    C7    A    
C2    C5    A    
C50   H27   S    
C48   O4    S    
C1    O8    A    
C9    C21   A    
C42   H6    S    
C47   O3    S    
C53   H1    S    
C26   N2    A    
C9    C22   A    
C29   C30   A    
C51   H30   S    
C33   C35   A    
C32   C37   A    
C48   H20   S    
C49   H22   S    
C47   H17   S    
C27   C29   A    
C8    H32   S    
C54   C55   A    
C51   H29   S    
C50   O6    S    
C6    O7    S    
C9    C16   S    
C30   C32   A    
C28   O13   A    
O14   Zn2   S    
C4    O10   A    
C48   H21   S    
C17   C18   A    
C25   C33   A    
C46   H13   S    
C8    C22   A    
C19   C20   A    
C10   C24   A    
Br2   C25   S    
C12   C43   A    
N2    Zn2   S    
C10   C11   A    
C34   C54   A    
