data_mof_unit_18936.cif
_audit_creation_date              2012-12-10T20:46:50-0500
_audit_creation_method            fapswitch 2.2
_symmetry_space_group_name_H-M    P1
_symmetry_Int_Tables_number       1
_space_group_crystal_system       triclinic
_cell_length_a                    12.889675
_cell_length_b                    8.93255
_cell_length_c                    8.112389
_cell_angle_alpha                 89.963995
_cell_angle_beta                  97.776554
_cell_angle_gamma                 90.040644
_cell_volume                      925.451066371

loop_
_atom_site_label
_atom_site_type_symbol
_atom_type_description
_atom_site_fract_x
_atom_site_fract_y
_atom_site_fract_z
_atom_type_partial_charge
C1    C     C_R   0.500015 0.218011 0.500032 0.933280
C2    C     C_R   0.867513 0.575417 0.686535 -0.186599
C3    C     C_R   0.132733 0.580537 0.558935 -0.060447
C4    C     C_R   0.867287 0.419650 0.441078 -0.060367
C5    C     C_R   0.027206 0.545700 0.565172 -0.026147
C6    C     C_R   0.972784 0.454603 0.434782 -0.026152
C7    C     C_1   0.500009 0.065196 0.500043 -0.162284
C8    C     C_1   0.499991 0.934804 0.499957 -0.162276
C9    C     C_1   0.813844 0.298129 0.345170 0.311615
C10   C     C_1   0.186263 0.701897 0.654997 0.311713
C11   C     C_R   0.499985 0.781989 0.499968 0.933237
C12   C     C_R   0.297836 0.504024 0.466717 0.891960
C13   C     C_R   0.702163 0.496004 0.533283 0.891966
C14   C     C_R   0.814382 0.494147 0.555942 -0.175939
C15   C     C_R   0.185615 0.506010 0.444049 -0.175994
C16   C     C_R   0.025931 0.404454 0.302536 0.420232
C17   C     C_R   0.974023 0.595940 0.697350 0.420248
C18   C     C_R   0.132445 0.424908 0.313354 -0.186720
Cl1   Cl    Cl    0.966328 0.324159 0.114033 -0.561748
Cl2   Cl    Cl    0.033538 0.676537 0.885735 -0.561736
H1    H     H_    0.825606 0.624133 0.780647 0.203132
H2    H     H_    0.174324 0.376248 0.219178 0.203133
N1    N     N_1   0.500020 0.500000 0.073640 -0.016373
N2    N     N_1   0.499980 0.500000 0.926360 -0.016371
N3    N     N_1   0.770401 0.201142 0.270308 -0.141576
N4    N     N_1   0.229782 0.798748 0.729985 -0.141537
O1    O     O_R   0.499990 0.285340 0.636850 -0.610160
O2    O     O_R   0.500010 0.714660 0.363150 -0.610165
O3    O     O_R   0.500010 0.285340 0.363150 -0.615878
O4    O     O_R   0.499990 0.714660 0.636850 -0.615892
O5    O     O_R   0.346350 0.500000 0.614250 -0.613946
O6    O     O_R   0.653650 0.500000 0.385750 -0.613907
O7    O     O_R   0.346360 0.500000 0.340500 -0.615056
O8    O     O_R   0.653640 0.500000 0.659500 -0.615017
Zn1   Zn    Zn3+2 0.499990 0.500000 0.682780 1.025886
Zn2   Zn    Zn3+2 0.500010 0.500000 0.317220 1.025886

loop_
_geom_bond_atom_site_label_1
_geom_bond_atom_site_label_2
_ccdc_geom_bond_type
C15   C18   A    
N1    N2    T    
C13   O6    A    
C12   C15   S    
C10   N4    T    
C2    H1    S    
C1    O3    A    
C12   O7    A    
C9    N3    T    
C13   O8    A    
C3    C10   S    
C18   H2    S    
C13   C14   S    
C2    C17   A    
O3    Zn2   S    
C11   O2    A    
C8    C11   S    
O4    Zn1   S    
C4    C6    A    
N1    Zn2   S    
C16   Cl1   S    
C12   O5    A    
C4    C14   A    
C5    C6    A    
C2    C14   A    
O5    Zn1   S    
N2    Zn1   S    
C5    C17   A    
C6    C16   A    
O6    Zn2   S    
C7    C8    T    
O7    Zn2   S    
C3    C15   A    
O2    Zn2   S    
C16   C18   A    
O8    Zn1   S    
C1    O1    A    
O1    Zn1   S    
C4    C9    S    
C1    C7    S    
C17   Cl2   S    
C11   O4    A    
C3    C5    A    
