data_mof_unit_46139.cif
_audit_creation_date              2012-10-26T19:20:13-0400
_audit_creation_method            fapswitch 2.2
_symmetry_space_group_name_H-M    P1
_symmetry_Int_Tables_number       1
_space_group_crystal_system       triclinic
_cell_length_a                    15.879157
_cell_length_b                    10.921455
_cell_length_c                    9.767104
_cell_angle_alpha                 88.749315
_cell_angle_beta                  89.941219
_cell_angle_gamma                 91.413025
_cell_volume                      1692.92478353

loop_
_atom_site_label
_atom_site_type_symbol
_atom_type_description
_atom_site_fract_x
_atom_site_fract_y
_atom_site_fract_z
_atom_type_partial_charge
C1    C     C_R   0.503839 0.265765 0.501323 0.556337
C2    C     C_2   0.486341 0.866016 0.491983 0.281577
C3    C     C_2   0.528062 0.067297 0.395736 0.229468
C4    C     C_R   0.340126 0.500118 0.500092 0.513145
C5    C     C_2   0.517033 0.134836 0.507198 -0.035985
C6    C     C_2   0.437645 0.452728 0.924471 0.487258
C7    C     C_2   0.446241 0.434158 0.081597 0.482436
C8    C     C_R   0.497591 0.734006 0.498464 0.567036
C9    C     C_R   0.659912 0.500595 0.499940 0.537442
C10   C     C_3   0.969650 0.385651 0.521804 -0.135460
C11   C     C_3   0.026449 0.432790 0.402054 0.210695
C12   C     C_3   0.083717 0.503426 0.501011 0.104581
C13   C     C_1   0.250631 0.501373 0.500494 0.003470
C14   C     C_1   0.749507 0.501373 0.499931 -0.005251
C15   C     C_3   0.026732 0.459510 0.620149 0.191936
C16   C     C_3   0.347813 0.305578 0.836608 -0.032576
C17   C     C_3   0.254462 0.270847 0.843859 -0.356822
C18   C     C_3   0.602222 0.642007 0.122877 0.086087
C19   C     C_3   0.628799 0.751507 0.032219 -0.374348
C20   C     C_3   0.002342 0.823377 0.464228 -0.009373
C21   C     C_3   0.039938 0.948202 0.422728 -0.356511
C22   C     C_3   0.346845 0.845905 0.566625 -0.004021
C23   C     C_3   0.972480 0.574692 0.604625 -0.144571
C24   C     C_3   0.272766 0.922329 0.608713 -0.363770
C25   C     C_3   0.916493 0.502231 0.501985 -0.032759
C26   C     C_3   0.029131 0.617181 0.481949 0.238505
C27   C     C_3   0.972951 0.546279 0.381710 0.254407
C28   C     C_1   0.175230 0.502481 0.500923 0.057806
C29   C     C_1   0.824972 0.501939 0.500573 -0.013041
C30   C     C_2   0.540842 0.934499 0.414760 0.202618
Cu1   Cu    Cu3+1 0.500020 0.500020 0.638630 1.008747
Cu2   Cu    Cu3+1 0.499980 0.499980 0.361370 1.090915
H1    H     H_    0.520980 0.092445 0.608721 0.098964
H2    H     H_    0.615425 0.529624 0.845945 0.356455
H3    H     H_    0.344143 0.334292 0.099532 0.313406
H4    H     H_    0.645020 0.564968 0.103874 0.160107
H5    H     H_    0.611043 0.670876 0.229048 0.220907
H6    H     H_    0.589992 0.831513 0.056379 0.174415
H7    H     H_    0.696080 0.775828 0.050784 0.109090
H8    H     H_    0.620410 0.730454 0.922447 0.158640
H9    H     H_    0.994157 0.613437 0.201819 0.347816
H10   H     H_    0.977913 0.828973 0.570657 0.129355
H11   H     H_    0.949244 0.802212 0.393490 0.171739
H12   H     H_    0.945182 0.290460 0.539022 0.119418
H13   H     H_    0.065341 0.945717 0.316859 0.174223
H14   H     H_    0.990628 0.018430 0.426572 0.106329
H15   H     H_    0.091543 0.974123 0.493850 0.156797
H16   H     H_    0.006533 0.393017 0.800633 0.333537
H17   H     H_    0.643120 0.944848 0.305568 0.325926
H18   H     H_    0.354059 0.771445 0.644852 0.173835
H19   H     H_    0.331989 0.805812 0.465176 0.136080
H20   H     H_    0.263026 0.997238 0.532036 0.165026
H21   H     H_    0.214763 0.863538 0.615263 0.140362
H22   H     H_    0.285014 0.962732 0.710358 0.156873
H23   H     H_    0.949652 0.630791 0.689833 0.117961
H24   H     H_    0.532630 0.054559 0.198169 0.327582
H25   H     H_    0.004925 0.325990 0.252394 0.335706
H26   H     H_    0.383050 0.242265 0.905570 0.118317
H27   H     H_    0.368344 0.289591 0.730628 0.189865
H28   H     H_    0.219080 0.327235 0.768638 0.215201
H29   H     H_    0.244956 0.172715 0.819187 0.099687
H30   H     H_    0.229401 0.286175 0.948046 0.177002
N1    N     N_2   0.499090 0.498660 0.846910 -0.051569
N2    N     N_2   0.499070 0.498630 0.153040 -0.018483
O1    O     O_R   0.500010 0.321960 0.617040 -0.537010
O2    O     O_3   0.358895 0.431241 0.867558 -0.572907
O3    O     O_3   0.575445 0.478046 0.900132 -0.648114
O4    O     O_3   0.395908 0.349837 0.152598 -0.664657
O5    O     O_3   0.517230 0.610136 0.095395 -0.487462
O6    O     O_3   0.943104 0.590540 0.255923 -0.697122
O7    O     O_3   0.065339 0.734924 0.457265 -0.563813
O8    O     O_3   0.057256 0.414043 0.744899 -0.697707
O9    O     O_3   0.607425 0.879827 0.350375 -0.760112
O10   O     O_3   0.420389 0.921501 0.560248 -0.619505
O11   O     O_3   0.529399 0.120589 0.265934 -0.657008
O12   O     O_R   0.499990 0.321920 0.382900 -0.388954
O13   O     O_R   0.379090 0.500010 0.617050 -0.479514
O14   O     O_R   0.379060 0.499970 0.382910 -0.465406
O15   O     O_R   0.500010 0.678080 0.617100 -0.517513
O16   O     O_R   0.499990 0.678040 0.382960 -0.489955
O17   O     O_R   0.620940 0.500030 0.617090 -0.515816
O18   O     O_R   0.620910 0.499990 0.382950 -0.530481
O19   O     O_3   0.056054 0.361035 0.296332 -0.687490

loop_
_geom_bond_atom_site_label_1
_geom_bond_atom_site_label_2
_ccdc_geom_bond_type
C24   H20   S    
C15   O8    S    
C26   C27   S    
C12   C28   S    
C1    C5    S    
C18   H5    S    
C10   C15   S    
C24   H22   S    
C18   C19   S    
C23   C26   S    
C4    C13   S    
C17   H29   S    
C7    O4    S    
C16   C17   S    
C5    H1    S    
C8    O15   A    
C1    O1    A    
H25   O19   S    
C20   O7    S    
C3    O11   S    
C2    O10   S    
C9    O18   A    
C22   H18   S    
C18   O5    S    
C15   C23   S    
H24   O11   S    
C26   O7    S    
H16   O8    S    
Cu1   O13   S    
C21   H13   S    
C25   C29   S    
N1    O3    S    
C10   H12   S    
Cu1   N1    S    
Cu2   N2    S    
C19   H8    S    
C30   O9    S    
C11   O19   S    
C24   H21   S    
C12   C26   S    
C16   H27   S    
C6    N1    D    
C3    C30   S    
C9    C14   S    
C4    O14   A    
C19   H6    S    
C17   H30   S    
Cu2   O16   S    
Cu1   Cu2   S    
C12   C15   S    
C11   C27   S    
C13   C28   T    
C16   H26   S    
N2    O5    S    
Cu1   O15   S    
C27   O6    S    
C19   H7    S    
C10   C25   S    
H17   O9    S    
C16   O2    S    
C22   O10   S    
C14   C29   T    
C20   H11   S    
C21   H14   S    
Cu1   O1    S    
C1    O12   A    
C2    C8    S    
C3    C5    D    
H2    O3    S    
Cu2   O12   S    
C20   H10   S    
C11   C12   S    
C23   H23   S    
C6    C7    S    
C25   C27   S    
Cu2   O18   S    
Cu1   O17   S    
C2    C30   D    
C4    O13   A    
H3    O4    S    
C22   C24   S    
C23   C25   S    
C7    N2    D    
C10   C11   S    
C17   H28   S    
Cu2   O14   S    
C6    O2    S    
C20   C21   S    
C8    O16   A    
C22   H19   S    
C18   H4    S    
C9    O17   A    
H9    O6    S    
C21   H15   S    
