data_mof_unit_59103.cif
_audit_creation_date              2012-12-10T18:58:15-0500
_audit_creation_method            fapswitch 2.2
_symmetry_space_group_name_H-M    P1
_symmetry_Int_Tables_number       1
_space_group_crystal_system       triclinic
_cell_length_a                    11.066546
_cell_length_b                    10.836016
_cell_length_c                    9.567363
_cell_angle_alpha                 90.246359
_cell_angle_beta                  102.320075
_cell_angle_gamma                 90.33533
_cell_volume                      1120.83364054

loop_
_atom_site_label
_atom_site_type_symbol
_atom_type_description
_atom_site_fract_x
_atom_site_fract_y
_atom_site_fract_z
_atom_type_partial_charge
C1    C     C_R   0.499275 0.262486 0.499529 0.804238
C2    C     C_R   0.490916 0.129362 0.495605 -0.074905
C3    C     C_R   0.509732 0.063705 0.375088 -0.223625
C4    C     C_R   0.508589 0.935123 0.374669 -0.237708
C5    C     C_R   0.491259 0.870506 0.496193 -0.085695
C6    C     C_R   0.460278 0.937181 0.608529 0.087970
C7    C     C_3   0.502907 0.933987 0.768257 0.085528
C8    C     C_3   0.499386 0.075087 0.766249 -0.488926
C9    C     C_R   0.577574 0.576793 0.092943 0.190571
C10   C     C_R   0.417153 0.430071 0.053174 0.327584
C11   C     C_R   0.416711 0.431883 0.903900 -0.145155
C12   C     C_R   0.263096 0.499788 0.442370 0.861714
C13   C     C_R   0.577288 0.577075 0.945435 0.264567
C14   C     C_3   0.714813 0.576244 0.972288 -0.486735
C15   C     C_3   0.715261 0.573060 0.130134 -0.516389
C16   C     C_R   0.499402 0.737504 0.499940 0.814165
C17   C     C_R   0.737077 0.500113 0.558150 0.861254
C18   C     C_2   0.128636 0.499358 0.411156 -0.359553
C19   C     C_2   0.068378 0.499509 0.518322 -0.152167
C20   C     C_2   0.871917 0.500322 0.592287 -0.364478
C21   C     C_2   0.934222 0.499047 0.487486 -0.157072
C22   C     C_R   0.458014 0.064023 0.607301 0.056091
Cu1   Cu    Cu3+1 0.499990 0.499980 0.640670 0.941385
Cu2   Cu    Cu3+1 0.500010 0.500020 0.359330 0.954568
H1    H     H_    0.886278 0.497603 0.376847 0.174988
H2    H     H_    0.589706 0.123327 0.799738 0.213149
H3    H     H_    0.350733 0.376086 0.830012 0.153895
H4    H     H_    0.752170 0.490349 0.934216 0.213516
H5    H     H_    0.753587 0.663125 0.938445 0.200630
H6    H     H_    0.748767 0.483156 0.177717 0.208729
H7    H     H_    0.756748 0.656845 0.189339 0.196236
H8    H     H_    0.117887 0.500059 0.629526 0.176582
H9    H     H_    0.920506 0.501560 0.703788 0.142982
H10   H     H_    0.078568 0.498893 0.300210 0.143511
H11   H     H_    0.532088 0.111012 0.284526 0.167599
H12   H     H_    0.528217 0.887083 0.282574 0.164445
H13   H     H_    0.432004 0.891747 0.820337 0.107689
H14   H     H_    0.425066 0.112976 0.815355 0.165749
N1    N     N_R   0.500780 0.500930 0.148120 -0.204003
N2    N     N_R   0.500790 0.500890 0.852210 -0.203341
O1    O     O_R   0.500000 0.319640 0.618810 -0.585165
O2    O     O_R   0.500010 0.319680 0.381230 -0.554529
O3    O     O_R   0.320680 0.500000 0.575130 -0.590536
O4    O     O_R   0.320690 0.500040 0.337550 -0.572553
O5    O     O_R   0.499990 0.680320 0.618770 -0.560127
O6    O     O_R   0.500000 0.680360 0.381190 -0.594170
O7    O     O_R   0.679310 0.499960 0.662450 -0.584076
O8    O     O_R   0.679320 0.500000 0.424870 -0.581846
N3    N     N_2   0.330372 0.355207 0.104444 -0.367426
H15   H     H_    0.243678 0.394084 0.087542 0.236604
C23   C     C_3   0.325975 0.226336 0.063169 -0.733344
H16   H     H_    0.270571 0.214004 0.952599 0.197424
H17   H     H_    0.281606 0.172196 0.136974 0.241107
H18   H     H_    0.420634 0.190253 0.069094 0.227031
N4    N     N_2   0.625259 0.880754 0.819226 -0.394452
H19   H     H_    0.644168 0.863258 0.927528 0.239562
C24   C     C_3   0.731955 0.928052 0.770187 -0.663732
H20   H     H_    0.805803 0.857420 0.789019 0.212061
H21   H     H_    0.768682 0.012385 0.831307 0.206407
H22   H     H_    0.709622 0.948806 0.654303 0.242175

loop_
_geom_bond_atom_site_label_1
_geom_bond_atom_site_label_2
_ccdc_geom_bond_type
C16   O5    A    
C2    C22   A    
C8    C22   S    
N4    H19   S    
C4    H12   S    
C15   H7    S    
C6    C7    S    
Cu1   O5    S    
C7    N4    S    
C8    H2    S    
C23   H17   S    
C5    C16   S    
Cu1   O1    S    
C17   O8    A    
C3    H11   S    
Cu1   Cu2   S    
C23   H18   S    
Cu2   O6    S    
Cu2   N1    S    
N3    C23   S    
C2    C3    A    
C7    H13   S    
Cu1   O3    S    
C7    C8    S    
C12   O4    A    
C13   C14   S    
C4    C5    A    
C18   H10   S    
C24   H20   S    
C11   N2    A    
C8    H14   S    
C20   H9    S    
C1    O1    A    
C19   C21   S    
C11   H3    S    
N3    H15   S    
C12   O3    A    
N4    C24   S    
C9    C15   S    
C5    C6    A    
Cu2   O4    S    
C23   H16   S    
C24   H21   S    
Cu1   O7    S    
C10   C11   A    
C19   H8    S    
C14   H5    S    
C12   C18   S    
C3    C4    A    
Cu2   O8    S    
C1    O2    A    
C9    N1    A    
C17   C20   S    
Cu2   O2    S    
C20   C21   D    
C15   H6    S    
C1    C2    S    
C16   O6    A    
Cu1   N2    S    
C9    C13   A    
C14   C15   S    
C18   C19   D    
C13   N2    A    
C21   H1    S    
C14   H4    S    
C10   N3    S    
C17   O7    A    
C10   N1    A    
C24   H22   S    
C6    C22   A    
