data_mof_unit_36119.cif
_audit_creation_date              2012-12-10T17:07:08-0500
_audit_creation_method            fapswitch 2.2
_symmetry_space_group_name_H-M    P1
_symmetry_Int_Tables_number       1
_space_group_crystal_system       triclinic
_cell_length_a                    10.09205
_cell_length_b                    10.724894
_cell_length_c                    13.630267
_cell_angle_alpha                 90.36752
_cell_angle_beta                  84.30256
_cell_angle_gamma                 89.872441
_cell_volume                      1467.96365891

loop_
_atom_site_label
_atom_site_type_symbol
_atom_type_description
_atom_site_fract_x
_atom_site_fract_y
_atom_site_fract_z
_atom_type_partial_charge
C1    C     C_R   0.498536 0.737131 0.509761 0.793059
C2    C     C_R   0.500850 0.262909 0.497548 0.979258
C3    C     C_R   0.522639 0.498434 0.314851 0.878591
C4    C     C_1   0.537821 0.486416 0.212099 -0.115488
C5    C     C_2   0.547876 0.465750 0.021905 0.270173
C6    C     C_2   0.449972 0.520964 0.978938 0.292614
C7    C     C_1   0.452289 0.515093 0.875467 0.048697
C8    C     C_1   0.547038 0.475203 0.125125 0.063353
C9    C     C_3   0.874777 0.584724 0.648360 0.237290
C10   C     C_3   0.804876 0.698213 0.698639 -0.379476
C11   C     C_3   0.788151 0.684596 0.810467 -0.897405
C12   C     C_1   0.462119 0.508291 0.788207 -0.129676
C13   C     C_3   0.788492 0.070561 0.615959 0.084100
C14   C     C_3   0.848563 0.143893 0.697174 -0.273817
C15   C     C_3   0.986223 0.095526 0.714356 -0.898122
C16   C     C_3   0.694727 0.889469 0.348079 0.035077
C17   C     C_3   0.795344 0.803535 0.289748 -0.245114
C18   C     C_3   0.766316 0.791137 0.182350 -0.894717
C19   C     C_3   0.270054 0.885924 0.598834 0.137599
C20   C     C_3   0.215478 0.921624 0.501262 -0.424454
C21   C     C_3   0.077313 0.867260 0.494839 -0.801890
C22   C     C_3   0.974378 0.301107 0.318310 0.043649
C23   C     C_2   0.603406 0.068942 0.526262 0.501527
C24   C     C_3   0.906393 0.218382 0.246901 -0.296631
C25   C     C_3   0.992763 0.105763 0.214292 -0.913377
C26   C     C_2   0.508465 0.131324 0.485475 -0.403671
C27   C     C_2   0.608209 0.936053 0.505597 0.249271
C28   C     C_2   0.498472 0.869237 0.535052 0.166492
C29   C     C_2   0.080723 0.507727 0.422561 0.345414
C30   C     C_2   0.936467 0.466069 0.425464 0.600639
C31   C     C_R   0.477388 0.501051 0.685179 0.888781
Cl1   Cl    Cl    0.319242 0.605425 0.045134 -0.550412
Cl2   Cl    Cl    0.677625 0.379501 0.956234 -0.647633
Cl3   Cl    Cl    0.146409 0.590546 0.318092 -0.569300
Cl4   Cl    Cl    0.095347 0.381776 0.581649 -0.648818
H1    H     H_    0.443358 0.086459 0.437014 0.083496
H2    H     H_    0.775260 0.972262 0.639997 0.149405
H3    H     H_    0.856074 0.243900 0.676500 0.258810
H4    H     H_    0.781978 0.136668 0.766947 0.254016
H5    H     H_    0.980887 0.995713 0.735604 0.240256
H6    H     H_    0.025410 0.149809 0.774758 0.300293
H7    H     H_    0.055363 0.106789 0.646465 0.286780
H8    H     H_    0.707217 0.986033 0.319577 0.135850
H9    H     H_    0.592592 0.856569 0.336389 0.122912
H10   H     H_    0.897389 0.840933 0.292561 0.228111
H11   H     H_    0.791548 0.709487 0.323667 0.271217
H12   H     H_    0.975278 0.580439 0.674632 0.168352
H13   H     H_    0.666937 0.748356 0.177870 0.263939
H14   H     H_    0.842788 0.730467 0.141795 0.295693
H15   H     H_    0.768534 0.883984 0.146672 0.259811
H16   H     H_    0.209004 0.935660 0.658891 0.168238
H17   H     H_    0.256027 0.786534 0.618878 0.167664
H18   H     H_    0.209796 0.024866 0.496341 0.229965
H19   H     H_    0.282003 0.887156 0.437012 0.238484
H20   H     H_    0.082769 0.764101 0.494143 0.304668
H21   H     H_    0.037730 0.898855 0.426087 0.264997
H22   H     H_    0.008388 0.898043 0.558674 0.237717
H23   H     H_    0.823612 0.496468 0.671797 0.174580
H24   H     H_    0.994956 0.243945 0.383315 0.140385
H25   H     H_    0.069815 0.335095 0.279942 0.192165
H26   H     H_    0.809451 0.185824 0.283448 0.212120
H27   H     H_    0.886813 0.273356 0.180954 0.263028
H28   H     H_    0.089319 0.136598 0.176006 0.281649
H29   H     H_    0.940873 0.047430 0.162609 0.274098
H30   H     H_    0.011821 0.048571 0.279076 0.256204
H31   H     H_    0.865892 0.782193 0.679952 0.205382
H32   H     H_    0.705745 0.712100 0.671820 0.251503
H33   H     H_    0.886895 0.676127 0.839327 0.281178
H34   H     H_    0.728022 0.600868 0.831484 0.297202
H35   H     H_    0.736229 0.767980 0.844422 0.271042
H36   H     H_    0.856408 0.075943 0.546488 0.163717
N1    N     N_2   0.147970 0.498670 0.498970 -0.001353
N2    N     N_2   0.852310 0.498640 0.498940 0.029256
O1    O     O_R   0.386960 0.680940 0.500020 -0.619767
O2    O     O_3   0.664797 0.124808 0.602562 -0.617349
O3    O     O_3   0.718106 0.887062 0.448627 -0.645606
O4    O     O_3   0.402689 0.925858 0.603120 -0.649502
O5    O     O_3   0.889429 0.402316 0.347257 -0.635131
O6    O     O_R   0.613100 0.680900 0.499980 -0.559595
O7    O     O_R   0.370650 0.500000 0.640370 -0.565665
O8    O     O_R   0.596800 0.499960 0.640330 -0.635355
O9    O     O_R   0.386900 0.319100 0.500020 -0.575940
O10   O     O_R   0.613040 0.319060 0.499980 -0.581845
O11   O     O_R   0.403200 0.500040 0.359670 -0.556341
O12   O     O_R   0.629350 0.500000 0.359630 -0.588148
O13   O     O_3   0.890919 0.602657 0.545294 -0.607402
Zn1   Zn    Zn3+2 0.349000 0.500030 0.500020 1.051928
Zn2   Zn    Zn3+2 0.651000 0.499970 0.499980 1.037303

loop_
_geom_bond_atom_site_label_1
_geom_bond_atom_site_label_2
_ccdc_geom_bond_type
C6    Cl1   S    
C24   H26   S    
C3    O12   A    
C19   C20   S    
O11   Zn1   S    
C4    C8    T    
C11   H35   S    
C31   O7    A    
C10   H32   S    
C1    O1    A    
C17   H10   S    
O7    Zn1   S    
C22   H25   S    
C5    C6    D    
O9    Zn1   S    
C9    H23   S    
C25   H28   S    
C23   C26   D    
C19   O4    S    
C14   H4    S    
C19   H17   S    
C13   O2    S    
C16   C17   S    
C5    Cl2   S    
C1    C28   S    
C23   C27   S    
O1    Zn1   S    
C9    C10   S    
C16   H9    S    
C13   H2    S    
C29   N1    D    
O10   Zn2   S    
C13   C14   S    
C2    O10   A    
O6    Zn2   S    
C10   H31   S    
C7    C12   T    
N2    O13   S    
C25   H30   S    
C24   C25   S    
C22   O5    S    
C20   H19   S    
C22   H24   S    
C21   H20   S    
C30   N2    D    
C13   H36   S    
C29   Cl3   S    
C25   H29   S    
N2    Zn2   S    
C21   H22   S    
C29   C30   S    
C9    O13   S    
C14   H3    S    
C17   C18   S    
C2    C26   S    
C17   H11   S    
C28   O4    S    
C16   H8    S    
C15   H6    S    
C26   H1    S    
Cl4   N1    S    
C9    H12   S    
C12   C31   S    
C1    O6    A    
C22   C24   S    
C2    O9    A    
C5    C8    S    
C27   O3    S    
C27   C28   D    
N1    Zn1   S    
C11   H33   S    
C18   H15   S    
O12   Zn2   S    
C24   H27   S    
C16   O3    S    
C15   H7    S    
C23   O2    S    
C20   H18   S    
C18   H13   S    
C21   H21   S    
C11   H34   S    
C6    C7    S    
C31   O8    A    
C15   H5    S    
O8    Zn2   S    
C10   C11   S    
C30   O5    S    
C19   H16   S    
C20   C21   S    
C3    O11   A    
C14   C15   S    
C3    C4    S    
C18   H14   S    
