data_mof_unit_11969.cif
_audit_creation_date              2012-12-10T17:16:41-0500
_audit_creation_method            fapswitch 2.2
_symmetry_space_group_name_H-M    P1
_symmetry_Int_Tables_number       1
_space_group_crystal_system       triclinic
_cell_length_a                    10.145712
_cell_length_b                    10.730493
_cell_length_c                    10.816977
_cell_angle_alpha                 90.595367
_cell_angle_beta                  94.041168
_cell_angle_gamma                 84.233299
_cell_volume                      1168.74866324

loop_
_atom_site_label
_atom_site_type_symbol
_atom_type_description
_atom_site_fract_x
_atom_site_fract_y
_atom_site_fract_z
_atom_type_partial_charge
C1    C     C_R   0.445892 0.507233 0.267138 0.948105
C2    C     C_R   0.503238 0.738888 0.496223 1.005170
C3    C     C_R   0.502567 0.127010 0.271647 0.546611
C4    C     C_R   0.476137 0.871885 0.724132 0.529337
C5    C     C_R   0.538672 0.063497 0.164520 0.545720
C6    C     C_R   0.419996 0.933611 0.824153 0.584483
C7    C     C_R   0.575473 0.935985 0.168374 -0.264776
C8    C     C_R   0.373076 0.058890 0.814238 -0.301879
C9    C     C_R   0.568232 0.869577 0.276918 0.529300
C10   C     C_R   0.388755 0.124913 0.707031 0.556706
C11   C     C_R   0.531592 0.932719 0.388293 -0.162416
C12   C     C_R   0.554124 0.487438 0.732527 0.939284
C13   C     C_R   0.450686 0.064874 0.604981 -0.161167
C14   C     C_R   0.507375 0.063861 0.386577 -0.190811
C15   C     C_R   0.481937 0.934773 0.609712 -0.208449
C16   C     C_R   0.514459 0.870169 0.499794 0.003338
C17   C     C_R   0.480072 0.128507 0.497722 0.022896
C18   C     C_2   0.419163 0.498201 0.133358 0.245030
C19   C     C_2   0.581698 0.473032 0.865828 0.215379
C20   C     C_2   0.508900 0.429794 0.066994 0.455620
C21   C     C_2   0.488658 0.430111 0.932624 0.344062
C22   C     C_2   0.074064 0.474077 0.508205 0.487481
C23   C     C_2   0.928747 0.494164 0.526419 0.580300
C24   C     C_R   0.496179 0.260362 0.504446 0.950822
F1    F     F_    0.449633 0.247110 0.259910 -0.673677
F2    F     F_    0.528391 0.751827 0.741576 -0.648097
F3    F     F_    0.534074 0.125012 0.055361 -0.662566
F4    F     F_    0.405810 0.870028 0.929257 -0.597041
F5    F     F_    0.598892 0.744345 0.269355 -0.638415
F6    F     F_    0.326744 0.241898 0.700008 -0.595483
F7    F     F_    0.883856 0.399115 0.342454 -0.501034
F8    F     F_    0.106788 0.664584 0.588128 -0.549886
H1    H     H_    0.323055 0.105290 0.889787 0.244221
H2    H     H_    0.605471 0.887014 0.085369 0.260329
H3    H     H_    0.322844 0.354997 0.940562 0.378657
H4    H     H_    0.670233 0.315342 0.059222 0.386241
H5    H     H_    0.750657 0.543608 0.861978 0.388639
H6    H     H_    0.256891 0.610783 0.136716 0.365598
H7    H     H_    0.957324 0.556099 0.693940 0.360781
H8    H     H_    0.189539 0.386699 0.396132 0.380464
N1    N     N_2   0.157300 0.551390 0.551120 0.098079
N2    N     N_2   0.842700 0.448610 0.448880 0.152643
O1    O     O_R   0.568940 0.489660 0.307530 -0.479858
O2    O     O_3   0.621307 0.363493 0.123297 -0.636015
O3    O     O_3   0.698570 0.507404 0.924330 -0.719567
O4    O     O_3   0.306714 0.561172 0.074232 -0.716488
O5    O     O_3   0.883052 0.557018 0.629296 -0.734303
O6    O     O_3   0.118444 0.366038 0.447650 -0.687558
O7    O     O_R   0.431060 0.510340 0.692470 -0.497676
O8    O     O_R   0.348880 0.522640 0.340350 -0.684558
O9    O     O_R   0.651120 0.477360 0.659650 -0.618383
O10   O     O_R   0.610030 0.300280 0.483580 -0.604120
O11   O     O_R   0.389970 0.699720 0.516420 -0.576821
O12   O     O_R   0.389970 0.333270 0.516400 -0.555729
O13   O     O_R   0.610030 0.666730 0.483600 -0.537273
O14   O     O_3   0.371576 0.393759 0.877061 -0.660190
Zn1   Zn    Zn3+2 0.646940 0.477980 0.478080 1.196100
Zn2   Zn    Zn3+2 0.353060 0.522020 0.521920 1.162841

loop_
_geom_bond_atom_site_label_1
_geom_bond_atom_site_label_2
_ccdc_geom_bond_type
C24   O10   A    
C21   O14   S    
C4    F2    S    
F8    N1    S    
C19   O3    S    
O9    Zn1   S    
F7    N2    S    
C9    F5    S    
C2    C16   S    
C1    O8    A    
C10   F6    S    
C22   O6    S    
C13   C17   A    
O11   Zn2   S    
C4    C15   A    
C13   C15   A    
C12   O7    A    
C9    C11   A    
C14   C17   A    
C1    C18   S    
C23   N2    D    
C3    C14   A    
C18   O4    S    
N2    Zn1   S    
C4    C6    A    
C19   C21   D    
N1    Zn2   S    
C18   C20   D    
C2    O13   A    
O13   Zn1   S    
C11   C14   A    
H6    O4    S    
C17   C24   S    
H4    O2    S    
O10   Zn1   S    
O1    Zn1   S    
H5    O3    S    
C15   C16   A    
C22   N1    D    
C7    C9    A    
C3    F1    S    
C12   O9    A    
C23   O5    S    
C20   C21   S    
C12   C19   S    
H7    O5    S    
O12   Zn2   S    
C7    H2    S    
C5    C7    A    
H8    O6    S    
C22   C23   S    
C6    C8    A    
C20   O2    S    
H3    O14   S    
C5    F3    S    
C11   C16   A    
C24   O12   A    
C1    O1    A    
C8    C10   A    
C6    F4    S    
O7    Zn2   S    
C2    O11   A    
C8    H1    S    
C3    C5    A    
C10   C13   A    
O8    Zn2   S    
