data_mof_unit_50794.cif
_audit_creation_date              2013-03-05T15:40:49-0500
_audit_creation_method            fapswitch 2.2
_symmetry_space_group_name_H-M    P1
_symmetry_Int_Tables_number       1
_space_group_crystal_system       triclinic
_cell_length_a                    7.80666
_cell_length_b                    8.698398
_cell_length_c                    14.912392
_cell_angle_alpha                 91.31186
_cell_angle_beta                  86.480344
_cell_angle_gamma                 93.249837
_cell_volume                      1008.90551414

loop_
_atom_site_label
_atom_site_type_symbol
_atom_site_description
_atom_site_fract_x
_atom_site_fract_y
_atom_site_fract_z
_atom_type_partial_charge
O1    O     O_R   0.389250 0.738570 0.505970 -0.596497
O2    O     O_R   0.610750 0.261430 0.494030 -0.596500
O3    O     O_R   0.678390 0.711620 0.490370 -0.584411
O4    O     O_R   0.321610 0.288380 0.509630 -0.584333
C1    C     C_R   0.544628 0.793574 0.497493 0.923459
C2    C     C_R   0.455371 0.206426 0.502505 0.923494
O5    O     O_R   0.355420 0.513510 0.639950 -0.577408
O6    O     O_R   0.644580 0.486490 0.360050 -0.577384
O7    O     O_R   0.644560 0.486560 0.624350 -0.588474
O8    O     O_R   0.355440 0.513440 0.375650 -0.588484
C3    C     C_R   0.503121 0.501127 0.672370 0.976231
C4    C     C_R   0.496878 0.498872 0.327629 0.976250
Zn1   Zn    Zn3+2 0.306940 0.517990 0.510420 1.202916
Zn2   Zn    Zn3+2 0.693060 0.482010 0.489580 1.202900
C5    C     C_R   0.458113 0.359963 0.186542 0.219583
C6    C     C_R   0.541894 0.640034 0.813457 0.219572
C7    C     C_R   0.490745 0.499443 0.232605 -0.236206
C8    C     C_R   0.509257 0.500555 0.767394 -0.236202
C9    C     C_R   0.525176 0.638935 0.188649 0.221895
C10   C     C_R   0.474832 0.361062 0.811350 0.221904
C11   C     C_R   0.528375 0.639868 0.095156 0.021264
C12   C     C_R   0.471639 0.360127 0.904842 0.021259
C13   C     C_R   0.497336 0.499884 0.047056 0.028020
C14   C     C_R   0.502679 0.500111 0.952943 0.028019
C15   C     C_R   0.461710 0.359607 0.092830 0.020753
C16   C     C_R   0.538304 0.640389 0.907169 0.020758
C17   C     C_R   0.560128 0.777934 0.048926 -0.127159
C18   C     C_R   0.439893 0.222061 0.951072 -0.127156
C19   C     C_R   0.564695 0.778252 0.956154 -0.133737
C20   C     C_R   0.435327 0.221743 0.043844 -0.133735
H1    H     H_    0.581233 0.886956 0.083946 0.194943
H2    H     H_    0.418791 0.113039 0.916052 0.194942
H3    H     H_    0.588286 0.887728 0.923557 0.191073
H4    H     H_    0.411742 0.112266 0.076440 0.191073
C21   C     C_2   0.568984 0.955167 0.495589 0.063783
C22   C     C_2   0.431014 0.044833 0.504402 0.063798
N1    N     N_2   0.950330 0.457950 0.475660 0.036840
N2    N     N_2   0.049670 0.542050 0.524340 0.036819
N3    N     N_R   0.426157 0.219432 0.235264 0.199960
O9    O     O_R   0.542621 0.170959 0.284865 -0.327491
O10   O     O_R   0.279414 0.141540 0.231577 -0.271076
N4    N     N_R   0.573846 0.780565 0.764735 0.199930
O11   O     O_R   0.457374 0.829043 0.715140 -0.327483
O12   O     O_R   0.720600 0.858443 0.768408 -0.271080
N5    N     N_R   0.558297 0.778466 0.239551 0.194399
O13   O     O_R   0.710780 0.847395 0.234898 -0.286208
O14   O     O_R   0.438595 0.831700 0.294247 -0.318081
N6    N     N_R   0.441709 0.221531 0.760448 0.194400
O15   O     O_R   0.289227 0.152600 0.765104 -0.286192
O16   O     O_R   0.561408 0.168298 0.705749 -0.318061
N7    N     N_R   0.744273 0.014772 0.484344 0.235883
O17   O     O_R   0.823942 0.011178 0.405215 -0.203975
O18   O     O_R   0.830165 0.050101 0.554651 -0.221698
N8    N     N_R   0.255725 0.985229 0.515649 0.235901
O19   O     O_R   0.176043 0.988871 0.594773 -0.203947
O20   O     O_R   0.169841 0.949870 0.445342 -0.221713
N9    N     N_R   0.019445 0.429513 0.389647 0.304527
O21   O     O_R   0.009877 0.531572 0.327989 -0.310692
O22   O     O_R   0.056266 0.289974 0.365941 -0.252511
N10   N     N_R   0.980591 0.570390 0.610372 0.304495
O23   O     O_R   0.989973 0.468157 0.671950 -0.310653
O24   O     O_R   0.944080 0.709956 0.634186 -0.252495

loop_
_geom_bond_atom_site_label_1
_geom_bond_atom_site_label_2
_geom_bond_distance
_ccdc_geom_bond_type
C4    C7    1.420907 S    
O5    Zn1   1.992667 S    
O7    Zn2   2.022033 S    
C9    N5    1.436121 S    
C3    C8    1.420901 S    
N1    N2    1.282197 D    
C6    N4    1.438126 S    
C17   C19   1.381773 A    
C21   C22   1.363401 D    
O6    C4    1.288329 A    
C13   C14   1.401553 A    
O3    C1    1.295068 A    
C12   C14   1.415539 A    
C18   C20   1.381774 A    
C11   C17   1.400782 A    
N10   O24   1.299305 A    
N3    O10   1.300938 A    
C12   C18   1.400779 A    
N5    O13   1.300826 A    
Zn2   N1    2.028575 S    
O5    C3    1.288329 A    
O7    C3    1.289439 A    
C14   C16   1.417219 A    
C5    N3    1.438128 S    
Zn1   N2    2.028576 S    
C10   N6    1.436122 S    
O3    Zn2   2.006715 S    
N4    O12   1.300937 A    
N2    N10   1.383183 S    
C6    C16   1.395963 A    
C1    C21   1.408379 S    
C18   H2    1.081369 S    
N6    O16   1.300435 A    
N6    O15   1.300826 A    
C7    C9    1.397127 A    
C2    C22   1.408378 S    
C8    C10   1.397125 A    
N5    O14   1.300435 A    
C11   C13   1.415539 A    
C21   N7    1.436967 S    
O2    Zn2   1.989847 S    
N8    O20   1.300579 A    
C5    C15   1.395964 A    
N9    O22   1.299327 A    
O1    Zn1   1.989845 S    
N4    O11   1.300709 A    
C20   H4    1.080436 S    
C17   H1    1.081369 S    
N7    O17   1.300232 A    
C19   H3    1.080439 S    
O1    C1    1.278426 A    
C13   C15   1.417219 A    
C22   N8    1.436968 S    
C16   C19   1.401595 A    
C6    C8    1.398931 A    
O4    C2    1.295066 A    
N3    O9    1.300708 A    
C5    C7    1.398936 A    
N8    O19   1.300231 A    
C15   C20   1.401597 A    
O6    Zn2   1.992668 S    
C9    C11   1.393093 A    
N9    O21   1.300937 A    
O8    C4    1.289442 A    
N1    N9    1.383163 S    
O2    C2    1.278427 A    
O4    Zn1   2.006717 S    
C10   C12   1.393092 A    
N10   O23   1.300929 A    
N7    O18   1.300577 A    
O8    Zn1   2.022034 S    
