data_mof_unit_24838.cif
_audit_creation_date              2012-12-10T20:31:53-0500
_audit_creation_method            fapswitch 2.2
_symmetry_space_group_name_H-M    P1
_symmetry_Int_Tables_number       1
_space_group_crystal_system       triclinic
_cell_length_a                    9.876318
_cell_length_b                    10.676314
_cell_length_c                    15.527676
_cell_angle_alpha                 90.039336
_cell_angle_beta                  67.721799
_cell_angle_gamma                 90.067535
_cell_volume                      1515.06220372

loop_
_atom_site_label
_atom_site_type_symbol
_atom_type_description
_atom_site_fract_x
_atom_site_fract_y
_atom_site_fract_z
_atom_type_partial_charge
C1    C     C_R   0.503609 0.740065 0.494592 0.882519
C2    C     C_R   0.404909 0.452451 0.915517 0.096933
C3    C     C_R   0.259677 0.489298 0.970541 0.178099
C4    C     C_R   0.506201 0.426479 0.957994 0.067571
C5    C     C_R   0.466235 0.455603 0.053308 0.071606
C6    C     C_R   0.318359 0.485224 0.107326 -0.227457
C7    C     C_R   0.216569 0.500084 0.066458 -0.245828
C8    C     C_R   0.646256 0.373969 0.908534 -0.236531
C9    C     C_R   0.747344 0.358937 0.950240 -0.242317
C10   C     C_R   0.714020 0.399062 0.041252 0.177454
C11   C     C_R   0.574874 0.451672 0.092054 0.097405
C12   C     C_R   0.408534 0.497886 0.675916 0.870827
C13   C     C_R   0.817200 0.386234 0.082884 -0.223015
C14   C     C_R   0.782562 0.424715 0.174687 -0.207194
C15   C     C_R   0.549016 0.500667 0.180048 -0.261903
C16   C     C_R   0.388514 0.936227 0.482879 0.134869
C17   C     C_R   0.514961 0.871645 0.475700 -0.171096
C18   C     C_R   0.649617 0.937665 0.448326 -0.023752
C19   C     C_R   0.646140 0.067687 0.450763 -0.268377
C20   C     C_R   0.511209 0.129358 0.478739 -0.126469
C21   C     C_R   0.386755 0.063763 0.484343 0.141907
C22   C     C_3   0.234164 0.069658 0.555288 -0.473917
C23   C     C_R   0.502020 0.260101 0.496398 0.890964
C24   C     C_3   0.235440 0.927743 0.553452 -0.484194
C25   C     C_R   0.880613 0.515057 0.581008 0.220030
C26   C     C_R   0.974790 0.473984 0.421254 -0.129029
C27   C     C_R   0.118479 0.473751 0.421278 -0.122575
C28   C     C_R   0.022917 0.514429 0.581158 0.204813
C29   C     C_3   0.990255 0.624117 0.645220 -0.519255
C30   C     C_3   0.837121 0.625333 0.644404 -0.486040
C31   C     C_R   0.591495 0.498882 0.324072 0.865321
C32   C     C_R   0.351298 0.488520 0.777139 -0.057176
C33   C     C_R   0.646787 0.480510 0.223658 -0.051369
C34   C     C_R   0.160505 0.518632 0.928510 -0.216961
C35   C     C_R   0.206166 0.517987 0.832001 -0.203850
C36   C     C_R   0.447627 0.452553 0.818950 -0.271440
H1    H     H_    0.105032 0.524933 0.109765 0.150416
H2    H     H_    0.922455 0.342986 0.045502 0.147220
H3    H     H_    0.746809 0.119655 0.436467 0.172959
H4    H     H_    0.228444 0.109573 0.622775 0.200259
H5    H     H_    0.156781 0.111227 0.526707 0.209411
H6    H     H_    0.229326 0.884926 0.620122 0.199404
H7    H     H_    0.159205 0.888049 0.523153 0.212081
H8    H     H_    0.958715 0.454916 0.357371 0.139429
H9    H     H_    0.209618 0.453815 0.357246 0.148670
H10   H     H_    0.991311 0.599159 0.714279 0.193975
H11   H     H_    0.450949 0.553249 0.217271 0.151179
H12   H     H_    0.055899 0.707777 0.612320 0.215541
H13   H     H_    0.751190 0.601583 0.713052 0.201726
H14   H     H_    0.813930 0.709608 0.610223 0.222723
H15   H     H_    0.859114 0.407208 0.208072 0.148192
H16   H     H_    0.852798 0.317353 0.910590 0.150573
H17   H     H_    0.049516 0.546910 0.970025 0.151157
H18   H     H_    0.129991 0.544834 0.800520 0.148221
H19   H     H_    0.558654 0.431524 0.774352 0.152262
H20   H     H_    0.277220 0.494685 0.182010 0.139496
H21   H     H_    0.679327 0.339336 0.838319 0.146599
N1    N     N_R   0.856900 0.500860 0.500610 -0.101139
N2    N     N_R   0.142540 0.500820 0.500610 -0.102564
O1    O     O_R   0.385310 0.683210 0.499990 -0.608475
O2    O     O_R   0.614650 0.683240 0.500000 -0.605189
O3    O     O_R   0.319830 0.499970 0.632240 -0.614847
O4    O     O_R   0.549170 0.500000 0.632250 -0.617656
O5    O     O_R   0.385350 0.316760 0.500000 -0.612371
O6    O     O_R   0.614690 0.316790 0.500010 -0.621436
O7    O     O_R   0.450830 0.500000 0.367750 -0.624302
O8    O     O_R   0.680170 0.500030 0.367760 -0.621947
Zn1   Zn    Zn3+2 0.346870 0.499980 0.499990 0.943099
Zn2   Zn    Zn3+2 0.653130 0.500020 0.500010 0.947586
C37   C     C_1   0.790455 0.877239 0.423043 0.202177
N3    N     N_1   0.903269 0.829092 0.402835 -0.215003

loop_
_geom_bond_atom_site_label_1
_geom_bond_atom_site_label_2
_ccdc_geom_bond_type
C18   C37   S    
C31   O7    A    
O7    Zn1   S    
C31   C33   S    
N1    Zn2   S    
C37   N3    T    
C15   H11   S    
N2    Zn1   S    
C24   H6    S    
C9    C10   A    
C1    C17   S    
C19   C20   A    
C3    C34   A    
C20   C23   S    
O3    Zn1   S    
C29   H10   S    
C4    C8    A    
C22   H4    S    
C27   H9    S    
C14   C33   A    
C17   C18   A    
C26   C27   A    
C26   H8    S    
C16   C24   S    
C36   H19   S    
C27   N2    A    
C21   C22   S    
C12   C32   S    
C35   H18   S    
C31   O8    A    
C26   N1    A    
C23   O6    A    
C13   H2    S    
C29   C30   S    
C9    H16   S    
C19   H3    S    
O6    Zn2   S    
C2    C4    A    
O5    Zn1   S    
C11   C15   A    
C23   O5    A    
C30   H13   S    
C5    C11   A    
C6    C7    A    
C2    C3    A    
C14   H15   S    
C30   H14   S    
C5    C6    A    
C8    H21   S    
C22   C24   S    
C28   N2    A    
C22   H5    S    
C16   C17   A    
C10   C11   A    
C25   C28   A    
C29   H12   S    
C2    C36   A    
C13   C14   A    
C28   C29   S    
C32   C35   A    
C32   C36   A    
C12   O3    A    
C20   C21   A    
O1    Zn1   S    
C34   H17   S    
C34   C35   A    
C25   N1    A    
C1    O1    A    
O2    Zn2   S    
C25   C30   S    
C24   H7    S    
C18   C19   A    
C4    C5    A    
C3    C7    A    
O8    Zn2   S    
C12   O4    A    
C16   C21   A    
C15   C33   A    
O4    Zn2   S    
C6    H20   S    
C8    C9    A    
C7    H1    S    
C10   C13   A    
C1    O2    A    
