data_mof_unit_62390.cif
_audit_creation_date              2012-12-11T20:14:03-0500
_audit_creation_method            fapswitch 2.2
_symmetry_space_group_name_H-M    P1
_symmetry_Int_Tables_number       1
_space_group_crystal_system       triclinic
_cell_length_a                    21.978992
_cell_length_b                    26.657893
_cell_length_c                    8.401887
_cell_angle_alpha                 90.011217
_cell_angle_beta                  103.305939
_cell_angle_gamma                 89.855112
_cell_volume                      4790.61238486

loop_
_atom_site_label
_atom_site_type_symbol
_atom_type_description
_atom_site_fract_x
_atom_site_fract_y
_atom_site_fract_z
_atom_type_partial_charge
Ba1   Ba    Ba6+2 0.999850 0.464270 0.844920 1.672906
Ba2   Ba    Ba6+2 0.999850 0.535730 0.344920 1.680619
Ba3   Ba    Ba6+2 0.499850 0.964270 0.844920 1.672942
Ba4   Ba    Ba6+2 0.499850 0.035730 0.344920 1.680614
C1    C     C_3   0.040513 0.224246 0.600363 -0.053184
C2    C     C_2   0.845354 0.697971 0.779133 -0.139765
C3    C     C_3   0.609841 0.260902 0.265901 -0.126439
C4    C     C_3   0.216081 0.414370 0.272189 -0.138805
C5    C     C_3   0.218202 0.584849 0.773393 -0.139425
C6    C     C_3   0.716116 0.914364 0.272157 -0.138905
C7    C     C_3   0.718189 0.084842 0.773441 -0.139333
C8    C     C_2   0.343709 0.803290 0.284897 -0.102851
C9    C     C_2   0.345344 0.197970 0.779126 -0.139769
C10   C     C_2   0.806423 0.309872 0.124861 -0.003994
C11   C     C_2   0.805209 0.689441 0.624277 0.003684
C12   C     C_2   0.306380 0.809898 0.124978 -0.004300
C13   C     C_2   0.305195 0.189438 0.624275 0.003683
C14   C     C_2   0.817195 0.352033 0.033510 -0.127757
C15   C     C_2   0.814976 0.646670 0.534888 -0.124512
C16   C     C_2   0.317139 0.852062 0.033622 -0.127766
C17   C     C_3   0.004075 0.794265 0.154422 -0.007355
C18   C     C_2   0.314964 0.146669 0.534878 -0.124480
C19   C     C_1   0.860403 0.387869 0.103976 0.069133
C20   C     C_1   0.860938 0.612498 0.602151 0.068974
C21   C     C_1   0.360383 0.887881 0.104027 0.069051
C22   C     C_1   0.360931 0.112501 0.602131 0.068927
C23   C     C_R   0.157307 0.701779 0.890156 -0.142786
C24   C     C_R   0.154579 0.296810 0.391677 -0.155519
C25   C     C_R   0.657333 0.201760 0.890103 -0.142817
C26   C     C_R   0.654602 0.796821 0.391652 -0.155541
C27   C     C_R   0.109869 0.664507 0.826947 -0.026658
C28   C     C_3   0.540626 0.724260 0.600363 -0.053103
C29   C     C_R   0.108090 0.334791 0.327222 -0.011524
C30   C     C_R   0.609874 0.164503 0.826930 -0.026650
C31   C     C_R   0.608107 0.834798 0.327203 -0.011495
C32   C     C_R   0.139422 0.615060 0.082951 0.072124
C33   C     C_R   0.138486 0.384601 0.582797 0.060992
C34   C     C_R   0.639426 0.115058 0.082941 0.072103
C35   C     C_R   0.638492 0.884603 0.582792 0.060969
C36   C     C_R   0.184653 0.649947 0.143856 0.065347
C37   C     C_R   0.182729 0.348908 0.644520 0.069282
C38   C     C_R   0.684666 0.149940 0.143828 0.065343
C39   C     C_3   0.504038 0.294274 0.154456 -0.007307
C40   C     C_R   0.682737 0.848912 0.644515 0.069192
C41   C     C_R   0.195927 0.694559 0.044590 0.007008
C42   C     C_R   0.193136 0.303903 0.545961 0.008186
C43   C     C_R   0.695959 0.194539 0.044529 0.006997
C44   C     C_R   0.693153 0.803911 0.545948 0.008190
C45   C     C_3   0.974049 0.278285 0.086207 0.336164
C46   C     C_3   0.977577 0.723069 0.602958 0.394541
C47   C     C_3   0.474034 0.778303 0.086084 0.336160
C48   C     C_3   0.477586 0.223073 0.602973 0.394576
C49   C     C_2   0.752725 0.276322 0.057204 -0.105852
C50   C     C_3   0.897860 0.333638 0.341796 -0.033418
C51   C     C_2   0.750153 0.722160 0.560475 -0.092013
C52   C     C_2   0.252653 0.776365 0.057412 -0.105816
C53   C     C_2   0.250135 0.222152 0.560490 -0.092013
C54   C     C_2   0.250823 0.728000 0.102871 -0.048294
C55   C     C_2   0.248538 0.270853 0.602173 -0.043215
C56   C     C_2   0.750864 0.227972 0.102794 -0.048224
C57   C     C_2   0.748553 0.770859 0.602172 -0.043238
C58   C     C_R   0.102083 0.621462 0.932148 -0.257974
C59   C     C_R   0.101234 0.378488 0.431553 -0.256948
C60   C     C_R   0.602083 0.121462 0.932143 -0.258023
C61   C     C_3   0.899864 0.667732 0.837472 -0.072793
C62   C     C_R   0.601246 0.878492 0.431539 -0.256936
C63   C     C_3   0.940162 0.228930 0.036883 -0.012692
C64   C     C_3   0.945526 0.773755 0.563603 0.004620
C65   C     C_3   0.440137 0.728955 0.036712 -0.012667
C66   C     C_3   0.445545 0.273764 0.563664 0.004718
C67   C     C_3   0.231697 0.502179 0.366270 0.448086
C68   C     C_3   0.232120 0.496791 0.866391 0.446431
C69   C     C_3   0.731697 0.002173 0.366251 0.448095
C70   C     C_3   0.732132 0.996779 0.866386 0.446415
C71   C     C_3   0.302528 0.509908 0.363313 0.122281
C72   C     C_3   0.397870 0.833635 0.341808 -0.033283
C73   C     C_3   0.302768 0.487807 0.863213 0.123815
C74   C     C_3   0.802528 0.009902 0.363288 0.122321
C75   C     C_3   0.802776 0.987796 0.863159 0.123770
C76   C     C_3   0.810543 0.531589 0.924467 0.275270
C77   C     C_3   0.810489 0.467581 0.442795 0.300475
C78   C     C_3   0.310570 0.031606 0.924572 0.275481
C79   C     C_3   0.310437 0.967576 0.443360 0.300275
C80   C     C_3   0.754411 0.561029 0.958298 -0.046340
C81   C     C_3   0.756948 0.442033 0.500002 -0.047454
C82   C     C_3   0.254430 0.061045 0.958373 -0.046258
C83   C     C_3   0.399859 0.167735 0.837458 -0.072808
C84   C     C_3   0.256852 0.942201 0.500849 -0.047363
C85   C     C_3   0.020711 0.278979 0.613704 0.370098
C86   C     C_3   0.976343 0.746082 0.068151 0.374276
C87   C     C_3   0.520782 0.778988 0.613605 0.370154
C88   C     C_3   0.476297 0.246098 0.068150 0.374181
C89   C     C_2   0.894633 0.381642 0.263019 -0.228857
C90   C     C_2   0.899610 0.620648 0.754940 -0.247759
C91   C     C_2   0.394622 0.881648 0.263062 -0.228933
C92   C     C_2   0.399610 0.120654 0.754912 -0.247710
C93   C     C_3   0.379140 0.578907 0.408352 -0.094228
C94   C     C_2   0.843698 0.303295 0.284856 -0.102292
C95   C     C_3   0.378400 0.417761 0.909161 -0.102312
C96   C     C_3   0.879165 0.078882 0.408301 -0.094188
C97   C     C_3   0.878359 0.917718 0.908946 -0.102328
C98   C     C_3   0.697462 0.590484 0.687194 -0.219229
C99   C     C_3   0.710614 0.375888 0.309239 -0.251442
C100  C     C_3   0.197472 0.090443 0.687206 -0.219230
C101  C     C_3   0.211085 0.875340 0.312355 -0.251390
C102  C     C_3   0.125281 0.210296 0.845641 -0.158253
C103  C     C_3   0.109875 0.760947 0.266290 -0.126476
C104  C     C_3   0.625361 0.710349 0.845741 -0.158237
H1    H     H_    0.055791 0.299151 0.707898 0.082064
H2    H     H_    0.808870 0.457134 0.314109 -0.002347
H3    H     H_    0.863042 0.903396 0.782136 0.163006
H4    H     H_    0.771256 0.627762 0.846001 0.209234
H5    H     H_    0.682179 0.625592 0.618647 0.118688
H6    H     H_    0.655038 0.569827 0.700088 0.145674
H7    H     H_    0.723943 0.567507 0.616015 0.114280
H8    H     H_    0.748315 0.366685 0.557068 0.225890
H9    H     H_    0.713031 0.334965 0.289409 0.120349
H10   H     H_    0.722942 0.395826 0.204979 0.121646
H11   H     H_    0.661929 0.385490 0.315019 0.121974
H12   H     H_    0.271238 0.127766 0.845963 0.209242
H13   H     H_    0.313308 0.035283 0.795016 -0.012451
H14   H     H_    0.182170 0.125537 0.618595 0.118720
H15   H     H_    0.155060 0.069773 0.700123 0.145667
H16   H     H_    0.223972 0.067465 0.616077 0.114194
H17   H     H_    0.248448 0.867062 0.560657 0.225851
H18   H     H_    0.213896 0.834373 0.293915 0.120540
H19   H     H_    0.223377 0.895040 0.207629 0.121322
H20   H     H_    0.162281 0.884775 0.317423 0.121733
H21   H     H_    0.029323 0.201362 0.831078 0.270730
H22   H     H_    0.131025 0.249960 0.885473 0.149645
H23   H     H_    0.158038 0.201761 0.766526 0.111545
H24   H     H_    0.308822 0.956925 0.314850 -0.002819
H25   H     H_    0.137452 0.185874 0.955457 0.142670
H26   H     H_    0.064698 0.815721 0.370710 0.231076
H27   H     H_    0.100282 0.721123 0.232044 0.144126
H28   H     H_    0.147742 0.761672 0.379532 0.129150
H29   H     H_    0.126046 0.780870 0.167544 0.065133
H30   H     H_    0.529398 0.701398 0.831069 0.270758
H31   H     H_    0.631093 0.750026 0.885448 0.149695
H32   H     H_    0.658140 0.701787 0.766710 0.111579
H33   H     H_    0.637511 0.685960 0.955639 0.142610
H34   H     H_    0.564804 0.315729 0.370517 0.231052
H35   H     H_    0.854239 0.546617 0.003791 0.058925
H36   H     H_    0.600226 0.221044 0.232165 0.144316
H37   H     H_    0.647836 0.261745 0.378868 0.129018
H38   H     H_    0.625849 0.280703 0.166667 0.065111
H39   H     H_    0.244538 0.437712 0.516177 0.195510
H40   H     H_    0.223854 0.375920 0.322430 0.109963
H41   H     H_    0.251974 0.421469 0.201869 0.139234
H42   H     H_    0.169266 0.416994 0.188416 0.155963
H43   H     H_    0.246167 0.561056 0.017215 0.195774
H44   H     H_    0.226909 0.623142 0.824091 0.110722
H45   H     H_    0.171296 0.583095 0.689761 0.151300
H46   H     H_    0.855583 0.454984 0.521626 0.066330
H47   H     H_    0.253828 0.577078 0.702681 0.139560
H48   H     H_    0.744524 0.937705 0.516150 0.195472
H49   H     H_    0.723886 0.875914 0.322400 0.110002
H50   H     H_    0.752027 0.921470 0.201894 0.139276
H51   H     H_    0.669312 0.916983 0.188333 0.156033
H52   H     H_    0.746206 0.061038 0.017243 0.195797
H53   H     H_    0.726921 0.123131 0.824150 0.110709
H54   H     H_    0.671267 0.083095 0.689884 0.151211
H55   H     H_    0.753784 0.077068 0.702639 0.139505
H56   H     H_    0.354258 0.046619 0.003967 0.059104
H57   H     H_    0.355515 0.955037 0.522379 0.066948
H58   H     H_    0.713572 0.535849 0.952107 0.126586
H59   H     H_    0.711768 0.460974 0.444702 0.105450
H60   H     H_    0.213602 0.035859 0.952251 0.126616
H61   H     H_    0.013262 0.724820 0.025895 -0.040118
H62   H     H_    0.211645 0.960918 0.444373 0.105252
H63   H     H_    0.766808 0.575764 0.085297 0.116821
H64   H     H_    0.764581 0.447061 0.634434 0.101011
H65   H     H_    0.266828 0.075803 0.085342 0.116897
H66   H     H_    0.264261 0.947703 0.635023 0.100911
H67   H     H_    0.020450 0.296571 0.493781 -0.127035
H68   H     H_    0.940332 0.758232 0.959399 -0.042203
H69   H     H_    0.520479 0.796559 0.493629 -0.127087
H70   H     H_    0.440264 0.258256 0.959454 -0.042195
H71   H     H_    0.078075 0.222303 0.531539 0.075911
H72   H     H_    0.555858 0.799189 0.707728 0.081949
H73   H     H_    0.021486 0.818482 0.066860 0.071943
H74   H     H_    0.578209 0.722325 0.531607 0.075807
H75   H     H_    0.521381 0.318520 0.066850 0.071847
H76   H     H_    0.791486 0.212193 0.185799 0.121702
H77   H     H_    0.789909 0.787499 0.679116 0.116758
H78   H     H_    0.291468 0.712207 0.185750 0.121730
H79   H     H_    0.289897 0.287494 0.679091 0.116767
H80   H     H_    0.788536 0.358090 0.911180 0.082953
H81   H     H_    0.784074 0.639120 0.416494 0.084867
H82   H     H_    0.288442 0.858137 0.911348 0.082689
H83   H     H_    0.513207 0.224850 0.025807 -0.040093
H84   H     H_    0.284059 0.139117 0.416490 0.084897
H85   H     H_    0.165361 0.731502 0.809902 0.097936
H86   H     H_    0.162384 0.266722 0.312194 0.095392
H87   H     H_    0.665394 0.231471 0.809817 0.097979
H88   H     H_    0.662413 0.766736 0.312165 0.095368
H89   H     H_    0.213325 0.792763 0.970762 0.086930
H90   H     H_    0.209961 0.205231 0.478750 0.077300
H91   H     H_    0.713424 0.292710 0.970436 0.086840
H92   H     H_    0.709983 0.705242 0.478710 0.077281
H93   H     H_    0.833607 0.273539 0.363012 0.094306
H94   H     H_    0.305070 0.515004 0.234134 0.112379
H95   H     H_    0.836063 0.728575 0.855348 0.093085
H96   H     H_    0.333644 0.773520 0.363038 0.094391
H97   H     H_    0.336048 0.228570 0.855347 0.093090
H98   H     H_    0.916564 0.413944 0.331337 0.048411
H99   H     H_    0.937737 0.594769 0.801344 0.066948
H100  H     H_    0.416441 0.913970 0.331488 0.048425
H101  H     H_    0.437742 0.094778 0.801304 0.066929
H102  H     H_    0.067334 0.593537 0.882032 0.073878
H103  H     H_    0.067148 0.406947 0.380661 0.080087
H104  H     H_    0.567327 0.093540 0.882040 0.073882
H105  H     H_    0.305154 0.482469 0.734016 0.113250
H106  H     H_    0.567159 0.906950 0.380648 0.080099
H107  H     H_    0.000052 0.202909 0.528528 0.135003
H108  H     H_    0.966188 0.815361 0.192912 0.097435
H109  H     H_    0.500188 0.702904 0.528503 0.135019
H110  H     H_    0.466175 0.315344 0.193144 0.097511
H111  H     H_    0.942936 0.309296 0.027737 0.026138
H112  H     H_    0.944042 0.693469 0.546209 0.013478
H113  H     H_    0.442939 0.809320 0.027567 0.026255
H114  H     H_    0.444041 0.193479 0.546224 0.013450
H115  H     H_    0.983288 0.281458 0.221162 -0.050177
H116  H     H_    0.805072 0.014965 0.234101 0.112286
H117  H     H_    0.990146 0.718620 0.737836 -0.105665
H118  H     H_    0.483241 0.781478 0.221033 -0.050128
H119  H     H_    0.490161 0.218618 0.737849 -0.105730
H120  H     H_    0.894521 0.229448 0.072164 0.046015
H121  H     H_    0.901664 0.774483 0.607708 0.032722
H122  H     H_    0.394480 0.729485 0.071903 0.046067
H123  H     H_    0.401702 0.274503 0.607859 0.032683
H124  H     H_    0.931235 0.223710 0.902450 0.128828
H125  H     H_    0.933531 0.780079 0.429555 0.127974
H126  H     H_    0.431244 0.723732 0.902285 0.128854
H127  H     H_    0.805143 0.982443 0.733956 0.113317
H128  H     H_    0.433516 0.280085 0.429615 0.127881
H129  H     H_    0.220239 0.526354 0.462334 0.086646
H130  H     H_    0.220238 0.472871 0.962335 0.086678
H131  H     H_    0.720240 0.026345 0.462324 0.086589
H132  H     H_    0.720258 0.972851 0.962321 0.086701
H133  H     H_    0.334653 0.549366 0.580523 0.238627
H134  H     H_    0.394485 0.611459 0.490199 0.140232
H135  H     H_    0.363826 0.593317 0.281544 0.162300
H136  H     H_    0.419411 0.552967 0.417537 0.167238
H137  H     H_    0.333843 0.448002 0.080451 0.237471
H138  H     H_    0.813251 0.535246 0.794883 -0.011852
H139  H     H_    0.393028 0.385009 0.990798 0.123110
H140  H     H_    0.419120 0.443091 0.919336 0.168148
H141  H     H_    0.363218 0.403540 0.782208 0.163055
H142  H     H_    0.834573 0.049437 0.580368 0.238632
H143  H     H_    0.894431 0.111503 0.489849 0.140194
H144  H     H_    0.863954 0.093183 0.281389 0.162283
H145  H     H_    0.919453 0.052956 0.417929 0.167185
H146  H     H_    0.833972 0.948048 0.080456 0.237532
H147  H     H_    0.893083 0.885029 0.990817 0.123122
H148  H     H_    0.919055 0.943046 0.918583 0.168290
I1    I     I_    0.367075 0.448429 0.449564 -0.515989
I2    I     I_    0.238348 0.351043 0.887511 -0.530636
I3    I     I_    0.739590 0.147411 0.387633 -0.524902
I4    I     I_    0.738349 0.851046 0.887518 -0.530775
I5    I     I_    0.368441 0.548254 0.949522 -0.498364
I6    I     I_    0.867086 0.948443 0.449710 -0.515991
I7    I     I_    0.868450 0.048255 0.949288 -0.498263
I8    I     I_    0.993324 0.166939 0.158165 -0.469764
I9    I     I_    0.003990 0.833261 0.681487 -0.494247
I10   I     I_    0.493259 0.666957 0.158070 -0.469716
I11   I     I_    0.504052 0.333261 0.681446 -0.494149
I12   I     I_    0.239594 0.647405 0.387638 -0.525008
N1    N     N_2   0.327614 0.553988 0.456188 -0.432872
N2    N     N_2   0.054299 0.784595 0.296619 -0.370490
N3    N     N_2   0.561507 0.700757 0.759236 -0.410328
N4    N     N_2   0.554333 0.284596 0.296486 -0.370500
N5    N     N_2   0.220235 0.450351 0.403653 -0.456967
N6    N     N_2   0.221704 0.548812 0.904453 -0.456489
N7    N     N_2   0.720235 0.950344 0.403612 -0.456967
N8    N     N_2   0.721723 0.048798 0.904498 -0.456463
N9    N     N_2   0.327054 0.443439 0.956159 -0.431018
N10   N     N_2   0.827598 0.054006 0.456035 -0.432861
N11   N     N_2   0.827090 0.943444 0.956159 -0.431073
N12   N     N_2   0.736135 0.602552 0.846554 -0.446893
N13   N     N_2   0.753714 0.389006 0.460976 -0.430714
N14   N     N_2   0.236132 0.102546 0.846552 -0.446918
N15   N     N_2   0.253909 0.889044 0.463871 -0.429949
N16   N     N_2   0.061414 0.200722 0.759196 -0.410307
O1    O     O_2   0.875320 0.428620 0.822840 -0.474542
O2    O     O_3   0.031013 0.720730 0.538818 -0.545189
O3    O     O_3   0.530179 0.779166 0.033526 -0.584723
O4    O     O_3   0.531015 0.220729 0.538802 -0.545145
O5    O     O_3   0.072510 0.524860 0.092920 -0.464147
O6    O     O_3   0.072510 0.475140 0.592920 -0.463466
O7    O     O_3   0.572510 0.024860 0.092920 -0.464147
O8    O     O_3   0.572510 0.975140 0.592920 -0.463457
O9    O     O_3   0.927380 0.474960 0.096800 -0.494006
O10   O     O_3   0.927380 0.525040 0.596800 -0.503234
O11   O     O_3   0.427380 0.974960 0.096800 -0.493971
O12   O     O_2   0.875320 0.571380 0.322840 -0.457133
O13   O     O_3   0.427380 0.025040 0.596800 -0.503374
O14   O     O_3   0.978260 0.384470 0.628120 -0.483644
O15   O     O_3   0.978260 0.615530 0.128120 -0.467990
O16   O     O_3   0.478260 0.884470 0.628120 -0.483676
O17   O     O_3   0.478260 0.115530 0.128120 -0.468014
O18   O     O_2   0.870802 0.345321 0.659508 -0.473908
O19   O     O_2   0.863546 0.646016 0.132567 -0.486749
O20   O     O_2   0.370869 0.845260 0.659640 -0.473494
O21   O     O_2   0.363540 0.146008 0.132543 -0.486783
O22   O     O_3   0.800615 0.481157 0.956322 -0.659851
O23   O     O_2   0.375320 0.928620 0.822840 -0.474581
O24   O     O_3   0.800224 0.519342 0.448969 -0.668144
O25   O     O_3   0.300625 0.981170 0.956328 -0.659832
O26   O     O_3   0.300206 0.019360 0.448713 -0.668061
O27   O     O_3   0.961682 0.281303 0.653406 -0.595376
O28   O     O_3   0.948796 0.716543 0.171653 -0.566865
O29   O     O_3   0.461766 0.781288 0.653375 -0.595402
O30   O     O_3   0.448782 0.216539 0.171667 -0.566865
O31   O     O_2   0.124210 0.428020 0.866900 -0.459050
O32   O     O_2   0.124210 0.571980 0.366900 -0.458618
O33   O     O_2   0.624210 0.928020 0.866900 -0.459040
O34   O     O_2   0.375320 0.071380 0.322840 -0.456980
O35   O     O_2   0.624210 0.071980 0.366900 -0.458611
O36   O     O_3   0.021040 0.384370 0.061630 -0.478726
O37   O     O_3   0.021040 0.615630 0.561630 -0.479986
O38   O     O_3   0.521040 0.884370 0.061630 -0.478739
O39   O     O_3   0.521040 0.115630 0.561630 -0.479995
O40   O     O_2   0.119043 0.340392 0.003929 -0.458442
O41   O     O_2   0.119010 0.659568 0.501325 -0.445919
O42   O     O_2   0.619040 0.840400 0.003897 -0.458448
O43   O     O_2   0.619009 0.159564 0.501310 -0.445904
O44   O     O_3   0.194050 0.486230 0.709982 -0.655135
O45   O     O_3   0.193971 0.513405 0.209902 -0.655866
O46   O     O_3   0.694050 0.986230 0.709978 -0.655152
O47   O     O_3   0.693970 0.013404 0.209889 -0.655816
O48   O     O_3   0.030172 0.279164 0.033537 -0.584732
P1    P     P_3+3 0.869190 0.445350 0.992760 0.968471
P2    P     P_3+3 0.071471 0.665567 0.608925 1.000347
P3    P     P_3+3 0.570644 0.833850 0.108523 0.967571
P4    P     P_3+3 0.571471 0.165566 0.608913 1.000403
P5    P     P_3+3 0.920843 0.661331 0.066048 0.966037
P6    P     P_3+3 0.924222 0.336679 0.570434 0.978203
P7    P     P_3+3 0.420839 0.161329 0.066038 0.965983
P8    P     P_3+3 0.424262 0.836654 0.570453 0.978342
P9    P     P_3+3 0.869190 0.554650 0.492760 0.963426
P10   P     P_3+3 0.369190 0.945350 0.992760 0.968565
P11   P     P_3+3 0.369190 0.054650 0.492760 0.963395
P12   P     P_3+3 0.130420 0.444720 0.696970 1.037811
P13   P     P_3+3 0.130420 0.555280 0.196970 1.040711
P14   P     P_3+3 0.630420 0.944720 0.696970 1.037800
P15   P     P_3+3 0.630420 0.055280 0.196970 1.040753
P16   P     P_3+3 0.070639 0.333847 0.108535 0.967557

loop_
_geom_bond_atom_site_label_1
_geom_bond_atom_site_label_2
_ccdc_geom_bond_type
C56   H76   S    
Ba2   P13   S    
C48   H114  S    
C54   H78   S    
C6    N7    S    
C80   H63   S    
C87   O29   S    
C100  H15   S    
C73   I5    S    
Ba1   O10   S    
Ba2   O5    S    
C69   H131  S    
O26   P11   S    
C53   C55   D    
Ba3   O38   S    
C86   H68   S    
C1    H71   S    
C70   O46   S    
C102  H25   S    
C8    C12   A    
C3    H38   S    
C79   C84   S    
C81   N13   S    
C27   C58   S    
H8    N13   S    
C99   H9    S    
C32   C58   D    
C85   O27   S    
O23   P10   D    
O43   P4    D    
O44   P12   S    
C71   H94   S    
C86   O28   S    
C17   N2    S    
C34   C60   D    
C17   C86   S    
O10   P9    S    
C23   C27   S    
Ba1   O14   S    
C74   N10   S    
C31   C62   S    
C7    H54   S    
O20   P8    D    
C49   H91   S    
C4    H42   S    
C103  H28   S    
C98   H6    S    
H146  N11   S    
C33   P12   S    
C12   C16   A    
C17   H108  S    
Ba1   O5    S    
O6    P12   S    
O27   P6    S    
C64   I9    S    
C24   C29   S    
C21   C91   A    
C70   C75   S    
C97   H3    S    
Ba4   O34   S    
C91   H100  S    
C102  H22   S    
C30   P4    S    
C104  N3    S    
O39   P4    S    
O16   P8    S    
O3    P3    S    
Ba4   O7    S    
C2    H95   S    
C78   H56   S    
C47   H113  S    
C39   H75   S    
C67   N5    S    
C4    H41   S    
C102  N16   S    
Ba3   O33   S    
C70   H132  S    
H43   N6    S    
C64   H125  S    
O2    P2    S    
C77   H2    S    
C60   H104  S    
C28   N3    S    
C47   C65   S    
C80   N12   S    
C83   P7    S    
C34   P15   S    
C1    C85   S    
C40   C44   S    
C74   H116  S    
C61   P5    S    
O14   P6    S    
Ba2   O15   S    
C95   H141  S    
H4    N12   S    
O28   P5    S    
O32   P13   D    
O38   P3    S    
C24   C42   A    
C38   I3    S    
C25   C43   A    
C26   C44   A    
O24   P9    S    
C97   H147  S    
C20   C90   A    
C100  H14   S    
C1    H107  S    
C50   P6    S    
C84   H66   S    
C27   P2    S    
C14   H80   S    
O31   P12   D    
Ba3   O13   S    
C101  N15   S    
C93   H134  S    
C33   C59   D    
C79   O26   S    
C24   H86   S    
C55   H79   S    
O25   P10   S    
C6    H50   S    
C88   H83   S    
C5    H45   S    
C103  N2    S    
C74   I6    S    
Ba2   O9    S    
O41   P2    D    
Ba3   O8    S    
C89   H98   S    
C30   C60   S    
C21   P10   S    
C49   C56   D    
C10   C94   A    
C22   C92   A    
O13   P11   S    
C101  H19   S    
C81   H59   S    
C71   I1    S    
C82   H60   S    
C25   H87   S    
C19   C89   A    
C11   C51   S    
C32   P13   S    
C12   C52   S    
C40   I4    S    
Ba1   P1    S    
C6    H49   S    
C29   C59   S    
Ba2   O37   S    
C87   H72   S    
C9    C83   A    
C47   H118  S    
C7    H55   S    
C58   H102  S    
H39   N5    S    
O48   P16   S    
C15   H81   S    
C76   H138  S    
C39   H110  S    
C95   H139  S    
Ba3   Ba4   S    
O37   P2    S    
C59   H103  S    
C76   O22   S    
C48   O4    S    
C104  H31   S    
C35   C40   D    
C100  H16   S    
H26   N2    S    
C101  H18   S    
C20   P9    S    
C35   P14   S    
C39   C88   S    
C9    C13   A    
O46   P14   S    
C75   H127  S    
C93   H136  S    
C95   N9    S    
C78   O25   S    
C93   N1    S    
C51   C57   D    
C86   H61   S    
C52   C54   D    
C8    H96   S    
C33   C37   D    
C7    N8    S    
C10   C49   S    
C5    H47   S    
C29   P16   S    
O35   P15   D    
H137  N9    S    
C77   C81   S    
C3    H37   S    
O7    P15   S    
C1    N16   S    
C75   I7    S    
C94   H93   S    
Ba4   O11   S    
C76   C80   S    
C96   H143  S    
Ba1   O1    S    
C45   O48   S    
C73   H105  S    
O4    P4    S    
O33   P14   D    
C11   C15   A    
C79   H57   S    
C68   N6    S    
H142  N10   S    
C47   O3    S    
C82   N14   S    
C16   H82   S    
C53   H90   S    
C16   C21   A    
C7    H53   S    
C50   C89   A    
C103  H27   S    
C98   H7    S    
C100  N14   S    
O18   P6    D    
C2    C61   A    
C26   H88   S    
H17   N15   S    
Ba4   O39   S    
H52   N8    S    
C4    N5    S    
C23   C41   A    
H12   N14   S    
C45   H115  S    
C4    H40   S    
C104  H33   S    
H30   N3    S    
C102  H23   S    
C41   C54   S    
C84   H62   S    
Ba2   O12   S    
C65   I10   S    
C78   C82   S    
C25   C30   S    
C62   H106  S    
H21   N16   S    
Ba4   O8    S    
C51   H92   S    
Ba4   P11   S    
C66   H128  S    
C39   N4    S    
Ba3   P14   S    
C36   I12   S    
C45   H111  S    
C63   H124  S    
C8    C72   A    
C35   C62   D    
C68   H130  S    
C99   H10   S    
C85   H67   S    
C96   H145  S    
O22   P1    S    
C52   H89   S    
C3    N4    S    
C96   N10   S    
O42   P3    D    
C97   N11   S    
C90   H99   S    
C98   N12   S    
C22   P11   S    
C68   O44   S    
C13   C18   A    
C82   H65   S    
C15   C20   A    
C79   H24   S    
C98   H5    S    
C69   O47   S    
Ba2   O6    S    
C46   H112  S    
O40   P16   D    
Ba1   O6    S    
Ba3   O16   S    
O1    P1    D    
C75   N11   S    
C18   C22   A    
C67   O45   S    
C46   H117  S    
C65   H122  S    
C46   C64   S    
C6    H51   S    
C13   C53   S    
C5    H44   S    
C103  H29   S    
C42   C55   S    
C10   C14   A    
Ba3   O7    S    
C63   I8    S    
C66   I11   S    
C19   P1    S    
C17   H73   S    
C26   C31   S    
C67   H129  S    
C28   H74   S    
C34   C38   D    
C72   C91   A    
C28   C87   S    
Ba1   O36   S    
C85   H1    S    
Ba1   Ba2   S    
C73   N9    S    
H48   N7    S    
C48   H119  S    
C43   C56   S    
C66   H123  S    
H133  N1    S    
C37   C42   S    
C23   H85   S    
C78   H13   S    
C28   H109  S    
O47   P15   S    
Ba4   O17   S    
O19   P5    D    
C2    C11   A    
C46   O2    S    
O17   P7    S    
C31   P3    S    
C3    H36   S    
C57   H77   S    
C88   O30   S    
C81   H64   S    
C14   C19   A    
C5    N6    S    
C32   C36   D    
C97   H148  S    
C48   C66   S    
C104  H32   S    
C71   N1    S    
O9    P1    S    
C77   H46   S    
O12   P9    D    
C65   H126  S    
C68   C73   S    
O5    P13   S    
C93   H135  S    
C69   C74   S    
C76   H35   S    
C83   C92   A    
C72   P8    S    
O29   P8    S    
Ba4   O35   S    
C88   H70   S    
C61   C90   A    
Ba1   O31   S    
O15   P5    S    
Ba2   O32   S    
O36   P16   S    
C18   H84   S    
C84   N15   S    
C64   H121  S    
Ba2   P9    S    
O8    P14   S    
C92   H101  S    
C45   C63   S    
C101  H20   S    
C99   H11   S    
C96   H144  S    
O34   P11   D    
Ba4   P15   S    
O21   P7    D    
Ba1   P12   S    
O45   P13   S    
O30   P7    S    
Ba3   P10   S    
C67   C71   S    
C44   C57   S    
C63   H120  S    
C69   N7    S    
C87   H69   S    
C70   N8    S    
C9    H97   S    
C38   C43   S    
C37   I2    S    
H34   N4    S    
C80   H58   S    
C36   C41   S    
Ba3   O23   S    
C50   C94   A    
O11   P10   S    
C95   H140  S    
C99   N13   S    
C77   O24   S    
