data_mof_unit_24767.cif
_audit_creation_date              2012-10-26T19:23:49-0400
_audit_creation_method            fapswitch 2.2
_symmetry_space_group_name_H-M    P1
_symmetry_Int_Tables_number       1
_space_group_crystal_system       triclinic
_cell_length_a                    27.806086
_cell_length_b                    13.06949
_cell_length_c                    11.671988
_cell_angle_alpha                 98.570163
_cell_angle_beta                  93.727592
_cell_angle_gamma                 90.614514
_cell_volume                      4184.60113008

loop_
_atom_site_label
_atom_site_type_symbol
_atom_type_description
_atom_site_fract_x
_atom_site_fract_y
_atom_site_fract_z
_atom_type_partial_charge
C1    C     C_R   0.502489 0.299801 0.480432 0.581450
C2    C     C_R   0.873514 0.415613 0.545605 0.010697
C3    C     C_R   0.354566 0.503087 0.502085 -0.040300
C4    C     C_R   0.645410 0.498180 0.498823 -0.024945
C5    C     C_R   0.976005 0.418836 0.541481 -0.021705
C6    C     C_R   0.024779 0.595483 0.487552 -0.023671
C7    C     C_R   0.973530 0.590057 0.479024 0.035380
C8    C     C_R   0.026755 0.417855 0.532400 0.037287
C9    C     C_R   0.949343 0.502869 0.510046 0.038137
C10   C     C_R   0.051168 0.507949 0.509436 0.037472
C11   C     C_R   0.951324 0.339352 0.584259 -0.104581
C12   C     C_R   0.503063 0.700520 0.519983 0.569421
C13   C     C_R   0.050410 0.687060 0.478067 -0.106202
C14   C     C_R   0.901246 0.336814 0.588753 0.252657
C15   C     C_R   0.100705 0.692264 0.481235 0.256348
C16   C     C_R   0.407450 0.500520 0.500481 0.555713
C17   C     C_R   0.592535 0.499632 0.499611 0.578881
C18   C     C_R   0.053975 0.328957 0.544130 -0.118441
C19   C     C_R   0.945509 0.668691 0.439028 -0.118400
C20   C     C_R   0.507425 0.813442 0.530324 -0.018725
C21   C     C_R   0.507643 0.187547 0.472107 0.000738
C22   C     C_R   0.504908 0.021546 0.348484 -0.079111
C23   C     C_R   0.102298 0.510179 0.508182 -0.059901
C24   C     C_R   0.505784 0.979195 0.653850 -0.073964
C25   C     C_R   0.500744 0.127862 0.361851 -0.166391
C26   C     C_R   0.501290 0.872393 0.638886 -0.157786
C27   C     C_R   0.518174 0.138064 0.571161 0.250088
C28   C     C_R   0.517015 0.863997 0.434778 0.201786
C29   C     C_R   0.512027 0.030064 0.558196 0.011071
C30   C     C_R   0.511467 0.971470 0.446147 0.011598
C31   C     C_R   0.443607 0.432007 0.028968 0.186246
C32   C     C_R   0.558747 0.557205 0.968622 0.211378
C33   C     C_R   0.450737 0.435844 0.149920 0.055261
C34   C     C_R   0.898154 0.499843 0.509293 -0.058079
C35   C     C_R   0.550249 0.559625 0.849201 0.067661
C36   C     C_R   0.526742 0.519177 0.152464 0.120478
C37   C     C_R   0.474026 0.477198 0.846574 0.109048
C38   C     C_R   0.522160 0.517729 0.030451 -0.027084
C39   C     C_R   0.479287 0.475626 0.968081 -0.018446
C40   C     C_R   0.178458 0.422249 0.523498 0.445416
C41   C     C_R   0.821340 0.579084 0.470407 0.447679
C42   C     C_R   0.178252 0.596261 0.484610 0.462843
C43   C     C_R   0.822318 0.415121 0.536851 0.457672
C44   C     C_R   0.282658 0.531507 0.610505 0.302408
C45   C     C_R   0.128232 0.420587 0.524483 0.038270
C46   C     C_R   0.717901 0.468198 0.392923 0.257119
C47   C     C_R   0.332836 0.527370 0.607864 -0.090054
C48   C     C_R   0.667625 0.471006 0.394207 -0.105499
C49   C     C_R   0.325449 0.482359 0.398190 -0.131638
C50   C     C_R   0.674052 0.522996 0.602923 -0.122472
C51   C     C_R   0.275449 0.484932 0.400178 -0.081545
C52   C     C_R   0.724056 0.521943 0.602275 -0.074610
C53   C     C_R   0.253812 0.509012 0.505589 0.209770
C54   C     C_R   0.746274 0.495243 0.498045 0.213544
C55   C     C_R   0.871634 0.581816 0.472108 0.038297
C56   C     C_R   0.103674 0.330662 0.540800 -0.078141
C57   C     C_R   0.895643 0.664720 0.436291 -0.075642
C58   C     C_R   0.127464 0.601225 0.490646 0.014260
Cu1   Cu    Cu3+1 0.503580 0.507730 0.615930 1.032237
Cu2   Cu    Cu3+1 0.496420 0.492270 0.384070 1.041343
H1    H     H_    0.341252 0.463393 0.315457 0.172569
H2    H     H_    0.423652 0.403412 0.196994 0.152953
H3    H     H_    0.253319 0.467864 0.319577 0.165923
H4    H     H_    0.745772 0.542224 0.683106 0.165119
H5    H     H_    0.122829 0.260416 0.550755 0.184319
H6    H     H_    0.875890 0.727198 0.405010 0.190079
H7    H     H_    0.645772 0.450830 0.313660 0.192681
H8    H     H_    0.354999 0.543752 0.688436 0.198963
H9    H     H_    0.970949 0.279690 0.619863 0.180229
H10   H     H_    0.031677 0.757933 0.473183 0.179525
H11   H     H_    0.037757 0.255385 0.552497 0.134021
H12   H     H_    0.657859 0.544074 0.684807 0.180797
H13   H     H_    0.961016 0.733199 0.405546 0.134971
H14   H     H_    0.371150 0.262657 0.070816 0.348247
H15   H     H_    0.686370 0.630207 0.973965 0.402370
H16   H     H_    0.699461 0.294017 0.202367 0.352692
H17   H     H_    0.282786 0.628379 0.920424 0.392929
H18   H     H_    0.903932 0.115164 0.749348 0.388438
H19   H     H_    0.103020 0.974982 0.493186 0.380266
H20   H     H_    0.606165 0.748233 0.415375 0.347827
H21   H     H_    0.593564 0.339968 0.752459 0.377417
H22   H     H_    0.494006 0.835931 0.713608 0.168349
H23   H     H_    0.493040 0.163400 0.284731 0.160895
H24   H     H_    0.500011 0.978508 0.261713 0.198148
H25   H     H_    0.501445 0.021641 0.739373 0.203098
H26   H     H_    0.442560 0.443331 0.795518 0.203466
H27   H     H_    0.558200 0.553353 0.202880 0.235895
H28   H     H_    0.577558 0.591267 0.802122 0.177753
N1    N     N_R   0.202217 0.509304 0.504938 -0.394821
N2    N     N_R   0.797937 0.496192 0.500937 -0.393574
N3    N     N_R   0.508960 0.519350 0.790140 -0.283944
N4    N     N_R   0.491040 0.480650 0.209860 -0.275480
O1    O     O_R   0.502540 0.354460 0.582000 -0.423686
O2    O     O_2   0.795805 0.658610 0.438223 -0.431314
O3    O     O_2   0.796517 0.334056 0.560464 -0.359460
O4    O     O_2   0.203956 0.676017 0.457458 -0.368184
O5    O     O_2   0.361784 0.450089 0.900539 -0.215522
O6    O     O_2   0.402289 0.284323 0.867226 -0.247057
O7    O     O_3   0.355385 0.326728 0.053433 -0.489852
O8    O     O_2   0.612828 0.699220 0.110691 -0.162187
O9    O     O_2   0.635931 0.518104 0.104038 -0.246745
O10   O     O_3   0.654884 0.611664 0.930752 -0.541609
O11   O     O_2   0.755737 0.526627 0.208335 -0.163073
O12   O     O_R   0.497460 0.645540 0.418000 -0.420618
O13   O     O_2   0.789462 0.372349 0.275707 -0.239177
O14   O     O_3   0.704948 0.356313 0.165525 -0.437587
O15   O     O_2   0.215830 0.635588 0.735213 -0.230982
O16   O     O_2   0.238770 0.465723 0.783154 -0.197347
O17   O     O_3   0.298762 0.620805 0.846294 -0.483667
O18   O     O_2   0.844631 0.279973 0.747844 -0.192179
O19   O     O_2   0.848257 0.160926 0.564643 -0.187447
O20   O     O_3   0.920864 0.170127 0.716640 -0.524117
O21   O     O_2   0.164738 0.840600 0.579562 -0.174139
O22   O     O_2   0.149727 0.819070 0.367376 -0.201181
O23   O     O_R   0.496500 0.341410 0.386200 -0.527355
O24   O     O_3   0.085162 0.909322 0.495076 -0.529687
O25   O     O_2   0.508672 0.750119 0.223189 -0.255203
O26   O     O_2   0.575751 0.875792 0.260486 -0.223212
O27   O     O_3   0.583343 0.709957 0.354891 -0.487275
O28   O     O_2   0.509418 0.250836 0.780822 -0.273366
O29   O     O_2   0.576599 0.131111 0.765585 -0.242485
O30   O     O_3   0.584743 0.298220 0.675802 -0.483907
O31   O     O_R   0.503500 0.658590 0.613800 -0.520765
O32   O     O_R   0.433290 0.506540 0.597890 -0.515305
O33   O     O_R   0.566710 0.493460 0.402110 -0.494278
O34   O     O_R   0.427240 0.493490 0.402090 -0.515539
O35   O     O_R   0.572760 0.506510 0.597910 -0.509067
O36   O     O_2   0.203562 0.337305 0.540473 -0.432370
S1    S     S_3+6 0.389922 0.372225 0.958318 0.031704
S2    S     S_3+6 0.616580 0.597503 0.033346 0.047655
S3    S     S_3+6 0.743968 0.431005 0.259079 0.110438
S4    S     S_3+6 0.257033 0.563373 0.745744 0.095072
S5    S     S_3+6 0.876817 0.235348 0.655135 0.088635
S6    S     S_3+6 0.127025 0.817055 0.480478 0.090131
S7    S     S_3+6 0.546150 0.800210 0.313216 0.050446
S8    S     S_3+6 0.547161 0.204449 0.703472 0.048419

loop_
_geom_bond_atom_site_label_1
_geom_bond_atom_site_label_2
_ccdc_geom_bond_type
C23   C58   A    
C1    C21   S    
C23   C45   A    
C27   C29   A    
C28   S7    S    
C57   H6    S    
C42   C58   A    
C32   S2    S    
C3    C49   A    
O13   S3    D    
C15   S6    S    
C19   C57   A    
C42   O4    S    
C27   S8    S    
Cu2   O33   S    
C24   C26   A    
C54   N2    S    
C38   C39   A    
C11   C14   A    
O8    S2    D    
O24   S6    S    
C13   H10   S    
Cu1   O35   S    
C56   H5    S    
C40   O36   S    
C18   H11   S    
C3    C47   A    
C50   H12   S    
C24   C29   A    
C41   C55   A    
C44   C53   A    
C45   C56   A    
C33   H2    S    
C49   C51   A    
C22   C25   A    
H15   O10   S    
C50   C52   A    
C31   C33   A    
C32   C38   A    
C40   N1    A    
C24   H25   S    
O20   S5    S    
C44   C47   A    
C18   C56   A    
O9    S2    D    
C2    C34   A    
C41   N2    A    
C21   C27   A    
H20   O27   S    
Cu1   Cu2   S    
C26   H22   S    
H19   O24   S    
C46   C54   A    
C40   C45   A    
C31   S1    S    
C52   C54   A    
Cu2   N4    S    
C36   H27   S    
Cu1   O31   S    
O14   S3    S    
C46   C48   A    
C43   N2    A    
C49   H1    S    
O7    S1    S    
C32   C35   A    
C37   H26   S    
C19   H13   S    
C51   H3    S    
C52   H4    S    
C33   N4    A    
C46   S3    S    
C37   N3    A    
O19   S5    D    
C20   C28   A    
O27   S7    S    
C4    C50   A    
O28   S8    D    
C22   H24   S    
C5    C9    A    
C29   C30   A    
C35   H28   S    
C43   O3    S    
C41   O2    S    
C13   C15   A    
C2    C43   A    
C12   C20   S    
O17   S4    S    
O22   S6    D    
C12   O12   A    
Cu1   N3    S    
H17   O17   S    
O30   S8    S    
H14   O7    S    
C4    C17   S    
C8    C10   A    
C7    C19   A    
O21   S6    D    
C55   C57   A    
C53   N1    S    
C9    C34   A    
C15   C58   A    
O29   S8    D    
O25   S7    D    
C47   H8    S    
C4    C48   A    
Cu1   O32   S    
C7    C9    A    
C21   C25   A    
H16   O14   S    
C22   C30   A    
C17   O35   A    
O10   S2    S    
O15   S4    D    
Cu2   O23   S    
C6    C10   A    
C5    C8    A    
C11   H9    S    
C5    C11   A    
C6    C7    A    
C14   S5    S    
C10   C23   A    
C44   S4    S    
Cu1   O1    S    
H21   O30   S    
C42   N1    A    
Cu2   O34   S    
C16   O32   A    
O5    S1    D    
C28   C30   A    
C37   C39   A    
C6    C13   A    
C17   O33   A    
C12   O31   A    
C20   C26   A    
O6    S1    D    
C36   C38   A    
C31   C39   A    
C48   H7    S    
C2    C14   A    
C8    C18   A    
O16   S4    D    
C36   N4    A    
O26   S7    D    
C34   C55   A    
C1    O1    A    
C25   H23   S    
O18   S5    D    
H18   O20   S    
C1    O23   A    
C51   C53   A    
Cu2   O12   S    
O11   S3    D    
C16   O34   A    
C3    C16   S    
C35   N3    A    
