data_mof_unit_24498.cif
_audit_creation_date              2012-12-10T18:43:08-0500
_audit_creation_method            fapswitch 2.2
_symmetry_space_group_name_H-M    P1
_symmetry_Int_Tables_number       1
_space_group_crystal_system       triclinic
_cell_length_a                    8.7108
_cell_length_b                    19.420921
_cell_length_c                    18.126239
_cell_angle_alpha                 89.489477
_cell_angle_beta                  98.270737
_cell_angle_gamma                 89.964981
_cell_volume                      3034.42878274

loop_
_atom_site_label
_atom_site_type_symbol
_atom_type_description
_atom_site_fract_x
_atom_site_fract_y
_atom_site_fract_z
_atom_type_partial_charge
C1    C     C_R   0.498968 0.367293 0.500450 0.797081
C2    C     C_R   0.499490 0.632540 0.499605 0.825836
C3    C     C_R   0.378719 0.963048 0.523016 0.109901
C4    C     C_R   0.637874 0.035669 0.484297 0.111944
C5    C     C_R   0.379110 0.035035 0.521338 -0.252150
C6    C     C_R   0.635137 0.963695 0.484003 -0.248242
C7    C     C_R   0.506371 0.071473 0.501662 0.063562
C8    C     C_R   0.507712 0.927457 0.503010 0.055737
C9    C     C_R   0.589114 0.451990 0.725321 0.002594
C10   C     C_R   0.617791 0.465911 0.289919 -0.033499
C11   C     C_R   0.595437 0.448946 0.803001 -0.348173
C12   C     C_R   0.626483 0.463491 0.213320 -0.342363
C13   C     C_R   0.512029 0.496526 0.839260 0.159409
C14   C     C_R   0.511981 0.495453 0.162243 0.158339
C15   C     C_R   0.421614 0.545838 0.795779 -0.326442
C16   C     C_R   0.390745 0.529486 0.189947 -0.325540
C17   C     C_R   0.416424 0.547347 0.717011 0.688193
C18   C     C_R   0.384742 0.531004 0.267839 0.722770
C19   C     C_R   0.615954 0.538559 0.968013 0.454377
C20   C     C_R   0.425431 0.446568 0.034716 0.450263
C21   C     C_R   0.615179 0.539968 0.046365 -0.073711
C22   C     C_R   0.420800 0.447378 0.956017 -0.077343
C23   C     C_R   0.203384 0.500081 0.480883 0.891338
C24   C     C_R   0.796628 0.500036 0.519119 0.867607
C25   C     C_R   0.519186 0.493761 0.079992 -0.095947
C26   C     C_R   0.516566 0.493663 0.922368 -0.095924
C27   C     C_2   0.037436 0.500008 0.470343 -0.383436
C28   C     C_2   0.962605 0.500210 0.529681 -0.352433
C29   C     C_R   0.444238 0.746456 0.434444 0.486447
C30   C     C_R   0.494588 0.253789 0.568994 0.495866
C31   C     C_R   0.454635 0.818286 0.435410 -0.250841
C32   C     C_R   0.498498 0.181816 0.568110 -0.262572
C33   C     C_R   0.511727 0.852237 0.501201 0.056746
C34   C     C_R   0.499326 0.146863 0.501178 0.035817
C35   C     C_R   0.567309 0.814630 0.565577 -0.194968
C36   C     C_R   0.494786 0.183682 0.434286 -0.166968
C37   C     C_R   0.563215 0.742984 0.564493 -0.270696
C38   C     C_R   0.494189 0.255349 0.434526 -0.274267
C39   C     C_R   0.502122 0.708188 0.499173 -0.134664
C40   C     C_R   0.496291 0.291311 0.501652 -0.133057
Cu1   Cu    Cu3+1 0.499960 0.500000 0.573360 0.984774
Cu2   Cu    Cu3+1 0.500040 0.500000 0.426640 0.985673
H1    H     H_    0.976658 0.499626 0.413600 0.165820
H2    H     H_    0.023347 0.500512 0.586458 0.191641
H3    H     H_    0.353023 0.581425 0.823084 0.132868
H4    H     H_    0.303894 0.555869 0.151100 0.133895
H5    H     H_    0.413085 0.847655 0.385390 0.139754
H6    H     H_    0.503179 0.153170 0.619977 0.148353
H7    H     H_    0.612520 0.840833 0.616605 0.142968
H8    H     H_    0.492998 0.156865 0.382062 0.141151
H9    H     H_    0.608291 0.714736 0.614748 0.171840
H10   H     H_    0.493001 0.282574 0.382041 0.174053
H11   H     H_    0.279800 0.063040 0.535535 0.139434
H12   H     H_    0.734046 0.935569 0.469991 0.156760
H13   H     H_    0.655571 0.415414 0.698188 0.180720
H14   H     H_    0.706226 0.440117 0.328320 0.150570
H15   H     H_    0.665203 0.409720 0.834786 0.151855
H16   H     H_    0.721870 0.436613 0.193940 0.143729
N1    N     N_R   0.499980 0.500020 0.683620 -0.211908
N2    N     N_R   0.500020 0.499980 0.316380 -0.206606
O1    O     O_R   0.499930 0.400180 0.561970 -0.549906
O2    O     O_R   0.500070 0.599820 0.438030 -0.514447
O3    O     O_R   0.500010 0.400190 0.438070 -0.604124
O4    O     O_R   0.499990 0.599810 0.561930 -0.558844
O5    O     O_R   0.274810 0.500000 0.547650 -0.550778
O6    O     O_R   0.725190 0.500000 0.452350 -0.596444
O7    O     O_R   0.274880 0.500000 0.423750 -0.549581
O8    O     O_R   0.725120 0.500000 0.576250 -0.597689
O9    O     O_3   0.318969 0.591884 0.671778 -0.559095
C41   C     C_3   0.330390 0.659878 0.698941 -0.355440
H17   H     H_    0.452048 0.674608 0.720681 0.154881
H18   H     H_    0.253562 0.667085 0.742131 0.158477
H19   H     H_    0.289280 0.695615 0.652147 0.195791
O10   O     O_3   0.271138 0.567910 0.296674 -0.538825
C42   C     C_3   0.121506 0.550499 0.260737 -0.392661
H20   H     H_    0.035523 0.565929 0.297096 0.186449
H21   H     H_    0.107835 0.494059 0.251315 0.161030
H22   H     H_    0.092875 0.579668 0.207562 0.156797
O11   O     O_3   0.704318 0.585984 0.935206 -0.569153
C43   C     C_3   0.848793 0.555789 0.927995 -0.355824
H23   H     H_    0.836180 0.516827 0.883247 0.183926
H24   H     H_    0.906060 0.532100 0.981100 0.143884
H25   H     H_    0.927058 0.596560 0.911939 0.189081
O12   O     O_3   0.327087 0.403232 0.066831 -0.573359
C44   C     C_3   0.407735 0.341920 0.090022 -0.352768
H26   H     H_    0.496986 0.350883 0.139105 0.177244
H27   H     H_    0.462615 0.318221 0.044525 0.142550
H28   H     H_    0.323730 0.304158 0.107048 0.188132
C45   C     C_3   0.712801 0.593000 0.093141 -0.341751
C46   C     C_3   0.619112 0.658676 0.100939 -0.313457
C47   C     C_3   0.713689 0.710467 0.151439 -0.854394
H29   H     H_    0.746485 0.688188 0.208200 0.256454
H30   H     H_    0.820431 0.724979 0.128113 0.249691
H31   H     H_    0.643394 0.757581 0.155785 0.247246
H32   H     H_    0.584669 0.682569 0.045035 0.233270
H33   H     H_    0.512048 0.646198 0.124907 0.221323
H34   H     H_    0.757526 0.571536 0.149050 0.188752
H35   H     H_    0.817625 0.606659 0.067978 0.214972
C48   C     C_3   0.308996 0.400229 0.908138 -0.324981
C49   C     C_3   0.154044 0.436595 0.882598 -0.332509
C50   C     C_3   0.049423 0.393191 0.826384 -0.877424
H36   H     H_    0.107269 0.382865 0.776819 0.253505
H37   H     H_    0.021421 0.343555 0.852246 0.255558
H38   H     H_    0.939876 0.421445 0.807608 0.239512
H39   H     H_    0.094333 0.446024 0.931767 0.226446
H40   H     H_    0.173604 0.487041 0.856297 0.217406
H41   H     H_    0.360726 0.382401 0.859162 0.190041
H42   H     H_    0.286482 0.352597 0.939024 0.213957
O13   O     O_3   0.378892 0.714132 0.369867 -0.552752
C51   C     C_3   0.215996 0.717159 0.365809 -0.247878
H43   H     H_    0.176408 0.686115 0.411420 0.153830
H44   H     H_    0.162663 0.695152 0.311975 0.210410
H45   H     H_    0.172990 0.771058 0.367046 0.126763
O14   O     O_3   0.501747 0.286918 0.636617 -0.579001
C52   C     C_3   0.352341 0.287138 0.657991 -0.316782
H46   H     H_    0.266206 0.312712 0.615012 0.159021
H47   H     H_    0.356596 0.316996 0.710158 0.185589
H48   H     H_    0.313796 0.234044 0.669670 0.148579
C53   C     C_3   0.241978 0.925542 0.547552 -0.402693
C54   C     C_3   0.120897 0.906704 0.480750 -0.346723
C55   C     C_3   0.008221 0.852466 0.502328 -0.865618
H49   H     H_    0.071423 0.804066 0.520266 0.255627
H50   H     H_    0.948557 0.871373 0.548448 0.256875
H51   H     H_    0.919920 0.840986 0.453484 0.240386
H52   H     H_    0.055153 0.953612 0.459781 0.217182
H53   H     H_    0.177757 0.886226 0.434581 0.219164
H54   H     H_    0.283100 0.878658 0.580068 0.207764
H55   H     H_    0.185764 0.958259 0.586093 0.178739
C56   C     C_3   0.785862 0.071731 0.470850 -0.413423
C57   C     C_3   0.812724 0.065800 0.389363 -0.353580
C58   C     C_3   0.961612 0.102505 0.376429 -0.855007
H56   H     H_    0.954217 0.158187 0.389012 0.256826
H57   H     H_    0.063250 0.079613 0.412353 0.252136
H58   H     H_    0.978712 0.097051 0.317234 0.240576
H59   H     H_    0.821702 0.010757 0.374269 0.214218
H60   H     H_    0.713419 0.089065 0.352131 0.217099
H61   H     H_    0.784909 0.126915 0.486126 0.212154
H62   H     H_    0.885114 0.047999 0.507873 0.189656

loop_
_geom_bond_atom_site_label_1
_geom_bond_atom_site_label_2
_ccdc_geom_bond_type
C38   C40   A    
C17   O9    S    
C50   H36   S    
Cu1   Cu2   S    
C57   H59   S    
Cu1   O1    S    
C58   H58   S    
O14   C52   S    
C46   H32   S    
C21   C45   S    
C44   H26   S    
C48   H42   S    
C49   H39   S    
C5    H11   S    
C35   C37   A    
C43   H25   S    
C37   H9    S    
C54   H53   S    
C38   H10   S    
C20   C25   A    
C52   H46   S    
C23   O7    A    
C19   C26   A    
C51   H43   S    
C55   H51   S    
C1    C40   S    
C2    C39   S    
C56   H62   S    
C52   H47   S    
C35   H7    S    
C31   C33   A    
C41   H17   S    
C9    H13   S    
C23   C27   S    
C10   H14   S    
Cu2   O2    S    
C24   O6    A    
C12   H16   S    
C53   H55   S    
C18   O10   S    
C31   H5    S    
C32   H6    S    
C6    H12   S    
C4    C7    A    
C1    O3    A    
C2    O4    A    
Cu1   O8    S    
C10   C12   A    
C44   H27   S    
C37   C39   A    
O10   C42   S    
O12   C44   S    
Cu1   N1    S    
C43   H24   S    
C3    C8    A    
Cu2   N2    S    
C47   H29   S    
C5    C7    A    
C54   H52   S    
Cu1   O5    S    
C3    C5    A    
C28   H2    S    
C45   H34   S    
C9    N1    A    
C32   C34   A    
C10   N2    A    
C42   H20   S    
C47   H30   S    
C9    C11   A    
C48   C49   S    
C52   H48   S    
C29   C39   A    
C41   H19   S    
C30   C40   A    
C19   O11   S    
C42   H21   S    
C51   H45   S    
C55   H49   S    
C3    C53   S    
C17   N1    A    
C18   N2    A    
C12   C14   A    
C50   H38   S    
C13   C15   A    
Cu2   O7    S    
C7    C34   S    
C14   C16   A    
C13   C26   S    
C4    C6    A    
C15   H3    S    
C16   H4    S    
C58   H56   S    
C36   H8    S    
C54   C55   S    
C56   C57   S    
C30   O14   S    
C44   H28   S    
C29   O13   S    
C15   C17   A    
C21   C25   A    
C22   C48   S    
C19   C21   A    
C57   H60   S    
C24   C28   S    
C20   C22   A    
C43   H23   S    
C58   H57   S    
C1    O1    A    
C6    C8    A    
C53   C54   S    
C46   H33   S    
C4    C56   S    
C48   H41   S    
C49   H40   S    
C50   H37   S    
C45   H35   S    
C23   O5    A    
C20   O12   S    
C57   C58   S    
C29   C31   A    
O13   C51   S    
C47   H31   S    
C30   C32   A    
C11   C13   A    
C46   C47   S    
C36   C38   A    
C49   C50   S    
C33   C35   A    
C34   C36   A    
C8    C33   S    
C14   C25   S    
O9    C41   S    
C42   H22   S    
C51   H44   S    
C55   H50   S    
C24   O8    A    
O11   C43   S    
C27   H1    S    
C56   H61   S    
C16   C18   A    
C22   C26   A    
C27   C28   D    
Cu2   O6    S    
C41   H18   S    
Cu1   O4    S    
C45   C46   S    
C11   H15   S    
Cu2   O3    S    
C2    O2    A    
C53   H54   S    
