data_mof_unit_53780.cif
_audit_creation_date              2012-12-11T14:29:37-0500
_audit_creation_method            fapswitch 2.2
_symmetry_space_group_name_H-M    P1
_symmetry_Int_Tables_number       1
_space_group_crystal_system       triclinic
_cell_length_a                    6.940425
_cell_length_b                    14.740628
_cell_length_c                    16.244374
_cell_angle_alpha                 90.495953
_cell_angle_beta                  89.986413
_cell_angle_gamma                 90.000765
_cell_volume                      1661.83824366

loop_
_atom_site_label
_atom_site_type_symbol
_atom_type_description
_atom_site_fract_x
_atom_site_fract_y
_atom_site_fract_z
_atom_type_partial_charge
O1    O     O_R   0.494400 0.416610 0.413880 -0.544107
O2    O     O_R   0.823920 0.406790 0.585520 -0.559983
O3    O     O_R   0.994250 0.583390 0.586120 -0.535624
C1    C     C_R   0.654763 0.386453 0.614511 0.645960
O4    O     O_R   0.824110 0.405730 0.414490 -0.542134
O5    O     O_R   0.994440 0.582310 0.413870 -0.541624
C2    C     C_R   0.654887 0.383696 0.386325 0.736582
O6    O     O_R   0.494210 0.417690 0.586130 -0.514137
O7    O     O_3   0.660810 0.557940 0.500000 -0.372837
V1    V     V_3+5 0.935650 0.489250 0.500000 1.422467
O8    O     O_R   0.324160 0.593210 0.414480 -0.546807
C3    C     C_R   0.155450 0.614990 0.386348 0.730147
O9    O     O_R   0.323970 0.594270 0.585510 -0.539748
C4    C     C_R   0.155107 0.616179 0.613885 0.696744
V2    V     V_3+5 0.435660 0.510750 0.500000 1.440802
O10   O     O_3   0.160630 0.442060 0.500000 -0.367946
H1    H     H_    0.835065 0.893700 0.519671 0.114113
C5    C     C_R   0.310823 0.578367 0.775613 -0.128928
C6    C     C_R   0.385767 0.557593 0.852711 -0.100698
C7    C     C_R   0.373112 0.620106 0.916948 -0.136076
C8    C     C_R   0.285572 0.703925 0.904580 -0.129270
C9    C     C_R   0.210377 0.727640 0.826645 0.073007
C10   C     C_R   0.223134 0.663420 0.760705 0.053707
C11   C     C_R   0.119726 0.812787 0.814361 -0.184414
C12   C     C_R   0.041674 0.833505 0.735955 0.069643
C13   C     C_R   0.054376 0.769273 0.670020 0.071166
C14   C     C_R   0.144977 0.684107 0.682310 -0.186420
C15   C     C_R   0.954187 0.918610 0.721031 -0.142553
C16   C     C_R   0.879394 0.939421 0.643914 -0.123737
C17   C     C_R   0.891917 0.876879 0.579688 -0.120834
C18   C     C_R   0.979231 0.793007 0.592078 -0.133616
H2    H     H_    0.321266 0.526528 0.728340 0.149647
H3    H     H_    0.452606 0.492261 0.862814 0.153024
H4    H     H_    0.430048 0.603303 0.976953 0.117518
H5    H     H_    0.276110 0.749243 0.957123 0.107897
H6    H     H_    0.943819 0.970473 0.768298 0.111300
H7    H     H_    0.812771 0.004802 0.633797 0.116713
H8    H     H_    0.988599 0.747667 0.539543 0.107227
C19   C     C_2   0.985468 0.709768 0.283028 -0.133188
C20   C     C_2   0.150369 0.682698 0.319477 -0.311099
H9    H     H_    0.849476 0.681784 0.304032 0.136142
H10   H     H_    0.287980 0.710095 0.300555 0.128003
C21   C     C_2   0.973144 0.777197 0.215037 -0.133918
C22   C     C_2   0.126265 0.814530 0.177120 -0.310454
H11   H     H_    0.829170 0.796104 0.195399 0.134213
H12   H     H_    0.271351 0.796262 0.194957 0.128772
C23   C     C_2   0.776926 0.209754 0.782401 -0.102715
C24   C     C_2   0.613089 0.173729 0.812419 -0.267553
H13   H     H_    0.914096 0.190095 0.809025 0.142929
H14   H     H_    0.475599 0.187616 0.783788 0.205611
C25   C     C_2   0.785174 0.272187 0.710763 -0.235804
C26   C     C_2   0.638434 0.325307 0.685685 0.442913
H15   H     H_    0.922363 0.275970 0.678781 0.117795
C27   C     C_2   0.779179 0.208976 0.213950 -0.129395
C28   C     C_2   0.614060 0.181844 0.177401 -0.309295
H16   H     H_    0.915001 0.180292 0.193073 0.137232
H17   H     H_    0.476559 0.209834 0.196137 0.127505
C29   C     C_2   0.791668 0.277459 0.281892 -0.135615
C30   C     C_2   0.638327 0.315453 0.319537 -0.307968
H18   H     H_    0.935605 0.296551 0.301731 0.134993
H19   H     H_    0.493249 0.297026 0.301591 0.129243
O11   O     O_R   0.770210 0.079270 0.910680 -0.541083
O12   O     O_R   0.440150 0.091160 0.082270 -0.544682
O13   O     O_R   0.269970 0.914530 0.082860 -0.545392
C31   C     C_R   0.608807 0.113252 0.110491 0.747246
O14   O     O_R   0.440480 0.090100 0.911240 -0.540555
O15   O     O_R   0.270310 0.913460 0.910610 -0.537707
C32   C     C_R   0.609012 0.110573 0.882361 0.719508
O16   O     O_R   0.769870 0.080340 0.082930 -0.538516
O17   O     O_3   0.603660 0.938980 0.996790 -0.371162
V3    V     V_3+5 0.328750 0.007610 0.996740 1.414633
O18   O     O_R   0.940600 0.902510 0.911180 -0.539393
C33   C     C_R   0.109495 0.880678 0.882799 0.692197
O19   O     O_R   0.940270 0.903570 0.082200 -0.540763
C34   C     C_R   0.109530 0.881879 0.110357 0.733816
V4    V     V_3+5 0.828770 0.986010 0.996670 1.419130
O20   O     O_3   0.103730 0.054750 0.996710 -0.371994
F1    F     F_    0.469398 0.328233 0.727981 -0.709799

loop_
_geom_bond_atom_site_label_1
_geom_bond_atom_site_label_2
_ccdc_geom_bond_type
O14   C32   A    
C11   C12   A    
O12   C31   A    
C6    C7    A    
O18   V4    S    
C19   H9    S    
C12   C15   A    
C13   C14   A    
O19   V4    S    
C1    C26   S    
C15   C16   A    
O5    C3    A    
C17   C18   A    
C11   C33   S    
C29   H18   S    
V2    O10   S    
O16   V4    S    
C5    C6    A    
O13   V3    S    
O8    V2    S    
C23   C24   D    
O17   V3    S    
O15   C33   A    
C10   C14   A    
C4    C14   S    
O7    V1    S    
C1    O6    A    
C7    H4    S    
C20   H10   S    
C13   C18   A    
O9    C4    A    
H1    C17   S    
O11   V4    S    
C26   F1    S    
C2    C30   S    
C28   C31   S    
C22   H12   S    
C27   H16   S    
C30   H19   S    
O19   C34   A    
C5    C10   A    
V4    O20   S    
C23   H13   S    
C6    H3    S    
C19   C20   D    
O4    C2    A    
C19   C21   S    
C12   C13   A    
C25   C26   D    
C25   H15   S    
C3    C20   S    
C22   C34   S    
O2    C1    A    
C21   C22   D    
C16   C17   A    
O14   V3    S    
C24   C32   S    
C21   H11   S    
O3    C4    A    
O1    V2    S    
O12   V3    S    
O6    V2    S    
C28   H17   S    
O17   V4    S    
C9    C11   A    
C5    H2    S    
O2    V1    S    
V3    O20   S    
C27   C29   S    
C27   C28   D    
O1    C2    A    
O18   C33   A    
O5    V1    S    
C23   C25   S    
O8    C3    A    
C8    H5    S    
C18   H8    S    
O11   C32   A    
O9    V2    S    
C29   C30   D    
O4    V1    S    
O3    V1    S    
V1    O10   S    
C31   O16   A    
C24   H14   S    
O13   C34   A    
O15   V3    S    
O7    V2    S    
C7    C8    A    
C15   H6    S    
C16   H7    S    
C9    C10   A    
C8    C9    A    
