data_mof_unit_34234.cif
_audit_creation_date              2013-03-05T16:44:15-0500
_audit_creation_method            fapswitch 2.2
_symmetry_space_group_name_H-M    P1
_symmetry_Int_Tables_number       1
_space_group_crystal_system       triclinic
_cell_length_a                    23.433551
_cell_length_b                    10.649035
_cell_length_c                    9.862427
_cell_angle_alpha                 90.504433
_cell_angle_beta                  90.374013
_cell_angle_gamma                 90.354709
_cell_volume                      2460.92057394

loop_
_atom_site_label
_atom_site_type_symbol
_atom_site_description
_atom_site_fract_x
_atom_site_fract_y
_atom_site_fract_z
_atom_type_partial_charge
O1    O     O_R   0.500010 0.316790 0.614690 -0.620509
O2    O     O_R   0.500000 0.316760 0.385350 -0.567190
C1    C     C_R   0.505260 0.260350 0.498846 0.904073
O3    O     O_R   0.416160 0.499980 0.614700 -0.628233
O4    O     O_R   0.416150 0.499940 0.385360 -0.627759
C2    C     C_R   0.389251 0.500281 0.499700 0.879842
Zn1   Zn    Zn3+2 0.500000 0.500020 0.653130 0.982941
Zn2   Zn    Zn3+2 0.500000 0.499980 0.346870 1.008923
O5    O     O_R   0.500000 0.683240 0.614650 -0.609137
O6    O     O_R   0.499990 0.683210 0.385310 -0.619931
O7    O     O_R   0.583850 0.500060 0.614640 -0.624339
O8    O     O_R   0.583840 0.500020 0.385300 -0.617266
C3    C     C_R   0.502303 0.740332 0.500228 0.916764
C4    C     C_R   0.610677 0.501418 0.500555 0.893038
C5    C     C_R   0.880431 0.632637 0.469645 0.549427
N1    N     N_R   0.852040 0.529431 0.515888 -0.360443
C6    C     C_R   0.879751 0.428689 0.568127 0.527027
C7    C     C_R   0.939128 0.427620 0.573456 -0.021514
C8    C     C_R   0.970025 0.531978 0.525263 -0.002333
C9    C     C_R   0.940694 0.638857 0.476971 -0.128966
C10   C     C_R   0.967641 0.324695 0.628003 -0.163798
C11   C     C_R   0.026933 0.321098 0.633032 -0.053278
C12   C     C_R   0.058824 0.419666 0.572677 -0.072122
C13   C     C_R   0.030143 0.527888 0.523910 -0.035503
C14   C     C_R   0.061448 0.630800 0.472051 -0.125248
C15   C     C_R   0.032326 0.739414 0.427677 0.257392
C16   C     C_R   0.972474 0.745385 0.434467 -0.155179
C17   C     C_R   0.118088 0.412706 0.553978 0.588030
N2    N     N_R   0.147396 0.513483 0.505992 -0.353216
C18   C     C_R   0.121316 0.621915 0.468876 0.586439
O9    O     O_2   0.850041 0.726742 0.414709 -0.513164
O10   O     O_2   0.849615 0.328956 0.612949 -0.516130
H1    H     H_    0.943566 0.247676 0.671241 0.227175
O11   O     O_2   0.146527 0.305440 0.578435 -0.491409
O12   O     O_2   0.153817 0.719622 0.428863 -0.476692
C19   C     C_R   0.236492 0.476669 0.378397 0.001136
C20   C     C_R   0.296183 0.474978 0.380175 -0.244595
H2    H     H_    0.318839 0.450605 0.289073 0.190772
C21   C     C_R   0.326883 0.502301 0.499396 -0.061914
C22   C     C_R   0.297683 0.532142 0.618502 -0.190296
H3    H     H_    0.320259 0.555647 0.711058 0.160158
C23   C     C_R   0.238694 0.534211 0.618813 -0.091876
H4    H     H_    0.216467 0.558103 0.711401 0.156027
C24   C     C_R   0.208008 0.507049 0.500216 0.228428
C25   C     C_R   0.763176 0.509294 0.386255 -0.076772
H5    H     H_    0.787270 0.501439 0.293273 0.154804
C26   C     C_R   0.703973 0.500728 0.382345 -0.182324
H6    H     H_    0.682720 0.487225 0.285406 0.172583
C27   C     C_R   0.672830 0.508719 0.503177 -0.048108
C28   C     C_R   0.701483 0.526548 0.627454 -0.161276
H7    H     H_    0.678416 0.533904 0.721983 0.171672
C29   C     C_R   0.760492 0.535588 0.630897 -0.071414
H8    H     H_    0.782450 0.548672 0.727006 0.153935
C30   C     C_R   0.791319 0.526415 0.510587 0.293590
C31   C     C_R   0.532186 0.065278 0.612536 -0.029842
C32   C     C_R   0.520385 0.130100 0.493735 -0.231680
C33   C     C_R   0.522113 0.062612 0.369156 0.322606
C34   C     C_R   0.517200 0.932781 0.372522 -0.232873
H9    H     H_    0.513537 0.881509 0.277431 0.229073
C35   C     C_R   0.514365 0.871412 0.497714 -0.204083
C36   C     C_R   0.529850 0.937503 0.614414 0.119817
C37   C     C_3   0.511783 0.934171 0.759924 0.087999
C38   C     C_3   0.515835 0.078686 0.758121 -0.342978
H10   H     H_    0.467770 0.896617 0.772941 0.106769
H11   H     H_    0.473724 0.124533 0.771944 0.158512
C39   C     C_R   0.459233 0.434558 0.069931 0.302304
N3    N     N_R   0.499610 0.499140 0.142800 -0.120910
C40   C     C_R   0.543658 0.552776 0.073183 -0.066994
H12   H     H_    0.578188 0.598239 0.128326 0.167089
C41   C     C_R   0.543843 0.551931 0.929216 -0.065860
H13   H     H_    0.578847 0.595159 0.875982 0.191597
N4    N     N_R   0.499610 0.499180 0.857150 -0.121596
C42   C     C_R   0.458875 0.435969 0.927442 0.281489
C43   C     C_3   0.396451 0.459723 0.921835 -0.513987
C44   C     C_3   0.396533 0.455303 0.075234 -0.499190
H14   H     H_    0.386726 0.554730 0.882608 0.213808
H15   H     H_    0.372391 0.380862 0.873323 0.225379
H16   H     H_    0.385192 0.546525 0.123390 0.226931
H17   H     H_    0.373740 0.371596 0.114693 0.227719
N5    N     N_R   0.527094 0.122796 0.240301 0.238836
O13   O     O_R   0.570462 0.196424 0.217813 -0.363494
O14   O     O_R   0.494474 0.087929 0.139378 -0.367515
N6    N     N_R   0.553625 0.873908 0.848758 0.246652
O15   O     O_R   0.599797 0.823741 0.800061 -0.365421
O16   O     O_R   0.543939 0.867931 0.978224 -0.372426
C45   C     C_2   0.563618 0.139823 0.839262 1.120975
O17   O     O_2   0.612952 0.104591 0.826904 -0.547215
O18   O     O_R   0.551342 0.240903 0.924700 -0.779393
H18   H     H_    0.586876 0.278927 0.967973 0.353985
C46   C     C_2   0.052601 0.216790 0.710847 1.036559
O19   O     O_2   0.090026 0.238425 0.795028 -0.560471
O20   O     O_R   0.031295 0.094684 0.693865 -0.739748
H19   H     H_    0.051413 0.031937 0.754018 0.371435
N7    N     N_R   0.063087 0.844979 0.375048 0.256101
O21   O     O_R   0.070253 0.945635 0.449009 -0.304273
O22   O     O_R   0.078924 0.844885 0.248860 -0.278315
C47   C     C_2   0.944976 0.866322 0.400471 1.093461
O23   O     O_2   0.918341 0.923614 0.487199 -0.539189
O24   O     O_R   0.950988 0.916053 0.270628 -0.734929
H20   H     H_    0.930933 0.999550 0.260373 0.361898
C48   C     C_2   0.205754 0.446232 0.249248 0.971461
O25   O     O_2   0.154153 0.428559 0.247698 -0.584874
O26   O     O_R   0.236264 0.436639 0.128116 -0.806945
H21   H     H_    0.210925 0.415543 0.047241 0.369502

loop_
_geom_bond_atom_site_label_1
_geom_bond_atom_site_label_2
_geom_bond_distance
_ccdc_geom_bond_type
C15   N7    1.434535 S    
C37   N6    1.465370 S    
C38   H11   1.112339 S    
C48   O25   1.222564 D    
C7    C10   1.397130 A    
C42   C43   1.486819 S    
C8    C9    1.417616 A    
C31   C32   1.392174 A    
C47   O23   1.223068 D    
C46   O19   1.223165 D    
C26   C27   1.403680 A    
C3    C35   1.422958 S    
C25   H5    1.082918 S    
Zn1   O7    2.003665 S    
C17   N2    1.360663 A    
C15   C16   1.406393 A    
C37   C38   1.541547 S    
C43   H14   1.110771 S    
C18   O12   1.348981 S    
C19   C20   1.398999 A    
C20   H2    1.077192 S    
O4    C2    1.295460 A    
N5    O13   1.301113 A    
O7    C4    1.292589 A    
C45   O18   1.393718 S    
C4    C27   1.458102 S    
C10   H1    1.084616 S    
C34   C35   1.403829 A    
C5    N1    1.364654 A    
C32   C33   1.418870 A    
C7    C8    1.410312 A    
O5    C3    1.287821 A    
C37   H10   1.112501 S    
C26   H6    1.083155 S    
N1    C6    1.360895 A    
C43   H15   1.111569 S    
C31   C38   1.494334 S    
C28   C29   1.385705 A    
C12   C13   1.423493 A    
C41   H13   1.079637 S    
C22   C23   1.382657 A    
C39   N3    1.363469 A    
C17   O11   1.348800 S    
C48   O26   1.399541 S    
C10   C11   1.390741 A    
C33   N5    1.433428 S    
C36   C37   1.499534 S    
C23   C24   1.396179 A    
O3    Zn1   1.998459 S    
C11   C12   1.421857 A    
C47   O24   1.397682 S    
C29   C30   1.396175 A    
C28   H7    1.083185 S    
C25   C26   1.390030 A    
C5    C9    1.414654 A    
C20   C21   1.401811 A    
C43   C44   1.514025 S    
N3    C40   1.368191 A    
C13   C14   1.416184 A    
O3    C2    1.294120 A    
Zn1   N4    2.012311 S    
C45   O17   1.224135 D    
C40   H12   1.081513 S    
C14   C15   1.417680 A    
C39   C42   1.405474 A    
C19   C48   1.491353 S    
O1    C1    1.293188 A    
N2    C18   1.361646 A    
C1    C32   1.434272 S    
C46   O20   1.398270 S    
N6    O15   1.302359 A    
Zn2   O8    1.998457 S    
C6    C7    1.392172 A    
C11   C46   1.483861 S    
C12   C17   1.404490 A    
N7    O22   1.300987 A    
N5    O14   1.301128 A    
C22   H3    1.078809 S    
N6    O16   1.300365 A    
O8    C4    1.295395 A    
C25   C30   1.398499 A    
N2    C24   1.423915 S    
C19   C24   1.414191 A    
C23   H4    1.083336 S    
C21   C22   1.398456 A    
C29   H8    1.083072 S    
C14   C18   1.407227 A    
Zn1   O5    1.990960 S    
C16   C47   1.483669 S    
O1    Zn1   1.984434 S    
Zn2   O6    1.984435 S    
O2    Zn2   1.990958 S    
N4    C42   1.361542 A    
O6    C3    1.282234 A    
O4    Zn2   2.003666 S    
C5    O9    1.348447 S    
C9    C16   1.421001 A    
O24   H20   1.013824 S    
O2    C1    1.280604 A    
C34   H9    1.083673 S    
C38   C45   1.512677 S    
C33   C34   1.387359 A    
C39   C44   1.488359 S    
C31   C36   1.361736 A    
O20   H19   1.013861 S    
C8    C13   1.409860 A    
N7    O21   1.300624 A    
C44   H16   1.112021 S    
N1    C30   1.423674 S    
O18   H18   1.013702 S    
Zn2   N3    2.012527 S    
C40   C41   1.419854 A    
C27   C28   1.404551 A    
O26   H21   1.014028 S    
C6    O10   1.350986 S    
C2    C21   1.461779 S    
C35   C36   1.388813 A    
C41   N4    1.367942 A    
C44   H17   1.110964 S    
