data_mof_unit_44940.cif
_audit_creation_date              2012-12-11T14:13:31-0500
_audit_creation_method            fapswitch 2.2
_symmetry_space_group_name_H-M    P1
_symmetry_Int_Tables_number       1
_space_group_crystal_system       triclinic
_cell_length_a                    11.576729
_cell_length_b                    18.482622
_cell_length_c                    10.047004
_cell_angle_alpha                 89.438663
_cell_angle_beta                  111.097887
_cell_angle_gamma                 90.327436
_cell_volume                      2005.53469828

loop_
_atom_site_label
_atom_site_type_symbol
_atom_type_description
_atom_site_fract_x
_atom_site_fract_y
_atom_site_fract_z
_atom_type_partial_charge
C1    C     C_R   0.074729 0.645646 0.140957 0.548686
C2    C     C_2   0.588670 0.078857 0.095531 0.110055
C3    C     C_2   0.582500 0.422252 0.083190 0.118086
C4    C     C_2   0.384838 0.561918 0.966377 0.090686
C5    C     C_2   0.454433 0.974608 0.010765 0.172889
C6    C     C_2   0.472592 0.053596 0.040087 0.148357
C7    C     C_2   0.460647 0.439097 0.042927 0.206245
C8    C     C_2   0.425887 0.511769 0.070918 0.123152
C9    C     C_2   0.994179 0.917795 0.110227 -0.106789
C10   C     C_2   0.965639 0.069928 0.881090 -0.112776
C11   C     C_2   0.991304 0.422411 0.887051 -0.122432
C12   C     C_R   0.926415 0.353951 0.859381 0.559282
C13   C     C_2   0.015030 0.575749 0.114930 -0.111717
C14   C     C_2   0.965093 0.951403 0.984571 -0.182560
C15   C     C_2   0.936656 0.028095 0.973799 -0.166957
C16   C     C_2   0.985342 0.461689 0.994968 -0.145304
C17   C     C_2   0.031146 0.534700 0.014618 -0.148814
C18   C     C_R   0.469801 0.647807 0.445324 0.508706
C19   C     C_R   0.531902 0.353572 0.558847 0.538408
C20   C     C_R   0.564579 0.137589 0.627895 0.557348
C21   C     C_R   0.475393 0.847761 0.451994 0.532384
C22   C     C_R   0.357890 0.636121 0.999095 0.545399
C23   C     C_R   0.921869 0.144111 0.858963 0.550318
C24   C     C_R   0.621733 0.354633 0.036862 0.554843
C25   C     C_R   0.621683 0.146716 0.041205 0.545041
C26   C     C_R   0.348922 0.859936 0.017019 0.591361
C27   C     C_R   0.511437 0.426457 0.496724 0.002145
C28   C     C_R   0.492231 0.576516 0.516790 -0.022789
C29   C     C_R   0.520162 0.907318 0.555276 -0.017649
C30   C     C_R   0.554460 0.056656 0.610688 -0.016937
C31   C     C_R   0.286747 0.413752 0.426845 -0.056218
C32   C     C_R   0.716256 0.589544 0.578583 -0.066231
C33   C     C_R   0.734459 0.894329 0.575755 -0.067849
C34   C     C_R   0.069819 0.852560 0.139088 0.548761
C35   C     C_R   0.362812 0.051347 0.678815 -0.090576
C36   C     C_R   0.173644 0.441107 0.423983 0.280217
C37   C     C_R   0.825871 0.562696 0.570298 0.285012
C38   C     C_R   0.841095 0.924419 0.562063 0.299639
C39   C     C_R   0.250281 0.017506 0.663974 0.264374
C40   C     C_R   0.167708 0.512528 0.462436 -0.101976
C41   C     C_R   0.831199 0.490792 0.533442 -0.110008
C42   C     C_R   0.844255 0.998869 0.543995 -0.093056
C43   C     C_R   0.242534 0.943483 0.647482 -0.058452
C44   C     C_R   0.272158 0.556821 0.499485 -0.119932
C45   C     C_R   0.395151 0.456950 0.473091 -0.001787
C46   C     C_R   0.727895 0.446126 0.504780 -0.109517
C47   C     C_R   0.751059 0.043233 0.555718 -0.153024
C48   C     C_R   0.337831 0.906273 0.626566 -0.135791
C49   C     C_R   0.387067 0.530931 0.498532 0.010216
C50   C     C_R   0.616498 0.471705 0.516018 0.023420
C51   C     C_R   0.647775 0.014429 0.582871 -0.002458
C52   C     C_R   0.436775 0.943618 0.603887 -0.018649
C53   C     C_3   0.074350 0.347683 0.486106 -0.119417
C54   C     C_3   0.910048 0.643115 0.460710 -0.130069
C55   C     C_3   0.961322 0.820383 0.631742 -0.108962
C56   C     C_R   0.608946 0.545769 0.542165 -0.031751
C57   C     C_3   0.131721 0.121491 0.613674 -0.147730
C58   C     C_R   0.635222 0.938450 0.575156 -0.015085
C59   C     C_R   0.452857 0.018362 0.632762 -0.039218
C60   C     C_2   0.358285 0.938955 0.026785 0.105136
Cr1   Cr    Cr6+3 0.187610 0.750000 0.979860 0.987415
Cr2   Cr    Cr6+3 0.812390 0.250000 0.020140 1.019361
Cr3   Cr    Cr6+3 0.245810 0.750000 0.341640 0.986745
Cr4   Cr    Cr6+3 0.754190 0.250000 0.658360 0.979634
Cr5   Cr    Cr6+3 0.485760 0.750000 0.219910 1.028645
Cr6   Cr    Cr6+3 0.514240 0.250000 0.780090 1.020385
H1    H     H_    0.081928 0.533712 0.464927 0.136857
H2    H     H_    0.734913 0.393265 0.463710 0.153827
H3    H     H_    0.761260 0.098874 0.533603 0.177380
H4    H     H_    0.334008 0.847908 0.631609 0.152594
H5    H     H_    0.895402 0.050943 0.045290 0.156299
H6    H     H_    0.983127 0.926348 0.896774 0.152367
H7    H     H_    0.081244 0.554405 0.948193 0.172888
H8    H     H_    0.939935 0.441335 0.065760 0.190347
H9    H     H_    0.005359 0.046423 0.809202 0.165464
H10   H     H_    0.979770 0.944444 0.199076 0.134685
H11   H     H_    0.970025 0.554814 0.185431 0.100110
H12   H     H_    0.914398 0.470019 0.522375 0.134292
H13   H     H_    0.030987 0.444172 0.812002 0.100318
H14   H     H_    0.092661 0.373524 0.591535 0.122572
H15   H     H_    0.145828 0.306126 0.494690 0.117106
H16   H     H_    0.983805 0.319479 0.456336 0.138518
H17   H     H_    0.992885 0.676987 0.474381 0.150250
H18   H     H_    0.827662 0.679134 0.427555 0.128902
H19   H     H_    0.900614 0.603880 0.374082 0.118797
H20   H     H_    0.891906 0.777806 0.582423 0.118120
H21   H     H_    0.966533 0.831080 0.742360 0.120656
H22   H     H_    0.052556 0.798960 0.638397 0.147718
H23   H     H_    0.919941 0.022884 0.519992 0.160877
H24   H     H_    0.036319 0.139077 0.597754 0.146269
H25   H     H_    0.138851 0.119438 0.506055 0.127220
H26   H     H_    0.195710 0.162852 0.680979 0.131842
H27   H     H_    0.289632 0.078771 0.929380 0.280994
H28   H     H_    0.357764 0.124460 0.081314 0.243159
H29   H     H_    0.591019 0.972245 0.925561 0.211309
H30   H     H_    0.500071 0.900875 0.887101 0.230195
H31   H     H_    0.522579 0.561331 0.249640 0.286206
H32   H     H_    0.366766 0.554422 0.218634 0.220557
H33   H     H_    0.277735 0.412014 0.947615 0.221537
H34   H     H_    0.164487 0.914428 0.655934 0.187832
H35   H     H_    0.368076 0.347206 0.050083 0.212294
H36   H     H_    0.734708 0.064168 0.277675 0.226949
H37   H     H_    0.746210 0.021067 0.136737 0.225773
H38   H     H_    0.271224 0.950535 0.167444 0.237621
H39   H     H_    0.186768 0.971494 0.994808 0.240057
H40   H     H_    0.412817 0.578481 0.782987 0.233270
H41   H     H_    0.268562 0.549127 0.764865 0.240515
H42   H     H_    0.718439 0.490866 0.081905 0.225783
H43   H     H_    0.742687 0.450533 0.240031 0.239909
H44   H     H_    0.290025 0.358398 0.393874 0.120589
H45   H     H_    0.713514 0.645853 0.606418 0.120715
H46   H     H_    0.725554 0.836259 0.581823 0.105616
H47   H     H_    0.377503 0.101015 0.735627 0.191484
H48   H     H_    0.262336 0.610041 0.537412 0.157851
N1    N     N_3   0.371336 0.104215 0.991269 -0.636487
N2    N     N_3   0.545243 0.936018 0.970259 -0.579132
N3    N     N_3   0.445062 0.527900 0.214942 -0.637034
N4    N     N_3   0.364388 0.387381 0.974656 -0.592348
N5    N     N_3   0.685285 0.033575 0.188429 -0.597893
N6    N     N_3   0.273182 0.976310 0.075197 -0.665801
N7    N     N_3   0.363032 0.542181 0.822223 -0.623061
N8    N     N_3   0.675307 0.475337 0.153010 -0.649390
O1    O     O_R   0.267710 0.668200 0.902110 -0.515483
O2    O     O_R   0.883280 0.330790 0.732340 -0.531104
O3    O     O_R   0.883280 0.169210 0.732340 -0.553460
O4    O     O_R   0.116720 0.830790 0.267660 -0.494323
O5    O     O_R   0.366710 0.675440 0.427590 -0.515497
O6    O     O_R   0.633290 0.324560 0.572410 -0.508627
O7    O     O_R   0.633290 0.175440 0.572410 -0.510375
O8    O     O_R   0.366710 0.824560 0.427590 -0.511122
O9    O     O_R   0.534870 0.669390 0.371760 -0.541983
O10   O     O_R   0.465130 0.330610 0.628240 -0.501891
O11   O     O_R   0.465130 0.169390 0.628240 -0.540526
O12   O     O_R   0.732290 0.331800 0.097890 -0.522589
O13   O     O_R   0.534870 0.830610 0.371760 -0.505498
O14   O     O_R   0.453080 0.674480 0.075160 -0.492254
O15   O     O_R   0.546920 0.325520 0.924840 -0.462434
O16   O     O_R   0.546920 0.174480 0.924840 -0.506384
O17   O     O_R   0.453080 0.825520 0.075160 -0.461318
O18   O     O_3   0.306390 0.750000 0.180470 -0.284310
O19   O     O_3   0.693610 0.250000 0.819530 -0.267033
O20   O     O_3   0.067254 0.399406 0.379257 -0.589125
O21   O     O_3   0.926226 0.607730 0.591366 -0.592537
O22   O     O_3   0.935875 0.883616 0.546134 -0.582214
O23   O     O_R   0.732290 0.168200 0.097890 -0.539288
O24   O     O_3   0.152591 0.053309 0.683283 -0.616776
O25   O     O_R   0.267710 0.831800 0.902110 -0.553565
O26   O     O_R   0.099480 0.674460 0.038850 -0.501598
O27   O     O_R   0.900520 0.325540 0.961150 -0.483384
O28   O     O_R   0.900520 0.174460 0.961150 -0.496091
O29   O     O_R   0.099480 0.825540 0.038850 -0.532477
O30   O     O_R   0.116720 0.669210 0.267660 -0.531945

loop_
_geom_bond_atom_site_label_1
_geom_bond_atom_site_label_2
_ccdc_geom_bond_type
C44   C49   A    
C30   C51   A    
C33   C58   A    
Cr2   O27   S    
Cr3   O18   S    
C20   O7    A    
C4    C8    D    
C54   H18   S    
C28   C56   A    
C7    C8    S    
Cr6   O19   S    
C20   C30   S    
C16   H8    S    
H35   N4    S    
H37   N5    S    
C53   H15   S    
C32   H45   S    
Cr1   O26   S    
C38   C42   A    
C3    C7    D    
C10   C15   D    
C5    C6    S    
H43   N8    S    
Cr4   O19   S    
C19   O6    A    
C39   O24   S    
C1    O30   A    
C35   C59   A    
C53   O20   S    
H27   N1    S    
Cr3   O8    S    
C55   H22   S    
C36   O20   S    
C47   H3    S    
Cr5   O18   S    
C16   C17   S    
Cr4   O6    S    
C40   H1    S    
Cr6   O16   S    
C41   C46   A    
H39   N6    S    
C35   H47   S    
C9    H10   S    
C20   O11   A    
C2    C25   S    
C19   C27   S    
C43   C48   A    
C40   C44   A    
C3    N8    S    
C34   O4    A    
C23   O3    A    
C27   C45   A    
C54   O21   S    
C44   H48   S    
C29   C52   A    
H31   N3    S    
C57   O24   S    
C17   H7    S    
C7    N4    S    
C3    C24   S    
C2    C6    D    
C38   O22   S    
C54   H17   S    
Cr5   O9    S    
C8    N3    S    
Cr6   O10   S    
C6    N1    S    
C13   H11   S    
C57   H24   S    
Cr5   O14   S    
C36   C40   A    
C53   H14   S    
C18   C28   S    
C43   H34   S    
C26   O17   A    
H42   N8    S    
C41   H12   S    
C33   H46   S    
C39   C43   A    
Cr4   O2    S    
C21   C29   S    
Cr2   O23   S    
C50   C56   A    
C22   O14   A    
C53   H16   S    
C28   C49   A    
C35   C39   A    
C9    C14   D    
C46   H2    S    
C52   C59   A    
C18   O9    A    
C18   O5    A    
Cr6   O11   S    
C4    C22   S    
C11   C16   D    
C12   O2    A    
C45   C49   A    
H29   N2    S    
C2    N5    S    
C30   C59   A    
C51   C58   A    
C32   C37   A    
C29   C58   A    
Cr1   O29   S    
Cr5   O13   S    
C11   H13   S    
C55   H21   S    
C57   H25   S    
C34   O29   A    
Cr3   O30   S    
C23   O28   A    
C5    N2    S    
C9    C34   S    
C24   O15   A    
C1    C13   S    
H41   N7    S    
Cr2   O19   S    
H32   N3    S    
C22   O1    A    
C24   O12   A    
C19   O10   A    
C55   O22   S    
Cr2   O28   S    
C5    C60   D    
C14   C15   S    
C14   H6    S    
C12   O27   A    
C37   O21   S    
C48   H4    S    
C54   H19   S    
C47   C51   A    
H28   N1    S    
C27   C50   A    
Cr1   O18   S    
C10   C23   S    
C15   H5    S    
C46   C50   A    
C33   C38   A    
C13   C17   D    
Cr1   O1    S    
C42   H23   S    
Cr2   O12   S    
C55   H20   S    
C25   O16   A    
Cr1   O25   S    
H33   N4    S    
Cr6   O15   S    
H40   N7    S    
C31   H44   S    
C21   O13   A    
C4    N7    S    
C60   N6    S    
C57   H26   S    
C42   C47   A    
C37   C41   A    
C26   O25   A    
C21   O8    A    
Cr3   O4    S    
Cr5   O17   S    
C48   C52   A    
Cr4   O7    S    
Cr4   O3    S    
C31   C45   A    
C31   C36   A    
H30   N2    S    
C1    O26   A    
C25   O23   A    
C26   C60   S    
C32   C56   A    
Cr3   O5    S    
H36   N5    S    
C11   C12   S    
H38   N6    S    
C10   H9    S    
