data_mof_unit_65056.cif
_audit_creation_date              2012-12-10T19:07:16-0500
_audit_creation_method            fapswitch 2.2
_symmetry_space_group_name_H-M    P1
_symmetry_Int_Tables_number       1
_space_group_crystal_system       triclinic
_cell_length_a                    13.057962
_cell_length_b                    13.64766
_cell_length_c                    19.162699
_cell_angle_alpha                 89.951688
_cell_angle_beta                  92.428247
_cell_angle_gamma                 85.782517
_cell_volume                      3402.66404587

loop_
_atom_site_label
_atom_site_type_symbol
_atom_type_description
_atom_site_fract_x
_atom_site_fract_y
_atom_site_fract_z
_atom_type_partial_charge
C1    C     C_R   0.481225 0.684998 0.499309 0.912936
C2    C     C_2   0.966611 0.525814 0.520642 0.220544
C3    C     C_1   0.854603 0.519186 0.514648 0.260014
C4    C     C_1   0.145391 0.480822 0.485323 0.259879
C5    C     C_R   0.498953 0.500565 0.634436 0.969174
C6    C     C_R   0.501010 0.500229 0.365566 0.967811
C7    C     C_R   0.432592 0.583280 0.739698 0.048509
C8    C     C_R   0.569055 0.435828 0.254943 0.049756
C9    C     C_R   0.437343 0.595780 0.812421 0.380451
C10   C     C_R   0.568850 0.438478 0.181739 0.381456
C11   C     C_R   0.503073 0.531003 0.853960 -0.108005
C12   C     C_R   0.518771 0.314998 0.500713 0.910139
C13   C     C_R   0.506363 0.511814 0.145277 -0.107642
C14   C     C_R   0.565466 0.456809 0.823286 -0.212661
C15   C     C_R   0.441845 0.578721 0.181093 -0.214279
C16   C     C_R   0.562703 0.445133 0.751576 0.361082
C17   C     C_R   0.439616 0.575021 0.253142 0.359956
C18   C     C_R   0.496254 0.508107 0.709671 -0.209378
C19   C     C_R   0.503267 0.503755 0.290180 -0.208281
C20   C     C_R   0.506206 0.520300 0.069765 0.370236
C21   C     C_R   0.504706 0.534974 0.929685 0.375711
C22   C     C_3   0.263105 0.626124 0.688074 -0.523179
C23   C     C_1   0.533752 0.212142 0.501226 -0.084000
C24   C     C_3   0.736800 0.383051 0.305745 -0.528535
C25   C     C_1   0.466223 0.787845 0.498874 -0.082188
C26   C     C_2   0.544569 0.021279 0.501562 0.281372
C27   C     C_2   0.455368 0.978702 0.498674 0.282001
C28   C     C_1   0.457336 0.875061 0.498655 0.091284
C29   C     C_1   0.542612 0.124922 0.501516 0.091306
C30   C     C_2   0.033367 0.474214 0.479302 0.220128
Cl1   Cl    Cl    0.364937 0.695170 0.850321 -0.532939
Cl2   Cl    Cl    0.642263 0.346611 0.136608 -0.536612
Cl3   Cl    Cl    0.641015 0.348302 0.716234 -0.513548
Cl4   Cl    Cl    0.359691 0.664249 0.295361 -0.519981
Cl5   Cl    Cl    0.334341 0.045879 0.494832 -0.497357
Cl6   Cl    Cl    0.665593 0.954092 0.505405 -0.498666
Cl7   Cl    Cl    0.012486 0.605164 0.585332 -0.565269
Cl8   Cl    Cl    0.987422 0.394902 0.414593 -0.563482
H1    H     H_    0.615160 0.406260 0.855399 0.219680
H2    H     H_    0.742282 0.456718 0.329568 0.249246
H3    H     H_    0.394014 0.635168 0.152898 0.217970
H4    H     H_    0.376447 0.722561 0.707433 0.275876
H5    H     H_    0.224121 0.636827 0.738185 0.268967
H6    H     H_    0.257845 0.548924 0.670830 0.248497
H7    H     H_    0.222598 0.675291 0.647999 0.260697
H8    H     H_    0.623089 0.291784 0.275061 0.277830
H9    H     H_    0.777706 0.380433 0.256074 0.269801
H10   H     H_    0.775355 0.327330 0.342184 0.259984
N1    N     N_R   0.594692 0.517763 0.967012 -0.130892
N2    N     N_R   0.416347 0.538877 0.032548 -0.131934
N3    N     N_R   0.595484 0.511263 0.036098 -0.081106
N4    N     N_R   0.415559 0.545403 0.963458 -0.082132
N5    N     N_1   0.234540 0.484780 0.488910 -0.076965
N6    N     N_1   0.765460 0.515220 0.511090 -0.077749
N7    N     N_2   0.369282 0.649499 0.696007 -0.318490
N8    N     N_2   0.630500 0.362021 0.293417 -0.318279
O1    O     O_R   0.402510 0.634760 0.495940 -0.588973
O2    O     O_R   0.597490 0.365240 0.504060 -0.591620
O3    O     O_R   0.572960 0.644530 0.503060 -0.594766
O4    O     O_R   0.427040 0.355470 0.496940 -0.593556
O5    O     O_R   0.414750 0.495120 0.598300 -0.618129
O6    O     O_R   0.585250 0.504880 0.401700 -0.619801
O7    O     O_R   0.585190 0.504900 0.605420 -0.574570
O8    O     O_R   0.414810 0.495100 0.394580 -0.572802
Zn1   Zn    Zn3+2 0.386190 0.493480 0.495250 1.068559
Zn2   Zn    Zn3+2 0.613810 0.506520 0.504750 1.066918

loop_
_geom_bond_atom_site_label_1
_geom_bond_atom_site_label_2
_ccdc_geom_bond_type
N2    N4    A    
C15   C17   A    
C22   N7    S    
N6    Zn2   S    
C1    O1    A    
C4    N5    T    
C24   N8    S    
N5    Zn1   S    
C13   C20   S    
C22   H5    S    
C2    Cl7   S    
C7    N7    S    
C2    C30   D    
C7    C18   A    
C12   O2    A    
O8    Zn1   S    
C8    N8    S    
C21   N1    A    
C2    C3    S    
O7    Zn2   S    
C5    O5    A    
C16   Cl3   S    
C25   C28   T    
C1    C25   S    
C6    C19   S    
C9    C11   A    
C12   C23   S    
C6    O6    A    
C26   C27   D    
C22   H6    S    
O5    Zn1   S    
C23   C29   T    
C26   Cl6   S    
C11   C14   A    
C1    O3    A    
C11   C21   S    
O4    Zn1   S    
C20   N3    A    
C13   C15   A    
O3    Zn2   S    
H4    N7    S    
C3    N6    T    
C14   C16   A    
C8    C19   A    
C17   Cl4   S    
C9    Cl1   S    
C15   H3    S    
H8    N8    S    
C12   O4    A    
C17   C19   A    
C10   Cl2   S    
C21   N4    A    
C22   H7    S    
C5    O7    A    
C26   C29   S    
C16   C18   A    
C6    O8    A    
C27   C28   S    
C7    C9    A    
O6    Zn2   S    
C24   H2    S    
C20   N2    A    
C5    C18   S    
C30   Cl8   S    
C27   Cl5   S    
C14   H1    S    
C24   H9    S    
O2    Zn2   S    
C8    C10   A    
C4    C30   S    
O1    Zn1   S    
N1    N3    A    
C10   C13   A    
C24   H10   S    
