data_mof_unit_52543.cif
_audit_creation_date              2013-03-05T15:55:05-0500
_audit_creation_method            fapswitch 2.2
_symmetry_space_group_name_H-M    P1
_symmetry_Int_Tables_number       1
_space_group_crystal_system       triclinic
_cell_length_a                    14.789592
_cell_length_b                    14.884956
_cell_length_c                    14.872895
_cell_angle_alpha                 109.537651
_cell_angle_beta                  109.785939
_cell_angle_gamma                 109.023608
_cell_volume                      2522.42407265

loop_
_atom_site_label
_atom_site_type_symbol
_atom_site_description
_atom_site_fract_x
_atom_site_fract_y
_atom_site_fract_z
_atom_type_partial_charge
C1    C     C_R   0.185398 0.278973 0.253685 -0.141828
H1    H     H_    0.123777 0.302880 0.250746 0.112355
N1    N     N_R   0.291070 0.347930 0.293870 -0.039448
C2    C     C_R   0.525373 0.432496 0.746552 -0.145882
H2    H     H_    0.552647 0.374267 0.749233 0.111172
N2    N     N_R   0.554050 0.497220 0.706150 -0.040665
C3    C     C_R   0.504801 0.200819 0.407942 -0.157115
H3    H     H_    0.485418 0.153549 0.324321 0.100723
N3    N     N_R   0.497240 0.291100 0.443210 -0.036552
C4    C     C_R   0.291196 0.598483 0.589438 -0.133330
H4    H     H_    0.324691 0.659780 0.673589 0.083943
N4    N     N_R   0.347890 0.554050 0.556810 -0.038201
C5    C     C_R   0.595578 0.290065 0.590768 -0.142822
H5    H     H_    0.656906 0.321810 0.674876 0.084959
N5    N     N_R   0.554050 0.347900 0.556830 -0.037869
C6    C     C_R   0.199574 0.504541 0.407160 -0.154837
H6    H     H_    0.147952 0.475336 0.321483 0.120654
N6    N     N_R   0.291070 0.497250 0.443190 -0.039550
C7    C     C_R   0.435319 0.527304 0.751006 -0.124846
H7    H     H_    0.381802 0.559534 0.761959 0.093020
N7    N     N_R   0.497240 0.554030 0.706140 -0.039972
C8    C     C_R   0.275972 0.184810 0.248954 -0.133294
H8    H     H_    0.297017 0.120415 0.237349 0.092115
N8    N     N_R   0.347890 0.291110 0.293870 -0.038290
C9    C     C_R   0.172530 0.175230 0.223821 0.066793
C10   C     C_R   0.451116 0.449722 0.776587 0.071788
C11   C     C_R   0.565531 0.196906 0.498473 0.082086
C12   C     C_R   0.198208 0.571334 0.496807 0.066883
C13   C     C_R   0.474358 0.720950 0.406855 -0.146138
H9    H     H_    0.447107 0.696598 0.321488 0.111365
N9    N     N_R   0.445950 0.652100 0.443170 -0.038928
C14   C     C_R   0.815490 0.566317 0.592857 -0.134221
H10   H     H_    0.878390 0.616448 0.678639 0.117171
N10   N     N_R   0.708930 0.502750 0.556810 -0.042319
C15   C     C_R   0.494369 0.402359 0.195567 -0.162330
H11   H     H_    0.513426 0.337749 0.167580 0.102086
N11   N     N_R   0.502760 0.445970 0.293860 -0.037773
C16   C     C_R   0.707074 0.799281 0.803540 -0.166476
H12   H     H_    0.670099 0.846250 0.831153 0.104825
N12   N     N_R   0.652110 0.708890 0.706130 -0.038256
C17   C     C_R   0.801488 0.710315 0.805119 -0.114888
H13   H     H_    0.854596 0.679013 0.834544 0.088198
N13   N     N_R   0.708930 0.652070 0.706130 -0.041233
C18   C     C_R   0.403917 0.495074 0.194616 -0.142246
H14   H     H_    0.342438 0.518162 0.165640 0.087043
N14   N     N_R   0.445950 0.502780 0.293850 -0.037745
C19   C     C_R   0.564023 0.815178 0.591274 -0.128908
H15   H     H_    0.616955 0.879578 0.676534 0.093378
N15   N     N_R   0.502760 0.708900 0.556790 -0.039467
C20   C     C_R   0.723177 0.476832 0.408663 -0.122904
H16   H     H_    0.700571 0.446227 0.323159 0.093018
N16   N     N_R   0.652110 0.445950 0.443190 -0.040350
Ni1   Ni    Ni4+2 0.369690 0.500010 0.369700 0.213151
Ni2   Ni    Ni4+2 0.630310 0.499990 0.630300 0.208155
Ni3   Ni    Ni4+2 0.500000 0.369720 0.369720 0.207217
Ni4   Ni    Ni4+2 0.500000 0.630280 0.630280 0.207692
C21   C     C_R   0.548156 0.824751 0.497832 0.069504
C22   C     C_R   0.827051 0.555573 0.501337 0.055145
C23   C     C_R   0.433344 0.432140 0.131021 0.082115
C24   C     C_R   0.801977 0.803419 0.868149 0.077675
H17   H     H_    0.016061 0.476791 0.011116 0.097716
C25   C     C_R   0.099988 0.597345 0.183197 -0.126546
H18   H     H_    0.163129 0.655300 0.178955 0.106930
C26   C     C_R   0.101585 0.623173 0.283377 -0.147919
H19   H     H_    0.166501 0.701340 0.356195 0.115177
C27   C     C_R   0.020297 0.547774 0.289608 0.114224
C28   C     C_R   0.936445 0.447139 0.193649 -0.179637
H20   H     H_    0.873201 0.387761 0.196615 0.110397
C29   C     C_R   0.935266 0.421757 0.093709 -0.106784
H21   H     H_    0.871132 0.343802 0.020331 0.112827
C30   C     C_R   0.017028 0.496694 0.088526 -0.100102
C31   C     C_R   0.928643 0.569125 0.399927 -0.233774
H22   H     H_    0.852920 0.532105 0.323378 0.122239
C32   C     C_R   0.930748 0.606171 0.500789 0.053556
C33   C     C_R   0.034426 0.676199 0.599089 0.032214
C34   C     C_R   0.126659 0.672703 0.595922 -0.235336
H23   H     H_    0.204520 0.717266 0.672135 0.118490
C35   C     C_R   0.117662 0.610342 0.495304 0.055058
C36   C     C_R   0.023112 0.575030 0.396215 0.030642
C37   C     C_R   0.997718 0.822148 0.695179 -0.140842
H24   H     H_    0.944484 0.809690 0.615964 0.116092
C38   C     C_R   0.015531 0.903560 0.791064 -0.100862
H25   H     H_    0.975602 0.952418 0.785456 0.109865
C39   C     C_R   0.085734 0.922767 0.894208 -0.084290
H26   H     H_    0.100791 0.987114 0.968259 0.123161
C40   C     C_R   0.136539 0.859138 0.901710 -0.124859
H27   H     H_    0.190127 0.873594 0.981814 0.107255
C41   C     C_R   0.118899 0.777407 0.805992 -0.177176
H28   H     H_    0.158869 0.728845 0.813471 0.106573
C42   C     C_R   0.049686 0.758494 0.701584 0.111415
C43   C     C_R   0.450001 0.344901 0.876265 0.163591
C44   C     C_R   0.405898 0.400695 0.832457 0.034221
C45   C     C_R   0.332384 0.425571 0.861612 -0.200200
H29   H     H_    0.289556 0.461169 0.824129 0.126488
C46   C     C_R   0.328276 0.421932 0.953086 -0.207090
H30   H     H_    0.282518 0.455000 0.982764 0.123980
C47   C     C_R   0.397085 0.392579 0.014232 0.032452
C48   C     C_R   0.445138 0.340486 0.965729 0.163813
C49   C     C_3   0.557360 0.351218 0.014942 -0.523130
C50   C     C_3   0.563222 0.356720 0.917707 -0.518660
H31   H     H_    0.553736 0.275714 0.015731 0.188641
H32   H     H_    0.628890 0.438104 0.942602 0.203033
H33   H     H_    0.563683 0.284696 0.863003 0.190652
C51   C     C_R   0.547381 0.925163 0.394044 0.169098
C52   C     C_R   0.592761 0.925376 0.493578 0.032376
C53   C     C_R   0.666768 0.027456 0.591356 -0.204440
H34   H     H_    0.710399 0.032529 0.669346 0.125195
C54   C     C_R   0.670537 0.122904 0.592011 -0.203753
H35   H     H_    0.716840 0.198059 0.670512 0.124006
C55   C     C_R   0.601031 0.115675 0.494615 0.031351
C56   C     C_R   0.551952 0.019325 0.394640 0.163944
C57   C     C_3   0.438812 0.957226 0.295228 -0.529453
C58   C     C_3   0.433272 0.854324 0.294814 -0.529743
H36   H     H_    0.377427 0.975167 0.312928 0.199960
H37   H     H_    0.440851 0.961053 0.222505 0.187842
H38   H     H_    0.368869 0.814657 0.312730 0.197166
H39   H     H_    0.431350 0.798675 0.221461 0.190873
C59   C     C_R   0.967468 0.074891 0.121414 0.167200
C60   C     C_R   0.067114 0.074741 0.168014 0.027761
C61   C     C_R   0.062700 0.972652 0.140962 -0.217923
C62   C     C_R   0.968051 0.877057 0.048598 -0.199538
H40   H     H_    0.971627 0.801930 0.020154 0.131814
C63   C     C_R   0.878411 0.884429 0.984882 0.026960
C64   C     C_R   0.874200 0.980702 0.031201 0.165843
C65   C     C_3   0.837724 0.042673 0.979801 -0.535912
C66   C     C_3   0.939824 0.145670 0.077924 -0.523618
H41   H     H_    0.839233 0.024778 0.901614 0.197305
H42   H     H_    0.760105 0.038635 0.976250 0.190584
H43   H     H_    0.998760 0.185657 0.054660 0.200779
H44   H     H_    0.920809 0.201072 0.130355 0.194222
H45   H     H_    0.619695 0.429206 0.094152 0.201153
H46   H     H_    0.135879 0.967782 0.180421 0.129908

loop_
_geom_bond_atom_site_label_1
_geom_bond_atom_site_label_2
_geom_bond_distance
_ccdc_geom_bond_type
C6    C12   1.382487 A    
C21   C52   1.459481 S    
C45   H29   1.081703 S    
N1    Ni1   1.853905 S    
C17   H13   1.080647 S    
C46   H30   1.081280 S    
C14   C22   1.391901 A    
C57   H36   1.112511 S    
C47   C48   1.399620 A    
C3    H3    1.079749 S    
C19   N15   1.339721 A    
C61   C62   1.401257 A    
N8    Ni3   1.839995 S    
C27   C36   1.481323 S    
C25   H18   1.082280 S    
C15   N11   1.328117 A    
N2    Ni2   1.846232 S    
C31   C36   1.392210 A    
C16   H12   1.079681 S    
C40   C41   1.399277 A    
C53   H34   1.081878 S    
C66   H44   1.112101 S    
C18   C23   1.383260 A    
C10   C44   1.460786 S    
C48   C49   1.497471 S    
C3    C11   1.375087 A    
C54   H35   1.081314 S    
C15   C23   1.375332 A    
C1    H1    1.074230 S    
C29   C30   1.397732 A    
C7    C10   1.393727 A    
C59   C60   1.401381 A    
C57   C58   1.504774 S    
C25   C26   1.398375 A    
N6    Ni1   1.845988 S    
C55   C56   1.399627 A    
N12   N13   1.372893 A    
C15   H11   1.079791 S    
C11   C55   1.459041 S    
C6    H6    1.072429 S    
N12   Ni4   1.839994 S    
C8    C9    1.391233 A    
C65   H42   1.111787 S    
C20   N16   1.337172 A    
N3    Ni3   1.849439 S    
C43   C50   1.500489 S    
C12   C35   1.482654 S    
C33   C42   1.487657 S    
N16   Ni3   1.839778 S    
C58   H38   1.112346 S    
H17   C30   1.082339 S    
C27   C28   1.406936 A    
C45   C46   1.400231 A    
C5    H5    1.080682 S    
C1    C9    1.382207 A    
C17   N13   1.342088 A    
N1    N8    1.372894 A    
N9    N15   1.377112 A    
C9    C60   1.459517 S    
C51   C52   1.401694 A    
C18   N14   1.340521 A    
C32   C33   1.412869 A    
C13   C21   1.382699 A    
C28   H20   1.083099 S    
C20   C22   1.394879 A    
N5    Ni2   1.854088 S    
C63   C64   1.399625 A    
C34   H23   1.079969 S    
C2    N2    1.327586 A    
C43   C44   1.402522 A    
C40   H27   1.082550 S    
C31   H22   1.081158 S    
C66   H43   1.112404 S    
N2    N7    1.372652 A    
C50   H33   1.111965 S    
N9    Ni1   1.854088 S    
C28   C29   1.398202 A    
C51   C56   1.377912 A    
C26   C27   1.406736 A    
C24   C63   1.458949 S    
C33   C34   1.397790 A    
C13   H9    1.075334 S    
C19   C21   1.392922 A    
N13   Ni2   1.853905 S    
C49   C50   1.505015 S    
C50   H32   1.112379 S    
C20   H16   1.077907 S    
C59   C64   1.377184 A    
C39   H26   1.081345 S    
C62   H40   1.081470 S    
N4    Ni4   1.839778 S    
C4    N4    1.341001 A    
C16   C24   1.374105 A    
C31   C32   1.399742 A    
C49   H31   1.111793 S    
C41   C42   1.407839 A    
N10   Ni2   1.845990 S    
C38   C39   1.395655 A    
C5    N5    1.341091 A    
C65   C66   1.504238 S    
C23   C47   1.459732 S    
C58   H39   1.111926 S    
C18   H14   1.080765 S    
C22   C32   1.476108 S    
C4    C12   1.391139 A    
C3    N3    1.326540 A    
C56   C57   1.497675 S    
C7    N7    1.340133 A    
C61   H46   1.081942 S    
C5    C11   1.384471 A    
C17   C24   1.385406 A    
C34   C35   1.405114 A    
C37   H24   1.083067 S    
C19   H15   1.079544 S    
N7    Ni4   1.849402 S    
C2    C10   1.382211 A    
C60   C61   1.408524 A    
C46   C47   1.408062 A    
N15   Ni4   1.849438 S    
C52   C53   1.407774 A    
N10   N16   1.377111 A    
C49   H45   1.112513 S    
C14   H10   1.075698 S    
C7    H7    1.079684 S    
N3    N5    1.377110 A    
C13   N9    1.327285 A    
C26   H19   1.083256 S    
C16   N12   1.325109 A    
C35   C36   1.418138 A    
C53   C54   1.400152 A    
N14   Ni1   1.846232 S    
C44   C45   1.407643 A    
C37   C38   1.397593 A    
C54   C55   1.407886 A    
C25   C30   1.397731 A    
C8    N8    1.340151 A    
C43   C48   1.378463 A    
C37   C42   1.408218 A    
C29   H21   1.082497 S    
C62   C63   1.407655 A    
C4    H4    1.079875 S    
C51   C58   1.500290 S    
N11   Ni3   1.849400 S    
C2    H2    1.075021 S    
C41   H28   1.082656 S    
C6    N6    1.331831 A    
C38   H25   1.082505 S    
N4    N6    1.377111 A    
C65   H41   1.112636 S    
C8    H8    1.079632 S    
C39   C40   1.397122 A    
C59   C66   1.501017 S    
C1    N1    1.328445 A    
N11   N14   1.372650 A    
C57   H37   1.111837 S    
C14   N10   1.335281 A    
C64   C65   1.497720 S    
