data_mof_unit_27079.cif
_audit_creation_date              2012-12-11T14:49:38-0500
_audit_creation_method            fapswitch 2.2
_symmetry_space_group_name_H-M    P1
_symmetry_Int_Tables_number       1
_space_group_crystal_system       triclinic
_cell_length_a                    16.87063
_cell_length_b                    7.065001
_cell_length_c                    16.855591
_cell_angle_alpha                 90.000317
_cell_angle_beta                  100.648778
_cell_angle_gamma                 89.998397
_cell_volume                      1974.43622527

loop_
_atom_site_label
_atom_site_type_symbol
_atom_type_description
_atom_site_fract_x
_atom_site_fract_y
_atom_site_fract_z
_atom_type_partial_charge
O1    O     O_R   0.579510 0.506290 0.439030 -0.518500
O2    O     O_R   0.420490 0.006290 0.560970 -0.518496
O3    O     O_R   0.412540 0.170090 0.405290 -0.531198
O4    O     O_R   0.587460 0.670090 0.594710 -0.531202
C1    C     C_R   0.383593 0.346016 0.383921 0.765475
C2    C     C_R   0.616408 0.846013 0.616078 0.765471
O5    O     O_R   0.578390 0.176230 0.429330 -0.553124
O6    O     O_R   0.421610 0.676230 0.570670 -0.553117
O7    O     O_R   0.587530 0.011250 0.585190 -0.524101
O8    O     O_R   0.412470 0.511250 0.414810 -0.524107
C3    C     C_R   0.604291 0.343364 0.413002 0.731512
C4    C     C_R   0.395709 0.843370 0.586998 0.731455
O9    O     O_3   0.502800 0.340940 0.551110 -0.373765
O10   O     O_3   0.497200 0.840940 0.448890 -0.373769
V1    V     V_3+5 0.499480 0.064020 0.490520 1.514086
V2    V     V_3+5 0.500520 0.564020 0.509480 1.514083
C5    C     C_R   0.166279 0.928219 0.860230 -0.067307
C6    C     C_R   0.833732 0.428243 0.139783 -0.067306
C7    C     C_R   0.334667 0.837918 0.640792 -0.066915
C8    C     C_R   0.665328 0.337898 0.359203 -0.066938
C9    C     C_R   0.239695 0.648320 0.701387 -0.196037
C10   C     C_R   0.760249 0.148259 0.298553 -0.196078
C11   C     C_R   0.291847 0.667946 0.646585 -0.181467
C12   C     C_R   0.708107 0.167884 0.353363 -0.181445
C13   C     C_R   0.322916 0.989809 0.691108 -0.220302
C14   C     C_R   0.677119 0.489827 0.308930 -0.220369
C15   C     C_R   0.271545 0.969196 0.747988 0.152440
C16   C     C_R   0.728481 0.469216 0.252042 0.152455
C17   C     C_R   0.229480 0.797111 0.753128 0.163997
C18   C     C_R   0.770496 0.297087 0.246848 0.164029
C19   C     C_R   0.177444 0.777060 0.809348 -0.238696
C20   C     C_R   0.822519 0.277032 0.190615 -0.238697
C21   C     C_R   0.210477 0.096700 0.855899 -0.159585
C22   C     C_R   0.789589 0.596784 0.144175 -0.159595
C23   C     C_R   0.262210 0.116975 0.800620 -0.204204
C24   C     C_R   0.737860 0.617049 0.199457 -0.204234
H1    H     H_    0.143982 0.646789 0.811665 0.123440
H2    H     H_    0.855933 0.146713 0.188249 0.123433
H3    H     H_    0.204270 0.215553 0.894901 0.123424
H4    H     H_    0.795835 0.715691 0.105219 0.123459
H5    H     H_    0.208091 0.515519 0.703882 0.125982
H6    H     H_    0.791828 0.015436 0.296028 0.125959
H7    H     H_    0.294424 0.249123 0.798680 0.117214
H8    H     H_    0.705684 0.749235 0.201438 0.117208
H9    H     H_    0.299141 0.547419 0.608929 0.144751
H10   H     H_    0.700787 0.047322 0.390988 0.144745
H11   H     H_    0.355792 0.120710 0.688200 0.124828
H12   H     H_    0.644284 0.620767 0.311880 0.124875
C25   C     C_3   0.738764 0.806998 0.837318 -0.395395
C26   C     C_3   0.261234 0.306968 0.162683 -0.395423
H13   H     H_    0.757917 0.661311 0.856536 0.166680
H14   H     H_    0.242079 0.161280 0.143471 0.166694
H15   H     H_    0.722214 0.871369 0.891924 0.142422
H16   H     H_    0.277783 0.371322 0.108074 0.142410
C27   C     C_3   0.664956 0.791401 0.765129 0.210822
C28   C     C_3   0.335042 0.291372 0.234871 0.210827
H17   H     H_    0.649297 0.638972 0.754574 0.074067
H18   H     H_    0.350698 0.138940 0.245432 0.074088
H19   H     H_    0.863569 0.647780 0.770196 0.201297
H20   H     H_    0.136425 0.147809 0.229816 0.201285
H21   H     H_    0.746841 0.588804 0.685874 0.165484
H22   H     H_    0.253155 0.088825 0.314136 0.165494
C29   C     C_3   0.837594 0.784083 0.744259 -0.471631
C30   C     C_3   0.162406 0.284110 0.255746 -0.471627
C31   C     C_3   0.786333 0.107246 0.773619 0.255507
C32   C     C_3   0.213673 0.607247 0.226369 0.255523
C33   C     C_3   0.812232 0.909796 0.812075 -0.068146
C34   C     C_3   0.187769 0.409792 0.187923 -0.068148
H23   H     H_    0.838609 0.154100 0.747250 0.105044
H24   H     H_    0.161399 0.654123 0.252737 0.105052
C35   C     C_3   0.689285 0.866854 0.685296 -0.152795
C36   C     C_3   0.310716 0.366858 0.314702 -0.152804
C37   C     C_3   0.763842 0.737935 0.675510 -0.184520
C38   C     C_3   0.236157 0.237963 0.324495 -0.184521
C39   C     C_3   0.713924 0.085623 0.701684 0.217222
C40   C     C_3   0.286082 0.585629 0.298303 0.217203
H25   H     H_    0.660467 0.149022 0.720467 0.144632
H26   H     H_    0.339541 0.649002 0.279518 0.144627
H27   H     H_    0.887157 0.855818 0.720929 0.167775
H28   H     H_    0.112845 0.355872 0.279073 0.167777
O11   O     O_R   0.087500 0.266000 0.085220 -0.545331
O12   O     O_R   0.912500 0.766000 0.914780 -0.545330
O13   O     O_R   0.921600 0.589950 0.070670 -0.546800
O14   O     O_R   0.078400 0.089950 0.929330 -0.546786
C41   C     C_R   0.895506 0.423321 0.086847 0.691382
C42   C     C_R   0.104497 0.923315 0.913157 0.691399
O15   O     O_R   0.087460 0.596020 0.094710 -0.509619
O16   O     O_R   0.912540 0.096020 0.905290 -0.509620
O17   O     O_R   0.079520 0.760970 0.939020 -0.536782
O18   O     O_R   0.920480 0.260970 0.060980 -0.536785
C43   C     C_R   0.116805 0.426444 0.116947 0.724742
C44   C     C_R   0.883195 0.926446 0.883052 0.724723
O19   O     O_3   0.997180 0.425140 0.948910 -0.368923
O20   O     O_3   0.002820 0.925140 0.051090 -0.368928
V3    V     V_3+5 0.000520 0.702080 0.009480 1.438475
V4    V     V_3+5 0.999480 0.202080 0.990520 1.438483
O21   O     O_3   0.780124 0.255696 0.830048 -0.548789
C45   C     C_3   0.707748 0.264798 0.861071 0.062074
H29   H     H_    0.670867 0.137094 0.852834 0.173084
H30   H     H_    0.669756 0.380531 0.830686 0.105976
C46   C     C_3   0.726922 0.306189 0.950953 -0.714413
H31   H     H_    0.761046 0.440596 0.962138 0.207956
H32   H     H_    0.670109 0.319705 0.974896 0.170884
H33   H     H_    0.763200 0.188763 0.983016 0.216468
O22   O     O_3   0.219881 0.755672 0.169929 -0.548785
C47   C     C_3   0.292264 0.764770 0.138918 0.062086
H34   H     H_    0.329136 0.637046 0.147147 0.173076
H35   H     H_    0.330258 0.880479 0.169319 0.105975
C48   C     C_3   0.273102 0.806207 0.049039 -0.714438
H36   H     H_    0.238983 0.940626 0.037862 0.207946
H37   H     H_    0.329919 0.819721 0.025105 0.170888
H38   H     H_    0.236822 0.688805 0.016961 0.216480
O23   O     O_3   0.722699 0.204070 0.634815 -0.556409
C49   C     C_3   0.777265 0.135288 0.587648 0.074225
H39   H     H_    0.743277 0.050291 0.537616 0.162370
H40   H     H_    0.828345 0.058714 0.623560 0.138468
C50   C     C_3   0.816225 0.294612 0.549227 -0.701639
H41   H     H_    0.852016 0.382787 0.597221 0.238485
H42   H     H_    0.857743 0.235376 0.511517 0.187703
H43   H     H_    0.769569 0.377674 0.509512 0.254581
O24   O     O_3   0.277307 0.704107 0.365163 -0.556415
C51   C     C_3   0.222751 0.635334 0.412341 0.074224
H44   H     H_    0.256749 0.550327 0.462364 0.162368
H45   H     H_    0.171662 0.558779 0.376436 0.138472
C52   C     C_3   0.183806 0.794660 0.450783 -0.701687
H46   H     H_    0.147986 0.882828 0.402806 0.238481
H47   H     H_    0.142322 0.735424 0.488523 0.187711
H48   H     H_    0.230474 0.877731 0.490472 0.254599
C53   C     C_2   0.785171 0.725258 0.592020 0.679248
O25   O     O_2   0.732159 0.699076 0.533020 -0.578647
O26   O     O_R   0.865522 0.738839 0.581867 -0.677792
H49   H     H_    0.871341 0.728252 0.523226 0.295121
C54   C     C_2   0.214828 0.225311 0.407985 0.679229
O27   O     O_2   0.267841 0.199140 0.466987 -0.578659
O28   O     O_R   0.134477 0.238900 0.418137 -0.677781
H50   H     H_    0.128657 0.228329 0.476778 0.295121
O29   O     O_3   0.596889 0.891148 0.781897 -0.576935
C55   C     C_3   0.551449 0.777546 0.826133 0.069988
H51   H     H_    0.590501 0.695923 0.874946 0.117582
H52   H     H_    0.513487 0.677284 0.784522 0.126142
C56   C     C_3   0.496725 0.904154 0.865268 -0.719965
H53   H     H_    0.458494 0.992202 0.818767 0.226723
H54   H     H_    0.457236 0.816148 0.896340 0.181192
H55   H     H_    0.533713 0.998803 0.910146 0.208855
O30   O     O_3   0.403112 0.391090 0.218098 -0.576925
C57   C     C_3   0.448534 0.277470 0.173848 0.069967
H56   H     H_    0.409470 0.195938 0.125017 0.117614
H57   H     H_    0.486470 0.177129 0.215442 0.126148
C58   C     C_3   0.503291 0.404043 0.134744 -0.720083
H58   H     H_    0.541577 0.491883 0.181268 0.226758
H59   H     H_    0.542718 0.316038 0.103609 0.181192
H60   H     H_    0.466336 0.498871 0.089932 0.208912

loop_
_geom_bond_atom_site_label_1
_geom_bond_atom_site_label_2
_ccdc_geom_bond_type
C32   C34   S    
O16   V4    S    
O4    V2    S    
C46   H31   S    
C11   H9    S    
O15   C43   A    
C15   C17   A    
O1    C3    A    
C36   C40   S    
O2    C4    A    
C2    O7    A    
C49   H39   S    
C58   H58   S    
O28   H50   S    
C29   H27   S    
O5    C3    A    
C26   H16   S    
C47   H35   S    
C22   H4    S    
C40   O24   S    
C30   C34   S    
O14   C42   A    
O23   C49   S    
C1    C36   S    
C56   H54   S    
C31   H23   S    
C31   C33   S    
C47   H34   S    
C38   C54   S    
O21   C45   S    
C34   C43   S    
O12   C44   A    
O14   V4    S    
C25   H13   S    
C28   O30   S    
C8    C12   A    
C28   C36   S    
O15   V3    S    
C10   H6    S    
C52   H48   S    
C26   H14   S    
C39   O23   S    
C20   H2    S    
C18   C20   A    
C23   H7    S    
C13   H11   S    
C57   H57   S    
C14   H12   S    
O6    V2    S    
O5    V1    S    
C32   C40   S    
O19   V3    S    
C50   H43   S    
C30   H28   S    
C58   H59   S    
C5    C21   A    
O30   C57   S    
C37   C53   S    
C2    C35   S    
C29   C33   S    
C3    C8    S    
C6    C41   S    
C5    C42   S    
O16   C44   A    
C36   C38   S    
C48   H38   S    
C35   C37   S    
O11   V4    S    
C50   H42   S    
C29   C37   S    
C15   C23   A    
C25   C27   S    
C9    C17   A    
C42   O17   A    
C26   C28   S    
C19   H1    S    
O17   V3    S    
C7    C11   A    
C27   H17   S    
C57   C58   S    
C39   H25   S    
O6    C4    A    
O13   V3    S    
O1    V2    S    
C21   H3    S    
O20   V4    S    
O2    V1    S    
C6    C22   A    
O24   C51   S    
C55   H52   S    
C9    H5    S    
O4    C2    A    
O13   C41   A    
O19   V4    S    
C45   H30   S    
C9    C11   A    
C54   O27   D    
C5    C19   A    
C10   C12   A    
C58   H60   S    
C6    C20   A    
C32   O22   S    
C51   H45   S    
O26   H49   S    
O3    V1    S    
C52   H47   S    
C57   H56   S    
O22   C47   S    
O12   V3    S    
C25   C33   S    
C14   C16   A    
C40   H26   S    
O3    C1    A    
C55   C56   S    
C31   C39   S    
C49   H40   S    
C41   O18   A    
O18   V4    S    
C56   H55   S    
C13   C15   A    
C45   C46   S    
O29   C55   S    
C32   H24   S    
H19   C29   S    
C27   O29   S    
H20   C30   S    
H21   C37   S    
C51   C52   S    
C48   H37   S    
C53   O25   D    
C12   H10   S    
C1    O8    A    
C17   C19   A    
C10   C18   A    
C50   H41   S    
C35   C39   S    
C52   H46   S    
C8    C14   A    
C25   H15   S    
C4    C7    S    
C16   C18   A    
C33   C44   S    
C21   C23   A    
C28   H18   S    
C22   C24   A    
O7    V1    S    
O20   V3    S    
C7    C13   A    
C49   C50   S    
C24   H8    S    
C55   H51   S    
C31   O21   S    
O11   C43   A    
C16   C24   A    
C46   H32   S    
C45   H29   S    
O9    V2    S    
C48   H36   S    
C54   O28   S    
C30   C38   S    
O10   V1    S    
H22   C38   S    
O8    V2    S    
C46   H33   S    
C51   H44   S    
C56   H53   S    
C26   C34   S    
C27   C35   S    
C53   O26   S    
C47   C48   S    
