data_mof_unit_43179.cif
_audit_creation_date              2012-12-11T14:46:32-0500
_audit_creation_method            fapswitch 2.2
_symmetry_space_group_name_H-M    P1
_symmetry_Int_Tables_number       1
_space_group_crystal_system       triclinic
_cell_length_a                    17.513961
_cell_length_b                    17.57891
_cell_length_c                    6.9411
_cell_angle_alpha                 89.361892
_cell_angle_beta                  90.837765
_cell_angle_gamma                 90.031419
_cell_volume                      2136.63938129

loop_
_atom_site_label
_atom_site_type_symbol
_atom_type_description
_atom_site_fract_x
_atom_site_fract_y
_atom_site_fract_z
_atom_type_partial_charge
O1    O     O_R   0.796490 0.328940 0.373020 -0.538185
O2    O     O_R   0.203510 0.671060 0.626980 -0.538186
O3    O     O_R   0.203510 0.828940 0.626980 -0.538406
O4    O     O_R   0.796490 0.171060 0.373020 -0.538406
O5    O     O_R   0.805560 0.173330 0.702970 -0.540270
O6    O     O_R   0.194440 0.826670 0.297030 -0.540269
O7    O     O_R   0.194440 0.673330 0.297030 -0.536961
O8    O     O_R   0.805560 0.326670 0.702970 -0.536961
O9    O     O_R   0.658440 0.172360 0.870170 -0.533244
O10   O     O_R   0.341560 0.827640 0.129830 -0.533245
O11   O     O_R   0.341560 0.672360 0.129830 -0.532145
O12   O     O_R   0.658440 0.327640 0.870170 -0.532145
C1    C     C_R   0.824171 0.146719 0.537052 0.738991
C2    C     C_R   0.175829 0.853280 0.462948 0.738990
C3    C     C_R   0.175632 0.647074 0.465438 0.735911
C4    C     C_R   0.824368 0.352925 0.534562 0.735911
O13   O     O_3   0.679200 0.250000 0.537050 -0.367051
O14   O     O_3   0.320800 0.750000 0.462950 -0.367051
V1    V     V_3+5 0.736420 0.250000 0.813120 1.427555
V2    V     V_3+5 0.263580 0.750000 0.186880 1.427555
O15   O     O_R   0.649370 0.327980 0.199650 -0.536531
O16   O     O_R   0.350630 0.672020 0.800350 -0.536531
O17   O     O_R   0.350630 0.827980 0.800350 -0.535506
O18   O     O_R   0.649370 0.172020 0.199650 -0.535506
C5    C     C_R   0.630610 0.354408 0.029063 0.723734
C6    C     C_R   0.369389 0.645592 0.970937 0.723735
C7    C     C_R   0.369430 0.854427 0.969758 0.719138
C8    C     C_R   0.630570 0.145573 0.030241 0.719137
V3    V     V_3+5 0.718510 0.250000 0.312740 1.432688
V4    V     V_3+5 0.281490 0.750000 0.687260 1.432688
O19   O     O_3   0.775740 0.250000 0.038930 -0.367052
O20   O     O_3   0.224260 0.750000 0.961070 -0.367053
C9    C     C_1   0.574125 0.083153 0.018383 -0.186429
C10   C     C_1   0.425875 0.916847 0.981617 -0.186428
C11   C     C_1   0.425793 0.583171 0.984319 -0.189435
C12   C     C_1   0.574207 0.416829 0.015681 -0.189435
C13   C     C_1   0.527473 0.030893 0.006999 0.017813
C14   C     C_1   0.472527 0.969107 0.993000 0.017813
C15   C     C_1   0.472489 0.530898 0.994315 0.019187
C16   C     C_1   0.527511 0.469102 0.005685 0.019187
C17   C     C_R   0.882351 0.085396 0.538556 -0.159535
C18   C     C_R   0.117649 0.914604 0.461444 -0.159535
C19   C     C_R   0.119802 0.584046 0.477332 -0.148455
C20   C     C_R   0.880198 0.415954 0.522667 -0.148455
C21   C     C_R   0.073257 0.035675 0.328120 0.657522
C22   C     C_R   0.926743 0.964325 0.671880 0.657522
C23   C     C_R   0.910063 0.542121 0.397465 0.649008
C24   C     C_R   0.089937 0.457879 0.602536 0.649008
C25   C     C_R   0.129717 0.979617 0.344770 0.007917
C26   C     C_R   0.870283 0.020383 0.655230 0.007917
C27   C     C_R   0.856649 0.485128 0.436269 -0.002247
C28   C     C_R   0.143351 0.514872 0.563731 -0.002246
C29   C     C_R   0.048831 0.906884 0.565470 0.069066
C30   C     C_R   0.951169 0.093116 0.434530 0.069066
C31   C     C_R   0.957775 0.405419 0.579062 0.056048
C32   C     C_R   0.042225 0.594581 0.420938 0.056048
C33   C     C_R   0.993977 0.967495 0.560598 -0.106919
C34   C     C_R   0.006023 0.032505 0.439402 -0.106919
C35   C     C_R   0.011971 0.465474 0.546813 -0.115562
C36   C     C_R   0.988029 0.534526 0.453187 -0.115562
F1    F     F_    0.084245 0.091695 0.195190 -0.701711
F2    F     F_    0.915755 0.908304 0.804809 -0.701711
F3    F     F_    0.883439 0.604745 0.302014 -0.696931
F4    F     F_    0.116561 0.395255 0.697987 -0.696931
C37   C     C_3   0.967896 0.167609 0.329384 -0.577866
H1    H     H_    0.964482 0.159105 0.171239 0.245919
H2    H     H_    0.928724 0.214661 0.363446 0.149595
H3    H     H_    0.025175 0.188933 0.372915 0.233543
C38   C     C_3   0.032104 0.832391 0.670616 -0.577866
H4    H     H_    0.035518 0.840895 0.828761 0.245919
H5    H     H_    0.974825 0.811067 0.627085 0.233543
H6    H     H_    0.071276 0.785339 0.636554 0.149595
C39   C     C_3   0.017143 0.670580 0.333877 -0.585865
H7    H     H_    0.971276 0.695435 0.421958 0.237006
H8    H     H_    0.062058 0.714606 0.328448 0.151583
H9    H     H_    0.997214 0.662511 0.182930 0.249828
C40   C     C_3   0.982856 0.329420 0.666122 -0.585865
H10   H     H_    0.028724 0.304565 0.578042 0.237006
H11   H     H_    0.002786 0.337489 0.817070 0.249828
H12   H     H_    0.937942 0.285394 0.671551 0.151584
C41   C     C_3   0.796633 0.010122 0.764982 -0.640088
H13   H     H_    0.746745 0.021582 0.668386 0.168584
H14   H     H_    0.789388 0.951412 0.822123 0.252804
H15   H     H_    0.795556 0.049405 0.888985 0.202866
C42   C     C_3   0.203367 0.989878 0.235018 -0.640088
H16   H     H_    0.253255 0.978418 0.331614 0.168584
H17   H     H_    0.204444 0.950595 0.111015 0.202865
H18   H     H_    0.210612 0.048588 0.177877 0.252804
C43   C     C_3   0.226065 0.499038 0.618383 -0.624389
H19   H     H_    0.266671 0.541579 0.560522 0.167161
H20   H     H_    0.232477 0.497040 0.777766 0.216121
H21   H     H_    0.243585 0.443303 0.559526 0.231193
C44   C     C_3   0.773935 0.500962 0.381617 -0.624389
H22   H     H_    0.733329 0.458421 0.439477 0.167161
H23   H     H_    0.756415 0.556697 0.440476 0.231192
H24   H     H_    0.767523 0.502960 0.222235 0.216121

loop_
_geom_bond_atom_site_label_1
_geom_bond_atom_site_label_2
_ccdc_geom_bond_type
O10   C7    A    
C44   H22   S    
C31   C35   A    
C38   H6    S    
O13   V3    S    
C39   H7    S    
V1    O19   S    
C1    C17   S    
C41   H13   S    
C30   C37   S    
C40   H10   S    
C22   F2    S    
C18   C29   A    
C23   F3    S    
C31   C40   S    
C19   C28   A    
C24   F4    S    
O4    C1    A    
C38   H5    S    
O18   V3    S    
C23   C36   A    
O9    V1    S    
O10   V2    S    
C37   H2    S    
O14   V4    S    
O17   C7    A    
C43   H20   S    
C4    C20   S    
O5    C1    A    
O4    V3    S    
C2    C18   S    
O7    C3    A    
C29   C38   S    
C35   C36   A    
C44   H23   S    
C39   H8    S    
C28   C43   S    
C41   H14   S    
C40   H11   S    
C7    C10   S    
O11   V2    S    
C21   C34   A    
O8    V1    S    
C42   H17   S    
O17   V4    S    
C25   C42   S    
C12   C16   T    
C15   C16   S    
C29   C33   A    
C23   C27   A    
C5    C12   S    
O11   C6    A    
C42   H16   S    
O15   V3    S    
C9    C13   T    
C32   C36   A    
O3    V4    S    
C11   C15   T    
C13   C14   S    
O6    C2    A    
C19   C32   A    
C21   C25   A    
C37   H3    S    
O1    V3    S    
O1    C4    A    
C43   H21   S    
O2    C3    A    
O3    C2    A    
C27   C44   S    
C20   C27   A    
C8    C9    S    
C37   H1    S    
C44   H24   S    
C22   C33   A    
C30   C34   A    
C39   H9    S    
C17   C26   A    
C41   H15   S    
C24   C35   A    
V2    O20   S    
C42   H18   S    
O15   C5    A    
C32   C39   S    
O16   V4    S    
C10   C14   T    
O18   C8    A    
O5    V1    S    
O6    V2    S    
C22   C26   A    
O12   C5    A    
O2    V4    S    
C3    C19   S    
V3    O19   S    
V4    O20   S    
C40   H12   S    
C20   C31   A    
C33   C34   A    
O12   V1    S    
C21   F1    S    
O13   V1    S    
O14   V2    S    
C38   H4    S    
C17   C30   A    
C18   C25   A    
C6    C11   S    
C24   C28   A    
O9    C8    A    
O8    C4    A    
O7    V2    S    
O16   C6    A    
C43   H19   S    
C26   C41   S    
