data_mof_unit_31099.cif
_audit_creation_date              2013-03-05T16:17:52-0500
_audit_creation_method            fapswitch 2.2
_symmetry_space_group_name_H-M    P1
_symmetry_Int_Tables_number       1
_space_group_crystal_system       triclinic
_cell_length_a                    15.528114
_cell_length_b                    14.928689
_cell_length_c                    9.874593
_cell_angle_alpha                 91.329069
_cell_angle_beta                  89.629342
_cell_angle_gamma                 89.889624
_cell_volume                      2288.40404858

loop_
_atom_site_label
_atom_site_type_symbol
_atom_site_description
_atom_site_fract_x
_atom_site_fract_y
_atom_site_fract_z
_atom_type_partial_charge
O1    O     O_R   0.092530 0.407440 0.616040 -0.620924
O2    O     O_R   0.092530 0.407440 0.383960 -0.610127
O3    O     O_R   0.092530 0.592560 0.383960 -0.627094
O4    O     O_R   0.092530 0.592560 0.616040 -0.623505
O5    O     O_R   0.592530 0.907440 0.616040 -0.632436
O6    O     O_R   0.592530 0.907440 0.383960 -0.625981
O7    O     O_R   0.592530 0.092560 0.383960 -0.625394
O8    O     O_R   0.592530 0.092560 0.616040 -0.608941
C1    C     C_R   0.121435 0.379881 0.498524 0.878845
C2    C     C_R   0.120809 0.620577 0.501209 0.904423
C3    C     C_R   0.619995 0.878358 0.498972 0.873197
C4    C     C_R   0.622001 0.119031 0.499523 0.883220
O9    O     O_R   0.907330 0.407420 0.616040 -0.600685
O10   O     O_R   0.907330 0.407420 0.383960 -0.555346
O11   O     O_R   0.907330 0.592580 0.383960 -0.607253
O12   O     O_R   0.907330 0.592580 0.616040 -0.577991
O13   O     O_R   0.407330 0.907420 0.616040 -0.595274
O14   O     O_R   0.407330 0.907420 0.383960 -0.563331
O15   O     O_R   0.407330 0.092580 0.383960 -0.598383
O16   O     O_R   0.407330 0.092580 0.616040 -0.564703
C5    C     C_R   0.881335 0.375628 0.498870 0.868710
C6    C     C_R   0.879660 0.622246 0.500722 0.897958
C7    C     C_R   0.381241 0.875863 0.499802 0.945555
C8    C     C_R   0.380854 0.123457 0.500283 0.955059
Zn1   Zn    Zn3+2 0.999890 0.500000 0.654960 1.017535
Zn2   Zn    Zn3+2 0.999890 0.500000 0.345040 1.031267
Zn3   Zn    Zn3+2 0.499890 0.000000 0.654960 1.035125
Zn4   Zn    Zn3+2 0.499890 1.000000 0.345040 1.029053
C9    C     C_3   0.838953 0.221332 0.584649 0.137947
C10   C     C_3   0.800315 0.262944 0.348233 0.141075
C11   C     C_3   0.756278 0.682902 0.366682 0.104377
C12   C     C_3   0.850135 0.788559 0.502089 0.125093
C13   C     C_3   0.267918 0.803380 0.646554 0.111304
C14   C     C_3   0.350074 0.708821 0.475046 0.109369
C15   C     C_3   0.270228 0.197310 0.351805 0.114357
C16   C     C_3   0.350100 0.289456 0.527694 0.111064
H1    H     H_    0.899052 0.191875 0.539868 0.099086
H2    H     H_    0.859846 0.224553 0.321293 0.147286
H3    H     H_    0.800122 0.697636 0.280564 0.175343
H4    H     H_    0.887386 0.795858 0.406027 0.151409
H5    H     H_    0.316133 0.776166 0.717636 0.174233
H6    H     H_    0.398280 0.695737 0.555505 0.133629
H7    H     H_    0.320008 0.223562 0.281374 0.167939
H8    H     H_    0.398723 0.303413 0.447307 0.133926
C17   C     C_3   0.191983 0.738105 0.641777 -0.366228
C18   C     C_3   0.277576 0.638220 0.487204 -0.459934
C19   C     C_3   0.195256 0.264225 0.356661 -0.364511
C20   C     C_3   0.278112 0.360894 0.518409 -0.456710
C21   C     C_3   0.768027 0.149252 0.577821 -0.427580
C22   C     C_3   0.725342 0.196633 0.349792 -0.406393
C23   C     C_3   0.685541 0.754326 0.366259 -0.356981
C24   C     C_3   0.776732 0.859236 0.502566 -0.466857
H9    H     H_    0.198813 0.691068 0.726944 0.202856
H10   H     H_    0.289920 0.595717 0.576310 0.164300
H11   H     H_    0.205976 0.313260 0.275208 0.215653
H12   H     H_    0.292293 0.406291 0.433180 0.165698
H13   H     H_    0.794322 0.086616 0.529758 0.148303
H14   H     H_    0.746625 0.131461 0.303323 0.169011
H15   H     H_    0.696068 0.797590 0.277388 0.203934
H16   H     H_    0.784350 0.902601 0.412981 0.160006
H17   H     H_    0.130538 0.774697 0.656222 0.287840
H18   H     H_    0.275934 0.591379 0.397851 0.215429
H19   H     H_    0.132746 0.229538 0.338950 0.249418
H20   H     H_    0.274796 0.404309 0.611583 0.215220
H21   H     H_    0.745652 0.130910 0.681020 0.241403
H22   H     H_    0.672436 0.221997 0.286735 0.276746
H23   H     H_    0.620974 0.723499 0.356009 0.277474
H24   H     H_    0.778746 0.905192 0.592714 0.221839
H25   H     H_    0.734581 0.380955 0.648183 0.228155
H26   H     H_    0.705184 0.400379 0.482933 0.258718
H27   H     H_    0.726509 0.612302 0.634194 0.215700
H28   H     H_    0.788700 0.693156 0.720982 0.253267
H29   H     H_    0.209237 0.890180 0.422062 0.267612
H30   H     H_    0.272097 0.836143 0.292767 0.250679
H31   H     H_    0.206571 0.108842 0.568862 0.265838
H32   H     H_    0.267154 0.158019 0.703157 0.250003
H33   H     H_    0.111107 0.783594 0.398048 0.241747
H34   H     H_    0.181002 0.717959 0.288563 0.246766
H35   H     H_    0.109760 0.216083 0.596424 0.218081
H36   H     H_    0.181408 0.279505 0.708346 0.265332
H37   H     H_    0.637195 0.267042 0.661308 0.274421
H38   H     H_    0.600900 0.296173 0.496212 0.217792
H39   H     H_    0.616481 0.711898 0.611861 0.237546
H40   H     H_    0.677816 0.788505 0.717476 0.227802
C25   C     C_3   0.727599 0.346478 0.548317 -0.327114
C26   C     C_3   0.751998 0.681352 0.626209 -0.338163
C27   C     C_3   0.243297 0.827386 0.394949 -0.295278
C28   C     C_3   0.241040 0.170176 0.600646 -0.302483
C29   C     C_3   0.813614 0.304931 0.495978 -0.138328
C30   C     C_3   0.811033 0.691162 0.500702 -0.137010
C31   C     C_3   0.312511 0.806420 0.501983 -0.146930
C32   C     C_3   0.312418 0.192608 0.497390 -0.145586
C33   C     C_3   0.190336 0.686398 0.504415 -0.027561
C34   C     C_3   0.191212 0.313792 0.495251 -0.043176
C35   C     C_3   0.692001 0.183965 0.496171 -0.025109
C36   C     C_3   0.688888 0.811388 0.497585 -0.028057
C37   C     C_3   0.176368 0.753165 0.388925 -0.322869
C38   C     C_3   0.175278 0.245388 0.607661 -0.317871
C39   C     C_3   0.658002 0.274370 0.554709 -0.290034
C40   C     C_3   0.678358 0.748919 0.620631 -0.288225
C41   C     C_3   0.057760 0.429159 0.075053 0.104885
C42   C     C_3   0.045342 0.420652 0.915176 0.098028
C43   C     C_3   0.044318 0.580505 0.924507 0.099240
C44   C     C_3   0.032709 0.586279 0.085379 0.126601
C45   C     C_3   0.547654 0.921544 0.073658 0.090818
C46   C     C_3   0.534086 0.914365 0.913703 0.131854
C47   C     C_3   0.556022 0.071996 0.925901 0.093539
C48   C     C_3   0.541879 0.081665 0.085790 0.117357
H41   H     H_    0.125689 0.450676 0.092260 0.050645
H42   H     H_    0.110918 0.418070 0.868836 0.114214
H43   H     H_    0.114708 0.571561 0.904483 0.051988
H44   H     H_    0.098460 0.596731 0.127376 0.105712
H45   H     H_    0.617775 0.933575 0.090462 0.048665
H46   H     H_    0.599396 0.904096 0.868718 0.102377
H47   H     H_    0.624471 0.051140 0.909397 0.057720
H48   H     H_    0.607199 0.086102 0.131217 0.109454
H49   H     H_    0.887940 0.420293 0.105041 0.271478
H50   H     H_    0.871279 0.444398 0.873004 0.237875
H51   H     H_    0.873063 0.558982 0.897864 0.230565
H52   H     H_    0.864261 0.531843 0.131370 0.242739
H53   H     H_    0.375227 0.937083 0.103724 0.245428
H54   H     H_    0.364634 0.966374 0.870841 0.243275
H55   H     H_    0.384633 0.078734 0.897489 0.245775
H56   H     H_    0.369682 0.051207 0.130269 0.239408
C49   C     C_3   0.911474 0.486897 0.080357 -0.203024
C50   C     C_3   0.910053 0.498235 0.921599 -0.266016
C51   C     C_3   0.410044 0.999197 0.079969 -0.225867
C52   C     C_3   0.410892 0.012081 0.921231 -0.235394
N1    N     N_3   0.998760 0.500000 0.138610 -0.190909
N2    N     N_3   0.998760 0.500000 0.861390 -0.184499
N3    N     N_3   0.498760 1.000000 0.138610 -0.189428
N4    N     N_3   0.498760 0.000000 0.861390 -0.187706
N5    N     N_R   0.855679 0.239117 0.727752 0.266941
O17   O     O_R   0.897420 0.176367 0.789431 -0.257887
O18   O     O_R   0.800942 0.286549 0.799415 -0.318425
N6    N     N_R   0.785641 0.324835 0.237543 0.231813
O19   O     O_R   0.789316 0.292387 0.114160 -0.272850
O20   O     O_R   0.745336 0.400053 0.258253 -0.325145
N7    N     N_R   0.718327 0.594691 0.338745 0.243654
O21   O     O_R   0.710968 0.569494 0.212366 -0.276263
O22   O     O_R   0.666684 0.559101 0.426497 -0.379696
N8    N     N_R   0.909008 0.806799 0.614754 0.257029
O23   O     O_R   0.989642 0.821303 0.587657 -0.386521
O24   O     O_R   0.879362 0.830929 0.733830 -0.296956
N9    N     N_R   0.238506 0.889542 0.705384 0.238176
O25   O     O_R   0.210347 0.892868 0.829829 -0.287965
O26   O     O_R   0.238656 0.962441 0.636606 -0.416188
N10   N     N_R   0.392882 0.695870 0.343722 0.262716
O27   O     O_R   0.471857 0.666761 0.340807 -0.315379
O28   O     O_R   0.347554 0.689163 0.233347 -0.316177
N11   N     N_R   0.239844 0.112087 0.291620 0.222484
O29   O     O_R   0.211300 0.110605 0.167953 -0.297791
O30   O     O_R   0.241911 0.037711 0.356793 -0.421886
N12   N     N_R   0.392619 0.299944 0.658856 0.259647
O31   O     O_R   0.468302 0.337136 0.663045 -0.339344
O32   O     O_R   0.348291 0.295297 0.770873 -0.318722
N13   N     N_R   0.053249 0.340356 0.135965 0.254325
O33   O     O_R   0.105913 0.278419 0.090898 -0.333823
O34   O     O_R   0.988901 0.316255 0.210881 -0.353437
N14   N     N_R   0.001271 0.336911 0.877133 0.280290
O35   O     O_R   0.037803 0.281052 0.792745 -0.366027
O36   O     O_R   0.938249 0.307541 0.950717 -0.248962
N15   N     N_R   0.023200 0.666231 0.863656 0.274152
O37   O     O_R   0.073680 0.733917 0.889011 -0.317679
O38   O     O_R   0.945668 0.683325 0.824751 -0.293163
N16   N     N_R   0.980920 0.664165 0.132689 0.269755
O39   O     O_R   0.016011 0.725129 0.210242 -0.387215
O40   O     O_R   0.904480 0.679872 0.085619 -0.371708
N17   N     N_R   0.531070 0.835525 0.135314 0.265374
O41   O     O_R   0.582170 0.768811 0.104666 -0.336843
O42   O     O_R   0.455062 0.817401 0.180119 -0.276790
N18   N     N_R   0.482091 0.836074 0.870049 0.267952
O43   O     O_R   0.515351 0.776255 0.787639 -0.402862
O44   O     O_R   0.407031 0.819488 0.922914 -0.350589
N19   N     N_R   0.550954 0.159353 0.864043 0.263991
O45   O     O_R   0.607947 0.219893 0.896141 -0.308360
O46   O     O_R   0.483432 0.182938 0.798339 -0.276451
N20   N     N_R   0.495167 0.164825 0.127602 0.262119
O47   O     O_R   0.526088 0.217136 0.222119 -0.380146
O48   O     O_R   0.427138 0.192128 0.064201 -0.341589

loop_
_geom_bond_atom_site_label_1
_geom_bond_atom_site_label_2
_geom_bond_distance
_ccdc_geom_bond_type
C3    C36   1.462613 S    
C9    N5    1.456833 S    
O14   Zn4   2.036866 S    
C41   C42   1.593864 S    
N5    O17   1.303011 A    
C27   C31   1.548840 S    
C13   C17   1.531403 S    
N17   O41   1.301149 A    
H35   C38   1.113402 S    
N15   O37   1.300766 A    
C14   H6    1.115364 S    
C17   C33   1.545399 S    
C9    C29   1.591324 S    
N20   O47   1.298042 A    
C16   N12   1.462854 S    
N19   O46   1.289268 A    
C9    C21   1.541943 S    
C46   N4    1.494560 S    
O13   C7    1.298144 A    
C45   N17   1.456564 S    
C46   H46   1.113421 S    
O10   C5    1.302115 A    
C45   H45   1.116719 S    
N15   O38   1.292866 A    
N10   O28   1.303260 A    
H53   C51   1.103424 S    
C13   C31   1.584258 S    
C19   H19   1.113937 S    
C35   C39   1.546447 S    
C22   C35   1.548044 S    
C20   H20   1.113919 S    
C34   C38   1.544707 S    
C41   H41   1.116129 S    
C8    C32   1.481000 S    
C21   H13   1.114340 S    
C10   H2    1.114223 S    
C43   H43   1.116703 S    
H38   C39   1.113570 S    
C14   C31   1.584488 S    
H29   C27   1.102171 S    
C48   N3    1.494928 S    
C24   H16   1.114066 S    
O5    Zn3   2.021629 S    
C14   N10   1.462042 S    
O11   C6    1.295869 A    
O6    Zn4   2.037293 S    
O16   C8    1.310676 A    
C47   C48   1.595819 S    
C4    C35   1.458547 S    
H33   C37   1.112000 S    
C14   C18   1.549630 S    
H30   C27   1.111620 S    
C15   H7    1.114293 S    
H32   C28   1.111561 S    
N12   O32   1.302313 A    
C24   H24   1.111835 S    
C23   C36   1.536173 S    
C15   C32   1.586658 S    
C16   C32   1.583589 S    
N11   O30   1.296665 A    
C49   C50   1.580974 S    
C10   C22   1.529856 S    
N11   O29   1.301536 A    
C41   N13   1.470031 S    
N13   O34   1.295865 A    
O1    Zn1   2.021629 S    
Zn3   N4    2.038375 S    
N17   O42   1.289171 A    
O9    Zn1   2.028259 S    
C15   N11   1.471491 S    
C10   C29   1.589327 S    
Zn1   N2    2.038375 S    
C52   N4    1.492325 S    
N9    O26   1.296114 A    
N18   O44   1.300600 A    
N9    O25   1.301478 A    
C16   C20   1.548094 S    
O7    C4    1.286204 A    
C12   C30   1.576566 S    
O9    C5    1.306969 A    
O14   C7    1.309310 A    
O13   Zn3   2.028259 S    
C12   C24   1.551623 S    
N16   O40   1.300394 A    
O1    C1    1.299122 A    
N10   O27   1.300180 A    
C45   N3    1.521523 S    
C26   C30   1.546609 S    
C42   N14   1.468727 S    
O6    C3    1.299468 A    
C44   H44   1.114372 S    
C25   C29   1.552029 S    
H52   C49   1.104123 S    
C47   N4    1.526718 S    
O11   Zn2   2.020948 S    
C5    C29   1.491245 S    
H37   C39   1.107001 S    
C2    C33   1.461236 S    
C44   N16   1.477590 S    
C21   C35   1.530226 S    
O7    Zn4   2.028942 S    
N13   O33   1.301949 A    
C22   H14   1.114665 S    
C25   C39   1.528878 S    
H27   C26   1.109248 S    
N20   O48   1.301040 A    
N19   O45   1.301508 A    
O8    C4    1.305511 A    
C11   C30   1.580154 S    
C18   H10   1.114076 S    
H34   C37   1.112803 S    
C6    C30   1.479822 S    
C46   N18   1.479359 S    
C48   N20   1.485501 S    
O2    Zn2   2.037293 S    
C28   C32   1.543651 S    
O4    Zn1   2.037540 S    
O10   Zn2   2.036866 S    
O15   Zn4   2.020948 S    
C22   H22   1.105606 S    
C47   H47   1.116843 S    
N12   O31   1.301228 A    
Zn2   N1    2.038602 S    
C21   H21   1.114848 S    
H56   C51   1.103890 S    
N6    O20   1.295925 A    
C18   H18   1.113487 S    
C20   C34   1.538769 S    
C10   N6    1.466128 S    
H39   C40   1.112221 S    
N16   O39   1.298714 A    
N8    O24   1.302671 A    
C42   H42   1.113882 S    
C23   H15   1.113039 S    
O4    C2    1.292203 A    
C51   C52   1.583628 S    
C33   C37   1.547962 S    
H25   C25   1.107783 S    
N18   O43   1.298273 A    
C19   H11   1.112000 S    
O12   Zn1   2.036616 S    
C20   H12   1.113875 S    
O12   C6    1.306302 A    
H36   C38   1.111250 S    
C12   N8    1.465489 S    
O3    Zn2   2.028942 S    
C42   N2    1.496438 S    
H26   C25   1.100647 S    
C11   C23   1.529431 S    
N6    O19   1.301508 A    
H40   C40   1.112426 S    
H28   C26   1.109632 S    
N7    O21   1.300817 A    
O5    C3    1.294733 A    
O16   Zn3   2.036616 S    
C45   C46   1.595999 S    
C43   N15   1.463909 S    
C44   N1    1.497887 S    
Zn4   N3    2.038602 S    
C13   H5    1.112256 S    
N14   O35   1.292829 A    
C48   H48   1.113176 S    
O15   C8    1.292085 A    
O3    C2    1.301173 A    
C26   C40   1.525448 S    
N7    O22   1.300088 A    
H55   C52   1.105357 S    
C23   H23   1.108242 S    
C18   C33   1.539132 S    
C47   N19   1.455069 S    
C36   C40   1.556702 S    
C17   H17   1.105326 S    
C19   C34   1.541445 S    
C11   H3    1.112110 S    
C24   C36   1.541513 S    
C7    C31   1.489699 S    
C12   H4    1.115434 S    
H54   C52   1.104490 S    
C43   N2    1.519063 S    
C51   N3    1.497756 S    
C16   H8    1.115405 S    
C17   H9    1.113489 S    
H51   C50   1.103110 S    
C49   N1    1.487316 S    
H31   C28   1.101863 S    
C9    H1    1.115296 S    
C43   C44   1.597892 S    
N5    O18   1.300480 A    
O8    Zn3   2.037540 S    
C50   N2    1.497262 S    
N8    O23   1.298306 A    
H50   C50   1.107462 S    
C15   C19   1.532345 S    
O2    C1    1.295361 A    
H49   C49   1.092288 S    
C1    C34   1.463695 S    
C28   C38   1.516368 S    
C13   N9    1.469762 S    
C11   N7    1.464856 S    
N14   O36   1.298119 A    
C27   C37   1.521036 S    
C41   N1    1.519778 S    
