data_mof_unit_46781.cif
_audit_creation_date              2012-12-10T18:47:46-0500
_audit_creation_method            fapswitch 2.2
_symmetry_space_group_name_H-M    P1
_symmetry_Int_Tables_number       1
_space_group_crystal_system       triclinic
_cell_length_a                    9.99233
_cell_length_b                    10.691022
_cell_length_c                    15.173658
_cell_angle_alpha                 91.036997
_cell_angle_beta                  68.28823
_cell_angle_gamma                 89.78672
_cell_volume                      1505.63605183

loop_
_atom_site_label
_atom_site_type_symbol
_atom_type_description
_atom_site_fract_x
_atom_site_fract_y
_atom_site_fract_z
_atom_type_partial_charge
C1    C     C_R   0.499347 0.739592 0.501450 0.903192
C2    C     C_R   0.423583 0.932882 0.453972 -0.381537
C3    C     C_R   0.502130 0.127865 0.496079 -0.107482
C4    C     C_R   0.500136 0.872391 0.501549 -0.100307
C5    C     C_R   0.956251 0.405977 0.454980 0.050124
C6    C     C_R   0.043662 0.593863 0.545282 0.065258
C7    C     C_R   0.098004 0.406312 0.456163 -0.151458
C8    C     C_R   0.901900 0.593561 0.544044 -0.131403
C9    C     C_R   0.409895 0.504702 0.676168 0.870453
C10   C     C_R   0.589892 0.500808 0.323923 0.854201
C11   C     C_R   0.354880 0.525143 0.778675 -0.179375
C12   C     C_R   0.501201 0.260526 0.497781 0.944980
C13   C     C_R   0.643052 0.504434 0.221029 -0.114438
C14   C     C_R   0.202092 0.458748 0.936418 0.017513
C15   C     C_R   0.755578 0.390012 0.071688 -0.063396
C16   C     C_R   0.245524 0.449556 0.836978 -0.211041
C17   C     C_R   0.729956 0.405867 0.168391 -0.247133
C18   C     C_R   0.429941 0.603881 0.819208 0.370441
C19   C     C_R   0.574897 0.585447 0.178177 0.394684
C20   C     C_R   0.403637 0.593549 0.915685 0.063404
C21   C     C_R   0.589085 0.561016 0.084202 0.055046
C22   C     C_R   0.269676 0.548022 0.975994 0.015786
C23   C     C_R   0.335114 0.600717 0.110244 -0.233279
C24   C     C_R   0.701758 0.481424 0.026158 0.004439
C25   C     C_R   0.516373 0.593437 0.950299 0.050535
C26   C     C_R   0.481786 0.595448 0.049412 0.107414
C27   C     C_2   0.075279 0.579078 0.139523 0.392175
C28   C     C_2   0.886303 0.442442 0.859985 0.542783
C29   C     C_2   0.123080 0.352291 0.993374 0.369858
C30   C     C_2   0.801048 0.262688 0.030637 0.432104
C31   C     C_2   0.922148 0.301053 0.403064 0.422719
C32   C     C_2   0.077567 0.698415 0.597715 0.486885
C33   C     C_R   0.656431 0.556691 0.889957 -0.144546
C34   C     C_R   0.227952 0.573402 0.074259 -0.070259
C35   C     C_R   0.746025 0.492295 0.926455 -0.034991
C36   C     C_R   0.579716 0.938481 0.546068 0.474231
C37   C     C_R   0.424929 0.061958 0.449918 0.479784
C38   C     C_R   0.579459 0.067410 0.543007 -0.371683
H1    H     H_    0.766156 0.334720 0.204770 0.184726
H2    H     H_    0.959862 0.399435 0.887288 0.086927
H3    H     H_    0.521264 0.710983 0.280772 0.326602
H4    H     H_    0.509893 0.710805 0.710727 0.371633
H5    H     H_    0.076727 0.357655 0.070034 0.089447
H6    H     H_    0.853806 0.200343 0.063663 0.118372
H7    H     H_    0.703720 0.937346 0.619829 0.343787
H8    H     H_    0.306738 0.063640 0.372383 0.333673
H9    H     H_    0.959020 0.207304 0.409658 0.043744
H10   H     H_    0.040370 0.792196 0.591558 0.023547
H11   H     H_    0.202194 0.377604 0.804232 0.204276
H12   H     H_    0.303149 0.606810 0.186492 0.193248
H13   H     H_    0.687976 0.557876 0.813757 0.231931
H14   H     H_    0.637496 0.120694 0.578636 0.174309
H15   H     H_    0.365541 0.879542 0.418386 0.173247
H16   H     H_    0.173442 0.332037 0.420251 0.178061
H17   H     H_    0.826326 0.667625 0.580208 0.190144
H18   H     H_    0.047671 0.575396 0.215682 0.083822
N1    N     N_R   0.142780 0.500030 0.500020 -0.082055
N2    N     N_R   0.857220 0.499970 0.499980 -0.085353
O1    O     O_R   0.385370 0.683250 0.500010 -0.619889
O2    O     O_2   0.921502 0.449404 0.774092 -0.564733
O3    O     O_3   0.495247 0.689037 0.225486 -0.774370
O4    O     O_3   0.531466 0.688386 0.767102 -0.741527
O5    O     O_2   0.116972 0.252440 0.954688 -0.569873
O6    O     O_2   0.771337 0.222469 0.964351 -0.536615
O7    O     O_3   0.653945 0.875990 0.593120 -0.770892
O8    O     O_3   0.355334 0.124879 0.400045 -0.772366
O9    O     O_2   0.863334 0.318481 0.346939 -0.566647
O10   O     O_2   0.136481 0.680641 0.653782 -0.505430
O11   O     O_R   0.614630 0.316750 0.499990 -0.608751
O12   O     O_R   0.614700 0.683220 0.500000 -0.583446
O13   O     O_R   0.385300 0.316780 0.500000 -0.572449
O14   O     O_R   0.319830 0.500020 0.632250 -0.536312
O15   O     O_R   0.680170 0.499980 0.367750 -0.551080
O16   O     O_R   0.549160 0.499990 0.632240 -0.603722
O17   O     O_R   0.450840 0.500010 0.367760 -0.610514
O18   O     O_2   0.979179 0.593112 0.108992 -0.564619
Zn1   Zn    Zn3+2 0.346870 0.500020 0.500000 1.027494
Zn2   Zn    Zn3+2 0.653130 0.499980 0.500000 1.015971

loop_
_geom_bond_atom_site_label_1
_geom_bond_atom_site_label_2
_ccdc_geom_bond_type
C6    C32   S    
C21   C26   A    
C29   O5    D    
C11   C18   A    
C30   O6    D    
O12   Zn2   S    
C9    O14   A    
H3    O3    S    
C12   O11   A    
O1    Zn1   S    
C4    C36   A    
C31   O9    D    
C5    N2    A    
C19   C21   A    
H8    O8    S    
C1    O1    A    
C17   H1    S    
C10   O15   A    
C38   H14   S    
C20   C25   A    
C28   H2    S    
C11   C16   A    
C23   C26   A    
C3    C12   S    
C8    N2    A    
C3    C38   A    
O15   Zn2   S    
H4    O4    S    
C32   O10   D    
C31   H9    S    
C29   H5    S    
C32   H10   S    
C6    N1    A    
C30   H6    S    
O11   Zn2   S    
C8    H17   S    
C28   O2    D    
C27   C34   S    
C22   C34   A    
C24   C35   A    
C13   C19   A    
N1    Zn1   S    
C16   H11   S    
C28   C35   S    
C5    C7    A    
C27   H18   S    
C18   O4    S    
C23   H12   S    
C6    C8    A    
C25   C26   A    
C2    H15   S    
C2    C4    A    
O14   Zn1   S    
C9    C11   S    
C10   O17   A    
C23   C34   A    
C37   O8    S    
O17   Zn1   S    
C15   C24   A    
C12   O13   A    
C20   C22   A    
H7    O7    S    
C14   C16   A    
C9    O16   A    
C14   C29   S    
C27   O18   D    
O13   Zn1   S    
C15   C30   S    
C15   C17   A    
C36   O7    S    
C10   C13   S    
C33   H13   S    
C1    O12   A    
C13   C17   A    
C1    C4    S    
C14   C22   A    
C36   C38   A    
C2    C37   A    
C19   O3    S    
C33   C35   A    
C18   C20   A    
N2    Zn2   S    
C3    C37   A    
O16   Zn2   S    
C21   C24   A    
C7    H16   S    
C7    N1    A    
C25   C33   A    
C5    C31   S    
