data_mof_unit_44029.cif
_audit_creation_date              2012-12-11T14:49:50-0500
_audit_creation_method            fapswitch 2.2
_symmetry_space_group_name_H-M    P1
_symmetry_Int_Tables_number       1
_space_group_crystal_system       triclinic
_cell_length_a                    16.888063
_cell_length_b                    7.015837
_cell_length_c                    16.772207
_cell_angle_alpha                 89.999973
_cell_angle_beta                  100.65229
_cell_angle_gamma                 90.000042
_cell_volume                      1952.99052402

loop_
_atom_site_label
_atom_site_type_symbol
_atom_type_description
_atom_site_fract_x
_atom_site_fract_y
_atom_site_fract_z
_atom_type_partial_charge
O1    O     O_R   0.579510 0.506290 0.439030 -0.535295
O2    O     O_R   0.420490 0.006290 0.560970 -0.535294
O3    O     O_R   0.412540 0.170090 0.405290 -0.540219
O4    O     O_R   0.587460 0.670090 0.594710 -0.540219
C1    C     C_R   0.384904 0.345959 0.381983 0.637878
C2    C     C_R   0.615096 0.845959 0.618017 0.637877
O5    O     O_R   0.578390 0.176230 0.429330 -0.536286
O6    O     O_R   0.421610 0.676230 0.570670 -0.536285
O7    O     O_R   0.587530 0.011250 0.585190 -0.540219
O8    O     O_R   0.412470 0.511250 0.414810 -0.540218
C3    C     C_R   0.604786 0.346218 0.413564 0.695429
C4    C     C_R   0.395214 0.846218 0.586436 0.695429
O9    O     O_3   0.502800 0.340940 0.551110 -0.366805
O10   O     O_3   0.497200 0.840940 0.448890 -0.366805
V1    V     V_3+5 0.499480 0.064020 0.490520 1.399402
V2    V     V_3+5 0.500520 0.564020 0.509480 1.399402
C5    C     C_R   0.171889 0.900929 0.867056 -0.076179
C6    C     C_R   0.828110 0.400927 0.132944 -0.076181
C7    C     C_R   0.331845 0.865407 0.636797 -0.058929
C8    C     C_R   0.668155 0.365409 0.363203 -0.058930
C9    C     C_R   0.211945 0.032339 0.662364 -0.158867
C10   C     C_R   0.788052 0.532349 0.337634 -0.158868
C11   C     C_R   0.267779 0.993374 0.612304 -0.151426
C12   C     C_R   0.732219 0.493383 0.387694 -0.151426
C13   C     C_R   0.339223 0.776966 0.713017 -0.226978
C14   C     C_R   0.660779 0.276961 0.286984 -0.226980
C15   C     C_R   0.284261 0.819511 0.764733 0.114126
C16   C     C_R   0.715740 0.319506 0.235267 0.114126
C17   C     C_R   0.219876 0.947515 0.739146 0.147673
C18   C     C_R   0.780123 0.447518 0.260853 0.147673
C19   C     C_R   0.164358 0.987718 0.790372 -0.273825
C20   C     C_R   0.835640 0.487722 0.209627 -0.273825
C21   C     C_R   0.238601 0.778129 0.893702 0.172117
C22   C     C_R   0.761401 0.278120 0.106300 0.172118
C23   C     C_R   0.293605 0.738651 0.842219 -0.179879
C24   C     C_R   0.706398 0.238640 0.157783 -0.179879
H1    H     H_    0.113658 0.081258 0.769466 0.135743
H2    H     H_    0.886338 0.581269 0.230531 0.135745
H3    H     H_    0.163253 0.131241 0.641457 0.126196
H4    H     H_    0.836743 0.631257 0.358539 0.126196
H5    H     H_    0.343802 0.643265 0.862532 0.116774
H6    H     H_    0.656203 0.143249 0.137472 0.116775
H7    H     H_    0.261371 0.065043 0.554227 0.117799
H8    H     H_    0.738625 0.565057 0.445770 0.117799
H9    H     H_    0.389436 0.681637 0.733298 0.108936
H10   H     H_    0.610568 0.181625 0.266705 0.108938
C25   C     C_3   0.745116 0.784295 0.836410 -0.345077
C26   C     C_3   0.254883 0.284295 0.163590 -0.345077
H11   H     H_    0.769721 0.641601 0.856663 0.140105
H12   H     H_    0.230278 0.141601 0.143337 0.140105
H13   H     H_    0.723665 0.850102 0.888921 0.132569
H14   H     H_    0.276335 0.350102 0.111079 0.132569
C27   C     C_3   0.672506 0.756975 0.765230 -0.337083
C28   C     C_3   0.327493 0.256975 0.234770 -0.337082
H15   H     H_    0.616371 0.808770 0.783861 0.126967
H16   H     H_    0.383629 0.308770 0.216139 0.126967
H17   H     H_    0.664256 0.602407 0.751170 0.145336
H18   H     H_    0.335744 0.102407 0.248830 0.145336
H19   H     H_    0.864051 0.670822 0.754175 0.142504
H20   H     H_    0.135949 0.170822 0.245825 0.142504
H21   H     H_    0.758128 0.637521 0.647855 0.150342
H22   H     H_    0.241871 0.137521 0.352146 0.150342
C29   C     C_3   0.838177 0.813307 0.736552 -0.280408
C30   C     C_3   0.161823 0.313307 0.263448 -0.280407
C31   C     C_3   0.773040 0.108400 0.784070 -0.096085
C32   C     C_3   0.226960 0.608400 0.215929 -0.096086
C33   C     C_3   0.812426 0.911250 0.811062 0.067597
C34   C     C_3   0.187574 0.411250 0.188938 0.067596
H23   H     H_    0.749328 0.168382 0.836454 0.060346
H24   H     H_    0.250673 0.668382 0.163546 0.060347
C35   C     C_3   0.686534 0.866337 0.688855 0.078683
C36   C     C_3   0.313466 0.366337 0.311145 0.078682
C37   C     C_3   0.765370 0.790513 0.665207 -0.310994
C38   C     C_3   0.234630 0.290513 0.334793 -0.310995
C39   C     C_3   0.700366 0.080947 0.713341 -0.280887
C40   C     C_3   0.299634 0.580947 0.286658 -0.280887
H25   H     H_    0.645237 0.138861 0.732182 0.111900
H26   H     H_    0.354763 0.638861 0.267818 0.111900
H27   H     H_    0.709086 0.165230 0.659372 0.172432
H28   H     H_    0.290914 0.665230 0.340628 0.172432
H29   H     H_    0.886932 0.895520 0.716101 0.172516
H30   H     H_    0.113068 0.395520 0.283899 0.172516
H31   H     H_    0.777799 0.869574 0.611343 0.148657
H32   H     H_    0.222200 0.369574 0.388657 0.148657
O11   O     O_R   0.087500 0.266000 0.085220 -0.541905
O12   O     O_R   0.912500 0.766000 0.914780 -0.541904
O13   O     O_R   0.921600 0.589950 0.070670 -0.538018
O14   O     O_R   0.078400 0.089950 0.929330 -0.538018
C41   C     C_R   0.893684 0.420571 0.084789 0.716820
C42   C     C_R   0.106316 0.920571 0.915211 0.716821
O15   O     O_R   0.087460 0.596020 0.094710 -0.545563
O16   O     O_R   0.912540 0.096020 0.905290 -0.545564
O17   O     O_R   0.079520 0.760970 0.939020 -0.531487
O18   O     O_R   0.920480 0.260970 0.060980 -0.531487
C43   C     C_R   0.116127 0.426618 0.118063 0.641245
C44   C     C_R   0.883873 0.926618 0.881937 0.641243
O19   O     O_3   0.997180 0.425140 0.948910 -0.369453
O20   O     O_3   0.002820 0.925140 0.051090 -0.369454
V3    V     V_3+5 0.000520 0.702080 0.009480 1.396468
V4    V     V_3+5 0.999480 0.202080 0.990520 1.396469
C45   C     C_2   0.831492 0.255120 0.762538 0.330740
H33   H     H_    0.852316 0.368324 0.805261 0.060121
O21   O     O_2   0.857081 0.246452 0.699127 -0.545201
C46   C     C_2   0.168508 0.755120 0.237461 0.330740
H34   H     H_    0.147683 0.868323 0.194739 0.060121
O22   O     O_2   0.142920 0.746452 0.300873 -0.545200
C47   C     C_3   0.253033 0.689974 0.977228 -0.793384
H35   H     H_    0.249682 0.801434 0.023498 0.181565
H36   H     H_    0.207575 0.577692 0.980775 0.217994
H37   H     H_    0.313466 0.622567 0.992354 0.193471
C48   C     C_3   0.746969 0.189961 0.022775 -0.793386
H38   H     H_    0.750316 0.301420 0.976504 0.181566
H39   H     H_    0.792429 0.077686 0.019227 0.217997
H40   H     H_    0.686538 0.122545 0.007650 0.193470

loop_
_geom_bond_atom_site_label_1
_geom_bond_atom_site_label_2
_ccdc_geom_bond_type
C32   C34   S    
C45   H33   S    
C15   C17   A    
C24   H6    S    
C48   H38   S    
O1    C3    A    
C31   C45   S    
C36   C40   S    
O2    C4    A    
C2    O7    A    
C46   O22   D    
C25   H11   S    
O5    C3    A    
C29   H29   S    
C30   C34   S    
C40   H26   S    
C1    C36   S    
C31   H23   S    
O16   C44   A    
C11   H7    S    
C41   O18   A    
C8    C12   A    
C31   C33   S    
C21   C47   S    
C47   H35   S    
C20   H2    S    
C18   C20   A    
O17   V3    S    
C25   C27   S    
C26   H12   S    
C32   C40   S    
O6    V2    S    
C22   C48   S    
C47   H36   S    
C5    C21   A    
C7    C13   A    
C25   C33   S    
C46   H34   S    
O19   V3    S    
O13   V3    S    
C27   H15   S    
C2    C35   S    
C28   H16   S    
C3    C8    S    
C34   C43   S    
C32   C46   S    
C36   C38   S    
C35   C37   S    
C27   H17   S    
C7    C11   A    
C25   H13   S    
C29   C37   S    
C15   C23   A    
C9    C17   A    
C19   H1    S    
O4    V2    S    
C26   C28   S    
C29   C33   S    
O2    V1    S    
C6    C22   A    
C9    H3    S    
O18   V4    S    
O6    C4    A    
C10   H4    S    
C48   H39   S    
O1    V2    S    
C26   C34   S    
O12   V3    S    
C39   H25   S    
C30   H30   S    
O14   V4    S    
O12   C44   A    
O4    C2    A    
O14   C42   A    
O20   V4    S    
C9    C11   A    
C33   C44   S    
C5    C19   A    
C47   H37   S    
C10   C12   A    
C6    C20   A    
C27   C35   S    
C13   H9    S    
O19   V4    S    
O3    V1    S    
O16   V4    S    
C42   O17   A    
C28   H18   S    
C10   C18   A    
C6    C41   S    
C14   C16   A    
C5    C42   S    
C40   H28   S    
C38   H32   S    
O3    C1    A    
C13   C15   A    
H19   C29   S    
C31   C39   S    
H20   C30   S    
H21   C37   S    
C16   C18   A    
O7    V1    S    
C1    O8    A    
C17   C19   A    
O11   V4    S    
O8    V2    S    
C35   C39   S    
O11   C43   A    
C32   H24   S    
C8    C14   A    
C12   H8    S    
C4    C7    S    
O5    V1    S    
C21   C23   A    
C48   H40   S    
C22   C24   A    
C23   H5    S    
C14   H10   S    
O15   C43   A    
C26   H14   S    
C28   C36   S    
C16   C24   A    
C45   O21   D    
O20   V3    S    
O9    V2    S    
O13   C41   A    
C30   C38   S    
O10   V1    S    
H22   C38   S    
O15   V3    S    
C39   H27   S    
C37   H31   S    
