data_mof_unit_45869.cif
_audit_creation_date              2012-12-10T19:06:28-0500
_audit_creation_method            fapswitch 2.2
_symmetry_space_group_name_H-M    P1
_symmetry_Int_Tables_number       1
_space_group_crystal_system       triclinic
_cell_length_a                    23.559269
_cell_length_b                    10.829284
_cell_length_c                    9.539286
_cell_angle_alpha                 89.785644
_cell_angle_beta                  90.061484
_cell_angle_gamma                 90.331705
_cell_volume                      2433.69901593

loop_
_atom_site_label
_atom_site_type_symbol
_atom_type_description
_atom_site_fract_x
_atom_site_fract_y
_atom_site_fract_z
_atom_type_partial_charge
C1    C     C_R   0.498930 0.262208 0.500278 0.866308
C2    C     C_R   0.970516 0.279639 0.472344 0.163891
C3    C     C_R   0.029928 0.281864 0.477732 -0.216866
C4    C     C_R   0.059888 0.393884 0.482657 -0.037332
C5    C     C_R   0.029950 0.505777 0.483387 -0.016610
C6    C     C_R   0.059945 0.618736 0.485144 -0.005215
C7    C     C_R   0.029890 0.730134 0.490854 -0.159980
C8    C     C_R   0.970790 0.729386 0.496560 -0.153644
C9    C     C_R   0.119396 0.396798 0.488069 0.544950
C10   C     C_R   0.119477 0.617230 0.481683 0.542851
C11   C     C_R   0.237065 0.558237 0.602387 -0.210073
C12   C     C_R   0.391006 0.504784 0.499996 0.861858
C13   C     C_R   0.296329 0.565346 0.607448 0.351218
C14   C     C_R   0.328405 0.510987 0.498130 -0.212150
C15   C     C_R   0.299849 0.463338 0.380393 -0.214094
C16   C     C_R   0.240790 0.464326 0.371946 0.211620
C17   C     C_R   0.208990 0.508138 0.486217 0.243775
C18   C     C_R   0.762065 0.424980 0.586310 -0.160556
C19   C     C_R   0.702814 0.415821 0.585129 0.337313
C20   C     C_R   0.671234 0.497311 0.499563 -0.161888
C21   C     C_R   0.699848 0.579010 0.409304 -0.285520
C22   C     C_R   0.758921 0.581495 0.404761 -0.060837
C23   C     C_R   0.498981 0.737620 0.499671 0.804281
C24   C     C_R   0.790592 0.505593 0.494492 0.257987
C25   C     C_R   0.491365 0.062279 0.626179 0.106109
C26   C     C_R   0.493620 0.128854 0.500338 -0.072217
C27   C     C_R   0.487542 0.064661 0.373110 -0.202090
C28   C     C_R   0.487349 0.935937 0.372445 -0.203781
C29   C     C_R   0.493261 0.870472 0.499012 -0.079439
C30   C     C_R   0.491372 0.935134 0.624981 0.195064
C31   C     C_3   0.529223 0.926370 0.749883 -0.492829
C32   C     C_3   0.529180 0.066224 0.752494 -0.386860
C33   C     C_R   0.527158 0.591829 0.073268 0.200798
C34   C     C_R   0.608879 0.497813 0.499997 0.871794
C35   C     C_R   0.467319 0.419191 0.075390 -0.096257
C36   C     C_R   0.466831 0.419340 0.926105 0.305542
C37   C     C_R   0.527616 0.590991 0.925943 0.182332
C38   C     C_3   0.589182 0.623422 0.919216 -0.457645
C39   C     C_3   0.588880 0.625207 0.078719 -0.085923
C40   C     C_R   0.881008 0.615175 0.499860 0.544601
C41   C     C_R   0.879940 0.396012 0.471597 0.566511
C42   C     C_R   0.939814 0.391986 0.475733 -0.018545
C43   C     C_R   0.969985 0.504893 0.483814 -0.064644
C44   C     C_R   0.940410 0.617352 0.492899 -0.003652
Cu1   Cu    Cu3+1 0.500000 0.499980 0.640670 1.060299
Cu2   Cu    Cu3+1 0.500000 0.500020 0.359330 0.964094
H1    H     H_    0.676408 0.640559 0.341300 0.176115
H2    H     H_    0.780031 0.642397 0.330906 0.176658
H3    H     H_    0.485635 0.113229 0.273759 0.164394
H4    H     H_    0.485393 0.888460 0.272805 0.168396
H5    H     H_    0.507435 0.883689 0.841507 0.213042
H6    H     H_    0.571438 0.887220 0.724044 0.204345
H7    H     H_    0.507773 0.102972 0.846762 0.186883
H8    H     H_    0.571529 0.106965 0.731518 0.290815
H9    H     H_    0.441799 0.352549 0.132427 0.134248
H10   H     H_    0.052464 0.194905 0.476742 0.189862
H11   H     H_    0.615561 0.548066 0.876300 0.237257
H12   H     H_    0.596750 0.714944 0.869726 0.198998
H13   H     H_    0.616239 0.553406 0.127195 0.199681
H14   H     H_    0.051918 0.818187 0.492814 0.187854
H15   H     H_    0.949002 0.817011 0.502771 0.187934
H16   H     H_    0.212045 0.595483 0.687294 0.197200
H17   H     H_    0.323538 0.425660 0.293256 0.192973
H18   H     H_    0.786514 0.365067 0.654116 0.200716
N1    N     N_R   0.851824 0.505801 0.488221 -0.465284
N2    N     N_R   0.147973 0.507256 0.483332 -0.458456
N3    N     N_R   0.500360 0.500930 0.147930 -0.203730
N4    N     N_R   0.500360 0.500890 0.852020 -0.162819
O1    O     O_R   0.500000 0.319640 0.618810 -0.538161
O2    O     O_2   0.849875 0.291541 0.449200 -0.477728
O3    O     O_2   0.148464 0.290215 0.499750 -0.533641
O4    O     O_2   0.148693 0.724729 0.476943 -0.526100
O5    O     O_R   0.500010 0.319680 0.381230 -0.600494
O6    O     O_R   0.417880 0.499940 0.618820 -0.502591
O7    O     O_R   0.417880 0.499980 0.381240 -0.592905
O8    O     O_R   0.499990 0.680320 0.618770 -0.560685
O9    O     O_R   0.500000 0.680360 0.381190 -0.602025
O10   O     O_R   0.582120 0.500020 0.618760 -0.547258
O11   O     O_R   0.582120 0.500060 0.381180 -0.597422
O12   O     O_2   0.852689 0.721623 0.519946 -0.522547
N5    N     N_3   0.942039 0.162413 0.466816 -0.492113
H19   H     H_    0.954109 0.110904 0.554759 0.222902
H20   H     H_    0.956067 0.115779 0.377650 0.225628
S1    S     S_3+6 0.670740 0.287005 0.668554 -0.002727
O13   O     O_2   0.714788 0.199008 0.722921 -0.258686
O14   O     O_2   0.634476 0.328139 0.788792 -0.288332
O15   O     O_3   0.629867 0.213872 0.550191 -0.572940
H21   H     H_    0.656238 0.189135 0.474683 0.357398
N6    N     N_3   0.431159 0.333801 0.853229 -0.515235
H22   H     H_    0.389203 0.350672 0.882403 0.239049
H23   H     H_    0.440749 0.245170 0.888902 0.174804
N7    N     N_3   0.599002 0.749028 0.135203 -0.554682
H24   H     H_    0.569070 0.810990 0.095126 0.226994
H25   H     H_    0.592876 0.745166 0.243573 0.234550
S2    S     S_3+6 0.327077 0.654558 0.743767 0.028333
O16   O     O_2   0.349242 0.570341 0.856228 -0.265445
O17   O     O_2   0.375117 0.732341 0.688076 -0.303933
O18   O     O_3   0.278241 0.747853 0.815272 -0.495047
H26   H     H_    0.268860 0.808092 0.740465 0.359484
N8    N     N_3   0.214256 0.424949 0.244352 -0.556159
H27   H     H_    0.189766 0.346258 0.264187 0.258261
H28   H     H_    0.187414 0.495199 0.209363 0.237821

loop_
_geom_bond_atom_site_label_1
_geom_bond_atom_site_label_2
_ccdc_geom_bond_type
C36   N6    S    
C22   H2    S    
O15   H21   S    
C12   O6    A    
C41   C42   A    
C39   N7    S    
S2    O16   D    
S1    O15   S    
C23   O8    A    
C11   H16   S    
N5    H19   S    
S2    O18   S    
C7    C8    A    
Cu1   Cu2   S    
C17   N2    S    
C29   C30   A    
C13   S2    S    
Cu1   O8    S    
C18   C24   A    
C23   C29   S    
C28   C29   A    
S1    O14   D    
C30   C31   S    
C15   C16   A    
C37   N4    A    
C18   C19   A    
C9    N2    A    
N7    H24   S    
C38   H12   S    
C28   H4    S    
Cu2   O11   S    
C19   C20   A    
C16   C17   A    
C40   O12   S    
Cu1   O10   S    
N6    H23   S    
C31   H6    S    
C8    H15   S    
C20   C34   S    
C25   C32   S    
C5    C43   A    
C21   C22   A    
C32   H8    S    
Cu2   O7    S    
N5    H20   S    
C10   N2    A    
C38   C39   S    
Cu1   O1    S    
C9    O3    S    
S1    O13   D    
C16   N8    S    
C41   N1    A    
C32   H7    S    
C25   C26   A    
C35   H9    S    
C1    O1    A    
Cu1   O6    S    
C35   C36   A    
C43   C44   A    
C37   C38   S    
C34   O11   A    
C38   H11   S    
C3    H10   S    
C31   C32   S    
C35   N3    A    
C39   H13   S    
Cu1   N4    S    
N8    H28   S    
C26   C27   A    
C33   C39   S    
C23   O9    A    
C24   N1    S    
C12   C14   S    
C40   N1    A    
C1    C26   S    
C22   C24   A    
C42   C43   A    
C3    C4    A    
C7    H14   S    
C33   N3    A    
C25   C30   A    
S2    O17   D    
C11   C17   A    
C8    C44   A    
C31   H5    S    
C4    C5    A    
C6    C10   A    
Cu2   O9    S    
C36   N4    A    
C6    C7    A    
C1    O5    A    
C2    C3    A    
N6    H22   S    
Cu2   N3    S    
C34   O10   A    
C11   C13   A    
C18   H18   S    
N7    H25   S    
C5    C6    A    
C2    C42   A    
N8    H27   S    
C33   C37   A    
C27   H3    S    
C40   C44   A    
C20   C21   A    
O18   H26   S    
C12   O7    A    
C27   C28   A    
C15   H17   S    
C14   C15   A    
C2    N5    S    
C4    C9    A    
C13   C14   A    
Cu2   O5    S    
C19   S1    S    
C41   O2    S    
C21   H1    S    
C10   O4    S    
