data_mof_unit_35780.cif
_audit_creation_date              2012-12-10T16:45:20-0500
_audit_creation_method            fapswitch 2.2
_symmetry_space_group_name_H-M    P1
_symmetry_Int_Tables_number       1
_space_group_crystal_system       triclinic
_cell_length_a                    7.436447
_cell_length_b                    8.694558
_cell_length_c                    15.832066
_cell_angle_alpha                 94.283334
_cell_angle_beta                  75.091945
_cell_angle_gamma                 103.13254
_cell_volume                      963.178174262

loop_
_atom_site_label
_atom_site_type_symbol
_atom_type_description
_atom_site_fract_x
_atom_site_fract_y
_atom_site_fract_z
_atom_type_partial_charge
C1    C     C_R   0.545073 0.800144 0.502592 0.886503
C2    C     C_R   0.454937 0.199856 0.497394 0.886244
C3    C     C_R   0.274884 0.415162 0.080840 -0.225891
C4    C     C_R   0.713573 0.624746 0.924379 -0.227392
C5    C     C_R   0.145479 0.379577 0.029164 -0.222058
C6    C     C_R   0.842147 0.663075 0.976383 -0.221383
C7    C     C_2   0.570480 0.968015 0.503840 -0.372882
C8    C     C_2   0.429545 0.031983 0.496127 -0.373013
C9    C     C_R   0.384133 0.488965 0.666277 0.793296
C10   C     C_R   0.615941 0.511965 0.333800 0.792906
C11   C     C_R   0.314069 0.475514 0.761639 -0.054859
C12   C     C_R   0.686050 0.533327 0.239007 -0.055533
C13   C     C_R   0.068454 0.377978 0.890024 -0.185308
C14   C     C_R   0.922591 0.656847 0.114131 -0.185863
C15   C     C_R   0.123981 0.407768 0.800775 -0.201240
C16   C     C_R   0.871003 0.616135 0.201875 -0.203225
C17   C     C_R   0.445269 0.520923 0.813245 -0.249434
C18   C     C_R   0.556452 0.485315 0.186886 -0.246830
C19   C     C_R   0.392650 0.494572 0.903717 0.083019
C20   C     C_R   0.602265 0.529316 0.098922 0.081819
C21   C     C_R   0.201661 0.417820 0.941222 0.151930
C22   C     C_R   0.789587 0.615891 0.062852 0.149656
C23   C     C_R   0.525419 0.537173 0.957092 0.059703
C24   C     C_R   0.467127 0.492438 0.046519 0.061460
Cu1   Cu    Cu3+1 0.322120 0.483240 0.490330 0.944729
Cu2   Cu    Cu3+1 0.677880 0.516760 0.509670 0.943991
H1    H     H_    0.999620 0.321068 0.058493 0.155039
H2    H     H_    0.984545 0.730480 0.948450 0.152807
H3    H     H_    0.419125 0.415652 0.217746 0.145735
H4    H     H_    0.590000 0.571316 0.780189 0.149857
H5    H     H_    0.973111 0.654276 0.241235 0.158914
H6    H     H_    0.020363 0.372226 0.761996 0.158524
H7    H     H_    0.921713 0.321278 0.918888 0.146096
H8    H     H_    0.065834 0.722948 0.086623 0.146167
H9    H     H_    0.003990 0.615142 0.568830 0.223830
H10   H     H_    0.996008 0.384855 0.431172 0.223975
N1    N     N_2   0.945180 0.542040 0.524240 -0.218640
N2    N     N_2   0.054820 0.457960 0.475760 -0.218375
O1    O     O_R   0.384450 0.714270 0.493720 -0.581102
O2    O     O_R   0.615550 0.285730 0.506280 -0.581117
O3    O     O_R   0.684880 0.742590 0.510050 -0.585908
O4    O     O_R   0.315120 0.257410 0.489950 -0.585820
O5    O     O_R   0.265540 0.477900 0.617090 -0.590729
O6    O     O_R   0.734460 0.522100 0.382910 -0.591052
O7    O     O_R   0.565970 0.506210 0.633420 -0.584235
O8    O     O_R   0.434030 0.493790 0.366580 -0.582392
H11   H     H_    0.216882 0.382381 0.148159 0.145717
H12   H     H_    0.766360 0.669501 0.859048 0.144424
H13   H     H_    0.706339 0.039326 0.511121 0.178947
H14   H     H_    0.293688 0.960672 0.488844 0.178996

loop_
_geom_bond_atom_site_label_1
_geom_bond_atom_site_label_2
_ccdc_geom_bond_type
Cu1   O4    S    
C14   H8    S    
C19   C23   A    
C23   C24   A    
Cu2   N1    S    
C13   H7    S    
N1    N2    D    
C8    H14   S    
Cu1   N2    S    
Cu1   O5    S    
C11   C15   A    
H10   N2    S    
C13   C21   A    
C7    C8    D    
C18   H3    S    
C1    C7    S    
Cu1   O1    S    
C16   H5    S    
C9    O7    A    
C17   H4    S    
C9    C11   S    
Cu2   O2    S    
C3    C24   A    
C10   C12   S    
C2    O4    A    
C6    H2    S    
C1    O3    A    
C19   C21   A    
C20   C22   A    
C18   C20   A    
C13   C15   A    
C14   C22   A    
C14   C16   A    
C9    O5    A    
C1    O1    A    
Cu2   O6    S    
C6    C22   A    
C17   C19   A    
C2    O2    A    
C10   O8    A    
C15   H6    S    
C5    C21   A    
C7    H13   S    
C4    C6    A    
C4    H12   S    
C3    H11   S    
C4    C23   A    
C20   C24   A    
C11   C17   A    
Cu2   O7    S    
H9    N1    S    
Cu1   Cu2   S    
C5    H1    S    
C10   O6    A    
Cu1   O8    S    
C2    C8    S    
C12   C16   A    
Cu2   O3    S    
C3    C5    A    
C12   C18   A    
