data_mof_unit_10538.cif
_audit_creation_date              2012-12-11T15:08:57-0500
_audit_creation_method            fapswitch 2.2
_symmetry_space_group_name_H-M    P1
_symmetry_Int_Tables_number       1
_space_group_crystal_system       triclinic
_cell_length_a                    19.668261
_cell_length_b                    11.384521
_cell_length_c                    18.654552
_cell_angle_alpha                 90.22232
_cell_angle_beta                  91.336835
_cell_angle_gamma                 89.677649
_cell_volume                      4175.77796605

loop_
_atom_site_label
_atom_site_type_symbol
_atom_type_description
_atom_site_fract_x
_atom_site_fract_y
_atom_site_fract_z
_atom_type_partial_charge
C1    C     C_R   0.274562 0.039057 0.856224 0.548452
C2    C     C_R   0.713050 0.008219 0.136847 0.536804
C3    C     C_R   0.774562 0.539057 0.856224 0.548488
C4    C     C_R   0.213050 0.508219 0.136847 0.536805
C5    C     C_3   0.524952 0.718269 0.972463 -0.106449
C6    C     C_3   0.468656 0.722881 0.027457 -0.092816
C7    C     C_3   0.024952 0.218269 0.972463 -0.106439
C8    C     C_3   0.968656 0.222881 0.027456 -0.092823
C9    C     C_3   0.302453 0.511243 0.039745 -0.258478
C10   C     C_3   0.687935 0.538804 0.955053 -0.266019
C11   C     C_3   0.802453 0.011243 0.039745 -0.258478
C12   C     C_3   0.187935 0.038802 0.955053 -0.266022
C13   C     C_3   0.310478 0.523022 0.958114 -0.250756
C14   C     C_3   0.682511 0.546986 0.037087 -0.241334
C15   C     C_3   0.810478 0.023022 0.958114 -0.250757
C16   C     C_3   0.182510 0.046986 0.037088 -0.241326
C17   C     C_3   0.176099 0.491378 0.004651 -0.265185
C18   C     C_3   0.812431 0.495606 0.981663 -0.227538
C19   C     C_3   0.676099 0.991380 0.004652 -0.265185
C20   C     C_3   0.312431 0.995606 0.981663 -0.227528
C21   C     C_3   0.218746 0.675655 0.051838 -0.222500
C22   C     C_3   0.772814 0.697776 0.949562 -0.259905
C23   C     C_3   0.718747 0.175656 0.051839 -0.222500
C24   C     C_3   0.272813 0.197777 0.949562 -0.259916
C25   C     C_3   0.228165 0.542903 0.060622 0.003472
C26   C     C_3   0.761398 0.567653 0.933329 0.018123
C27   C     C_3   0.728165 0.042904 0.060622 0.003470
C28   C     C_3   0.261398 0.067653 0.933329 0.018117
C29   C     C_3   0.252370 0.603902 0.928066 0.046548
C30   C     C_3   0.747522 0.604874 0.071450 0.055593
C31   C     C_3   0.752370 0.103903 0.928067 0.046546
C32   C     C_3   0.247522 0.104874 0.071450 0.055594
C33   C     C_3   0.182881 0.542883 0.929045 0.138615
C34   C     C_3   0.810060 0.527049 0.062921 0.139846
C35   C     C_3   0.682881 0.042885 0.929046 0.138621
C36   C     C_3   0.310060 0.027049 0.062921 0.139844
C37   C     C_3   0.246995 0.710078 0.979692 -0.310320
C38   C     C_3   0.766300 0.717188 0.030335 -0.283010
C39   C     C_3   0.746996 0.210079 0.979692 -0.310322
C40   C     C_3   0.266300 0.217188 0.030335 -0.283003
C41   C     C_3   0.508287 0.707350 0.461210 -0.237711
C42   C     C_3   0.491630 0.707228 0.538304 -0.239276
C43   C     C_3   0.008287 0.207350 0.461210 -0.237711
C44   C     C_3   0.991630 0.207228 0.538304 -0.239276
C45   C     C_R   0.470066 0.819924 0.854128 0.580205
C46   C     C_R   0.529599 0.820193 0.145681 0.571999
C47   C     C_R   0.970067 0.319925 0.854128 0.580325
C48   C     C_R   0.029599 0.320193 0.145681 0.572003
C49   C     C_3   0.573123 0.889872 0.492826 -0.273308
C50   C     C_3   0.425684 0.888977 0.507334 -0.273412
C51   C     C_3   0.073123 0.389872 0.492826 -0.273309
C52   C     C_3   0.925684 0.388977 0.507334 -0.273414
C53   C     C_3   0.459961 0.906602 0.435008 -0.222326
C54   C     C_3   0.538792 0.906565 0.565287 -0.219953
C55   C     C_3   0.959961 0.406602 0.435008 -0.222325
C56   C     C_3   0.038792 0.406566 0.565287 -0.219952
C57   C     C_3   0.525182 0.831909 0.435659 0.050746
C58   C     C_3   0.474059 0.831511 0.564324 0.049521
C59   C     C_3   0.025182 0.331909 0.435659 0.050746
C60   C     C_3   0.974059 0.331511 0.564324 0.049519
C61   C     C_3   0.182322 0.654150 0.458157 -0.250300
C62   C     C_3   0.817342 0.653317 0.542033 -0.248813
C63   C     C_3   0.682322 0.154150 0.458157 -0.250301
C64   C     C_3   0.317342 0.153318 0.542033 -0.248813
C65   C     C_3   0.182164 0.656249 0.538247 -0.237592
C66   C     C_3   0.817866 0.655019 0.461927 -0.238093
C67   C     C_3   0.682164 0.156249 0.538247 -0.237592
C68   C     C_3   0.317866 0.155019 0.461927 -0.238093
C69   C     C_3   0.236911 0.450848 0.473628 -0.221797
C70   C     C_3   0.762813 0.450448 0.525651 -0.220864
C71   C     C_3   0.736911 0.950849 0.473628 -0.221797
C72   C     C_3   0.262814 0.950447 0.525651 -0.220863
C73   C     C_3   0.307597 0.625874 0.447037 -0.125798
C74   C     C_3   0.692278 0.626460 0.553079 -0.125858
C75   C     C_3   0.807597 0.125874 0.447037 -0.125797
C76   C     C_3   0.192278 0.126460 0.553079 -0.125859
C77   C     C_3   0.238643 0.568354 0.431152 0.069127
C78   C     C_3   0.761256 0.567971 0.568750 0.070554
C79   C     C_3   0.738643 0.068354 0.431152 0.069127
C80   C     C_3   0.261256 0.067971 0.568750 0.070555
C81   C     C_3   0.248759 0.599100 0.569819 0.050901
C82   C     C_3   0.751440 0.599032 0.430041 0.051899
C83   C     C_3   0.748759 0.099100 0.569819 0.050901
C84   C     C_3   0.251440 0.099032 0.430041 0.051899
C85   C     C_3   0.240626 0.467992 0.556481 -0.261612
C86   C     C_3   0.759631 0.467695 0.442831 -0.261521
C87   C     C_3   0.740627 0.967992 0.556481 -0.261611
C88   C     C_3   0.259632 0.967695 0.442831 -0.261522
C89   C     C_R   0.264606 0.649672 0.856279 0.616322
C90   C     C_R   0.737838 0.641456 0.146478 0.628879
C91   C     C_R   0.764606 0.149674 0.856279 0.616312
C92   C     C_R   0.237838 0.141456 0.146478 0.628877
C93   C     C_3   0.314336 0.634803 0.529987 -0.213600
C94   C     C_3   0.685851 0.635841 0.470084 -0.213052
C95   C     C_3   0.814335 0.134804 0.529987 -0.213599
C96   C     C_3   0.185851 0.135840 0.470084 -0.213052
C97   C     C_R   0.274064 0.041033 0.645274 0.538196
C98   C     C_R   0.725979 0.041502 0.354664 0.545809
C99   C     C_R   0.774064 0.541034 0.645274 0.538201
C100  C     C_R   0.225979 0.541502 0.354664 0.545810
C101  C     C_R   0.446212 0.821005 0.637871 0.534831
C102  C     C_R   0.553135 0.821226 0.362102 0.536506
C103  C     C_R   0.946212 0.321005 0.637871 0.534836
C104  C     C_R   0.053135 0.321226 0.362102 0.536505
C105  C     C_R   0.259126 0.635817 0.645697 0.575118
C106  C     C_R   0.740965 0.636122 0.354249 0.566477
C107  C     C_R   0.759126 0.135817 0.645697 0.575117
C108  C     C_R   0.240965 0.136122 0.354249 0.566476
C109  C     C_3   0.471871 0.917183 0.026466 -0.106750
C110  C     C_3   0.528774 0.912139 0.971905 -0.104686
C111  C     C_3   0.971871 0.417183 0.026466 -0.106758
C112  C     C_3   0.028774 0.412139 0.971905 -0.104672
C113  C     C_3   0.433110 0.820671 0.983482 -0.068199
C114  C     C_3   0.564346 0.811733 0.015689 -0.090308
C115  C     C_3   0.933110 0.320671 0.983481 -0.068222
C116  C     C_3   0.064346 0.311733 0.015689 -0.090313
C117  C     C_3   0.490545 0.818601 0.930278 0.074604
C118  C     C_3   0.506988 0.819629 0.069568 0.073443
C119  C     C_3   0.990545 0.318601 0.930278 0.074640
C120  C     C_3   0.006988 0.319629 0.069568 0.073446
Cr1   Cr    Cr6+3 0.229620 0.836040 0.749110 1.023526
Cr2   Cr    Cr6+3 0.770380 0.836040 0.250890 1.016860
Cr3   Cr    Cr6+3 0.729620 0.336040 0.749110 1.023534
Cr4   Cr    Cr6+3 0.270380 0.336040 0.250890 1.016860
Cr5   Cr    Cr6+3 0.387630 0.990680 0.750730 1.025579
Cr6   Cr    Cr6+3 0.612370 0.990680 0.249270 1.021814
Cr7   Cr    Cr6+3 0.887630 0.490680 0.750730 1.025584
Cr8   Cr    Cr6+3 0.112370 0.490680 0.249270 1.021815
Cr9   Cr    Cr6+3 0.386020 0.676590 0.749210 1.001089
Cr10  Cr    Cr6+3 0.613980 0.676590 0.250790 1.001679
Cr11  Cr    Cr6+3 0.886020 0.176590 0.749210 1.001094
Cr12  Cr    Cr6+3 0.113980 0.176590 0.250790 1.001679
H1    H     H_    0.384422 0.811539 0.955672 0.090780
H2    H     H_    0.615054 0.791386 0.038284 0.093074
H3    H     H_    0.884422 0.311538 0.955671 0.090770
H4    H     H_    0.115054 0.291386 0.038284 0.093068
H5    H     H_    0.164235 0.702503 0.054143 0.132622
H6    H     H_    0.824324 0.724938 0.932732 0.139880
H7    H     H_    0.664235 0.202505 0.054144 0.132624
H8    H     H_    0.324321 0.224941 0.932731 0.139894
H9    H     H_    0.244872 0.720415 0.096153 0.251697
H10   H     H_    0.735717 0.752217 0.920057 0.222849
H11   H     H_    0.744873 0.220415 0.096154 0.251694
H12   H     H_    0.235713 0.252215 0.920059 0.222790
H13   H     H_    0.298917 0.735614 0.992183 0.171540
H14   H     H_    0.731049 0.783421 0.047039 0.104802
H15   H     H_    0.798918 0.235615 0.992184 0.171542
H16   H     H_    0.231049 0.283421 0.047041 0.104802
H17   H     H_    0.215541 0.781569 0.956587 0.119273
H18   H     H_    0.816921 0.747905 0.049208 0.119621
H19   H     H_    0.715542 0.281570 0.956588 0.119272
H20   H     H_    0.316921 0.247904 0.049207 0.119621
H21   H     H_    0.625830 0.011879 0.026458 0.101793
H22   H     H_    0.364251 0.011021 0.961835 0.111941
H23   H     H_    0.125831 0.511878 0.026457 0.101793
H24   H     H_    0.864251 0.511020 0.961835 0.111938
H25   H     H_    0.142163 0.610888 0.922907 0.126494
H26   H     H_    0.856227 0.580403 0.073967 0.121181
H27   H     H_    0.642163 0.110891 0.922908 0.126498
H28   H     H_    0.356227 0.080403 0.073967 0.121181
H29   H     H_    0.547639 0.641331 0.451673 0.133225
H30   H     H_    0.452484 0.641409 0.547494 0.132964
H31   H     H_    0.047639 0.141331 0.451673 0.133225
H32   H     H_    0.952485 0.141408 0.547495 0.132964
H33   H     H_    0.464041 0.679679 0.430466 0.171612
H34   H     H_    0.535942 0.679828 0.568987 0.172558
H35   H     H_    0.964042 0.179678 0.430466 0.171612
H36   H     H_    0.035943 0.179829 0.568987 0.172558
H37   H     H_    0.614268 0.830828 0.507246 0.106295
H38   H     H_    0.385300 0.829061 0.492499 0.106983
H39   H     H_    0.114269 0.330828 0.507246 0.106295
H40   H     H_    0.885300 0.329060 0.492500 0.106983
H41   H     H_    0.573823 0.880073 0.610325 0.138090
H42   H     H_    0.425246 0.880188 0.389722 0.135839
H43   H     H_    0.073823 0.380074 0.610325 0.138098
H44   H     H_    0.925246 0.380187 0.389722 0.135839
H45   H     H_    0.453963 0.999478 0.051263 0.126144
H46   H     H_    0.547153 0.989912 0.942942 0.148612
H47   H     H_    0.953962 0.499477 0.051263 0.126145
H48   H     H_    0.047153 0.489912 0.942942 0.148612
H49   H     H_    0.472091 0.001133 0.427529 0.131920
H50   H     H_    0.525976 0.001020 0.573436 0.134446
H51   H     H_    0.972091 0.501133 0.427529 0.131921
H52   H     H_    0.025976 0.501021 0.573436 0.134445
H53   H     H_    0.407033 0.972863 0.527462 0.123390
H54   H     H_    0.590874 0.974336 0.473251 0.121234
H55   H     H_    0.907034 0.472863 0.527462 0.123389
H56   H     H_    0.090874 0.474336 0.473251 0.121235
H57   H     H_    0.129838 0.634650 0.439264 0.139120
H58   H     H_    0.869914 0.634616 0.561220 0.139430
H59   H     H_    0.629838 0.134650 0.439264 0.139121
H60   H     H_    0.369914 0.134616 0.561220 0.139431
H61   H     H_    0.191546 0.743033 0.437598 0.110415
H62   H     H_    0.807454 0.742277 0.562671 0.110456
H63   H     H_    0.691546 0.243034 0.437598 0.110416
H64   H     H_    0.307454 0.242276 0.562671 0.110455
H65   H     H_    0.171009 0.745984 0.555570 0.142753
H66   H     H_    0.829185 0.744368 0.444883 0.141908
H67   H     H_    0.671009 0.245984 0.555570 0.142753
H68   H     H_    0.329185 0.244369 0.444883 0.141907
H69   H     H_    0.137407 0.607283 0.557556 0.123229
H70   H     H_    0.862660 0.605163 0.442646 0.121404
H71   H     H_    0.637407 0.107282 0.557556 0.123229
H72   H     H_    0.362660 0.105164 0.442646 0.121404
H73   H     H_    0.693485 0.902176 0.454274 0.093933
H74   H     H_    0.305483 0.899848 0.545327 0.093080
H75   H     H_    0.193485 0.402174 0.454273 0.093933
H76   H     H_    0.805484 0.399850 0.545326 0.093079
H77   H     H_    0.694532 0.933597 0.582188 0.121622
H78   H     H_    0.305900 0.932594 0.417267 0.119961
H79   H     H_    0.194531 0.433597 0.582188 0.121623
H80   H     H_    0.805899 0.432593 0.417267 0.119961
H81   H     H_    0.305669 0.717224 0.426185 0.093289
H82   H     H_    0.693847 0.717719 0.574507 0.093584
H83   H     H_    0.805669 0.217223 0.426184 0.093288
H84   H     H_    0.193847 0.217719 0.574507 0.093584
H85   H     H_    0.544181 0.636226 0.948084 0.112994
H86   H     H_    0.444784 0.644968 0.051470 0.119570
H87   H     H_    0.044181 0.136227 0.948084 0.112995
H88   H     H_    0.944784 0.144968 0.051470 0.119572
H89   H     H_    0.327668 0.721931 0.548484 0.089862
H90   H     H_    0.672926 0.723397 0.452078 0.090667
H91   H     H_    0.827666 0.221933 0.548484 0.089861
H92   H     H_    0.172925 0.223395 0.452078 0.090668
H93   H     H_    0.355155 0.576858 0.550332 0.127415
H94   H     H_    0.645197 0.578623 0.449319 0.128294
H95   H     H_    0.855155 0.076861 0.550333 0.127415
H96   H     H_    0.145197 0.078619 0.449319 0.128293
H97   H     H_    0.279852 0.397507 0.458404 0.137257
H98   H     H_    0.719541 0.398414 0.540116 0.136130
H99   H     H_    0.779851 0.897506 0.458403 0.137258
H100  H     H_    0.219541 0.898415 0.540116 0.136130
H101  H     H_    0.285071 0.421779 0.580700 0.113721
H102  H     H_    0.715449 0.421917 0.418076 0.114489
H103  H     H_    0.785072 0.921780 0.580700 0.113722
H104  H     H_    0.215450 0.921916 0.418075 0.114488
H105  H     H_    0.319310 0.425301 0.058281 0.128492
H106  H     H_    0.671159 0.451092 0.936519 0.128312
H107  H     H_    0.819310 0.925301 0.058281 0.128492
H108  H     H_    0.171160 0.951090 0.936519 0.128319
H109  H     H_    0.337787 0.572425 0.067892 0.154166
H110  H     H_    0.652712 0.602332 0.928714 0.149408
H111  H     H_    0.837788 0.072425 0.067892 0.154164
H112  H     H_    0.152711 0.102329 0.928714 0.149352
H113  H     H_    0.361366 0.560837 0.947857 0.127623
H114  H     H_    0.635913 0.596982 0.050108 0.131795
H115  H     H_    0.861366 0.060836 0.947856 0.127621
H116  H     H_    0.135913 0.096982 0.050109 0.131795
H117  H     H_    0.308465 0.435428 0.932297 0.171367
H118  H     H_    0.676104 0.457295 0.059102 0.168929
H119  H     H_    0.808464 0.935428 0.932296 0.171361
H120  H     H_    0.176104 0.957295 0.059103 0.168927
H121  H     H_    0.682809 0.900908 0.993769 0.161235
H122  H     H_    0.297494 0.907362 0.974235 0.123334
H123  H     H_    0.182809 0.400906 0.993768 0.161224
H124  H     H_    0.797494 0.407361 0.974235 0.123333
O1    O     O_R   0.214130 0.708570 0.829890 -0.500379
O2    O     O_R   0.785870 0.708570 0.170110 -0.520276
O3    O     O_R   0.714130 0.208570 0.829890 -0.500373
O4    O     O_R   0.285870 0.208570 0.170110 -0.520277
O5    O     O_R   0.446360 0.919990 0.675230 -0.495440
O6    O     O_R   0.553640 0.919990 0.324770 -0.498628
O7    O     O_R   0.946360 0.419990 0.675230 -0.495435
O8    O     O_R   0.053640 0.419990 0.324770 -0.498628
O9    O     O_R   0.457170 0.717300 0.668380 -0.533237
O10   O     O_R   0.542830 0.717300 0.331620 -0.531764
O11   O     O_R   0.957170 0.217300 0.668380 -0.533228
O12   O     O_R   0.042830 0.217300 0.331620 -0.531764
O13   O     O_R   0.320870 0.624890 0.673130 -0.515946
O14   O     O_R   0.679130 0.624890 0.326870 -0.515548
O15   O     O_R   0.820870 0.124890 0.673130 -0.515948
O16   O     O_R   0.179130 0.124890 0.326870 -0.515548
O17   O     O_3   0.334430 0.834430 0.749680 -0.313127
O18   O     O_3   0.665570 0.834430 0.250320 -0.318850
O19   O     O_3   0.834430 0.334430 0.749680 -0.313139
O20   O     O_3   0.165570 0.334430 0.250320 -0.318851
O21   O     O_R   0.236050 0.959150 0.825270 -0.524405
O22   O     O_R   0.763950 0.959150 0.174730 -0.513414
O23   O     O_R   0.736050 0.459150 0.825270 -0.524397
O24   O     O_R   0.263950 0.459150 0.174730 -0.513413
O25   O     O_R   0.332100 0.076650 0.832310 -0.513987
O26   O     O_R   0.667900 0.076650 0.167690 -0.506819
O27   O     O_R   0.832100 0.576650 0.832310 -0.513992
O28   O     O_R   0.167900 0.576650 0.167690 -0.506819
O29   O     O_R   0.446500 0.918620 0.826240 -0.488899
O30   O     O_R   0.553500 0.918620 0.173760 -0.498229
O31   O     O_R   0.946500 0.418620 0.826240 -0.488909
O32   O     O_R   0.053500 0.418620 0.173760 -0.498229
O33   O     O_R   0.457310 0.715830 0.831280 -0.548194
O34   O     O_R   0.542690 0.715830 0.168720 -0.544250
O35   O     O_R   0.957310 0.215830 0.831280 -0.548181
O36   O     O_R   0.042690 0.215830 0.168720 -0.544249
O37   O     O_R   0.321000 0.623520 0.824130 -0.488320
O38   O     O_R   0.679000 0.623520 0.175870 -0.491094
O39   O     O_R   0.821000 0.123520 0.824130 -0.488328
O40   O     O_R   0.179000 0.123520 0.175870 -0.491096
O41   O     O_R   0.213990 0.710040 0.667000 -0.508339
O42   O     O_R   0.786010 0.710040 0.333000 -0.514118
O43   O     O_R   0.713990 0.210040 0.667000 -0.508338
O44   O     O_R   0.286010 0.210040 0.333000 -0.514118
O45   O     O_R   0.235920 0.960520 0.674260 -0.500661
O46   O     O_R   0.764080 0.960520 0.325740 -0.496674
O47   O     O_R   0.735920 0.460520 0.674260 -0.500658
O48   O     O_R   0.264080 0.460520 0.325740 -0.496673
O49   O     O_R   0.331960 0.078120 0.669410 -0.535707
O50   O     O_R   0.668040 0.078120 0.330590 -0.532861
O51   O     O_R   0.831960 0.578120 0.669410 -0.535707
O52   O     O_R   0.168040 0.578120 0.330590 -0.532862
C121  C     C_R   0.365706 0.562744 0.408529 0.013210
C122  C     C_R   0.381314 0.599863 0.338523 -0.070536
C123  C     C_R   0.431030 0.541957 0.299179 -0.056051
C124  C     C_R   0.467104 0.447739 0.329242 -0.086118
C125  C     C_R   0.452875 0.410017 0.398332 -0.121549
C126  C     C_R   0.402383 0.466009 0.437660 -0.110339
H125  H     H_    0.354160 0.673004 0.314047 0.117969
H126  H     H_    0.441928 0.570881 0.245465 0.121756
H127  H     H_    0.506014 0.403699 0.298890 0.104629
H128  H     H_    0.480652 0.336381 0.421347 0.093885
H129  H     H_    0.392205 0.431348 0.490084 0.083708
C127  C     C_R   0.634362 0.563659 0.591179 0.014342
C128  C     C_R   0.618721 0.600493 0.661475 -0.071323
C129  C     C_R   0.569350 0.542662 0.700554 -0.056633
C130  C     C_R   0.533475 0.449059 0.669870 -0.082911
C131  C     C_R   0.547517 0.411938 0.600384 -0.121250
C132  C     C_R   0.597708 0.467780 0.561315 -0.112469
H130  H     H_    0.645712 0.673164 0.686443 0.111323
H131  H     H_    0.558547 0.571198 0.754545 0.119123
H132  H     H_    0.494812 0.405110 0.700020 0.103830
H133  H     H_    0.519818 0.338895 0.576842 0.093959
H134  H     H_    0.607666 0.433679 0.508494 0.084109
C133  C     C_R   0.865706 0.062742 0.408530 0.013211
C134  C     C_R   0.881315 0.099859 0.338524 -0.070535
C135  C     C_R   0.931032 0.041953 0.299181 -0.056053
C136  C     C_R   0.967105 0.947735 0.329245 -0.086120
C137  C     C_R   0.952875 0.910015 0.398335 -0.121550
C138  C     C_R   0.902383 0.966008 0.437662 -0.110339
H135  H     H_    0.854162 0.173000 0.314047 0.117968
H136  H     H_    0.941930 0.070876 0.245467 0.121757
H137  H     H_    0.006016 0.903695 0.298894 0.104630
H138  H     H_    0.980652 0.836380 0.421351 0.093885
H139  H     H_    0.892204 0.931348 0.490086 0.083709
C139  C     C_R   0.134362 0.063659 0.591180 0.014344
C140  C     C_R   0.118721 0.100493 0.661475 -0.071320
C141  C     C_R   0.069350 0.042662 0.700554 -0.056634
C142  C     C_R   0.033475 0.949060 0.669871 -0.082914
C143  C     C_R   0.047516 0.911937 0.600385 -0.121250
C144  C     C_R   0.097708 0.967780 0.561316 -0.112468
H140  H     H_    0.145712 0.173164 0.686443 0.111311
H141  H     H_    0.058547 0.071199 0.754545 0.119132
H142  H     H_    0.994812 0.905111 0.700021 0.103829
H143  H     H_    0.019818 0.838895 0.576843 0.093959
H144  H     H_    0.107665 0.933677 0.508494 0.084108
S1    S     S_3+6 0.668812 0.942322 0.853088 -0.057705
O53   O     O_2   0.625697 0.005100 0.797579 -0.267052
O54   O     O_2   0.735007 0.908141 0.819836 -0.312745
O55   O     O_3   0.628582 0.818895 0.875191 -0.604655
H145  H     H_    0.624112 0.773447 0.829942 0.358557
S2    S     S_3+6 0.319274 0.917567 0.133293 -0.065033
O56   O     O_2   0.364080 0.969924 0.191384 -0.281239
O57   O     O_2   0.251691 0.891130 0.165449 -0.317781
O58   O     O_3   0.355909 0.792413 0.107283 -0.609367
H146  H     H_    0.365920 0.748835 0.152219 0.359377
S3    S     S_3+6 0.168813 0.442320 0.853087 -0.057698
O59   O     O_2   0.125705 0.505099 0.797573 -0.266977
O60   O     O_2   0.235011 0.408131 0.819842 -0.312827
O61   O     O_3   0.128576 0.318897 0.875186 -0.604620
H147  H     H_    0.124214 0.273360 0.829960 0.358525
S4    S     S_3+6 0.819274 0.417568 0.133293 -0.065031
O62   O     O_2   0.864079 0.469925 0.191385 -0.281237
O63   O     O_2   0.751691 0.391131 0.165449 -0.317783
O64   O     O_3   0.855909 0.292414 0.107284 -0.609363
H148  H     H_    0.865917 0.248833 0.152220 0.359377

loop_
_geom_bond_atom_site_label_1
_geom_bond_atom_site_label_2
_ccdc_geom_bond_type
C82   C94   S    
C55   C59   S    
C83   C87   S    
C73   C93   S    
C47   O35   A    
C42   C58   S    
C29   C89   S    
C16   H120  S    
C75   C95   S    
C125  H128  S    
C48   C120  S    
Cr5   O17   S    
C135  C136  A    
C24   H8    S    
C57   C102  S    
C85   H101  S    
C59   C104  S    
Cr1   O21   S    
C139  C144  A    
Cr2   O18   S    
C5    C6    S    
Cr10  O14   S    
Cr3   O23   S    
Cr11  O11   S    
C110  H46   S    
C22   C38   S    
C29   C33   S    
C87   H103  S    
C30   C38   S    
C77   C100  S    
C44   H36   S    
C9    C13   S    
C92   O4    A    
C11   C15   S    
C136  H137  S    
C5    H85   S    
C49   H54   S    
C12   C16   S    
C131  C132  A    
C102  O6    A    
C99   O51   A    
C52   H55   S    
C103  O11   A    
C60   C103  S    
C88   H78   S    
C74   H82   S    
C61   H57   S    
C23   H11   S    
C32   C36   S    
S4    O62   D    
C64   H60   S    
C109  C118  S    
C16   H116  S    
Cr5   O29   S    
C50   C53   S    
C130  C131  A    
C46   O30   A    
C7    C119  S    
Cr8   O32   S    
C62   H58   S    
C62   C66   S    
C139  C140  A    
C72   H74   S    
C56   H52   S    
Cr3   O3    S    
C90   O38   A    
Cr12  O40   S    
C51   C56   S    
C100  O48   A    
C43   C44   S    
C1    O21   A    
C66   C82   S    
C3    O23   A    
C33   S3    S    
C11   C27   S    
C58   C101  S    
C106  O42   A    
C116  H4    S    
C4    O24   A    
C62   H62   S    
C90   O2    A    
C18   H24   S    
C36   S2    S    
C92   O40   A    
C141  H141  S    
Cr2   O46   S    
C3    C26   S    
Cr3   O43   S    
C84   C88   S    
Cr7   O19   S    
Cr12  O16   S    
C85   H79   S    
C13   H117  S    
Cr10  O38   S    
Cr11  O35   S    
C17   C25   S    
C19   C35   S    
C76   C96   S    
C1    O25   A    
C32   C92   S    
C75   H83   S    
C98   O46   A    
C95   H95   S    
C67   H71   S    
C21   H9    S    
C137  C138  A    
C61   C65   S    
C12   H108  S    
C128  C129  A    
C78   C99   S    
C73   C77   S    
C104  O8    A    
C75   C79   S    
S4    O64   S    
O64   H148  S    
Cr12  O20   S    
C67   C83   S    
Cr8   O52   S    
C76   C139  S    
C80   C97   S    
C68   H72   S    
C11   H111  S    
C69   C77   S    
C111  C112  S    
C9    H109  S    
C52   H40   S    
C71   C79   S    
C4    C25   S    
Cr4   O24   S    
C7    C8    S    
S2    O58   S    
Cr4   O48   S    
C64   C68   S    
C44   C60   S    
C111  H47   S    
C39   H19   S    
C49   C57   S    
C124  C125  A    
C40   H20   S    
C142  H142  S    
C38   H14   S    
C51   H56   S    
C52   C60   S    
C144  H144  S    
C19   H121  S    
C61   C77   S    
C12   H112  S    
C93   H93   S    
C133  C138  A    
C110  C114  S    
C43   C59   S    
C112  H48   S    
C10   H106  S    
Cr6   O18   S    
C74   C127  S    
Cr2   O22   S    
Cr3   O19   S    
C81   C105  S    
C30   C34   S    
C134  C135  A    
C10   C14   S    
C136  C137  A    
C131  H133  S    
C35   S1    S    
C95   H91   S    
C116  C120  S    
C20   C36   S    
C7    C116  S    
C69   H97   S    
C71   H73   S    
C22   H10   S    
C114  H2    S    
C21   C37   S    
S2    O57   D    
C66   H66   S    
C113  C117  S    
Cr5   O25   S    
C31   C91   S    
Cr6   O30   S    
C9    H105  S    
S3    O61   S    
Cr8   O28   S    
C61   H61   S    
C112  C116  S    
C69   C85   S    
C45   C117  S    
C126  H129  S    
C21   C25   S    
C45   O33   A    
C72   H100  S    
C62   C78   S    
C76   C80   S    
C134  H135  S    
C2    O22   A    
C42   H30   S    
C15   C31   S    
C43   H35   S    
C16   C32   S    
C97   O49   A    
C72   C80   S    
C107  O43   A    
C115  H3    S    
C64   H64   S    
C4    O28   A    
C82   C106  S    
Cr5   O49   S    
C55   H44   S    
C91   O3    A    
C66   H70   S    
C97   O45   A    
C141  C142  A    
Cr5   O5    S    
C94   H90   S    
C113  H1    S    
C81   C85   S    
Cr1   O1    S    
C13   H113  S    
C41   H29   S    
C87   H77   S    
C41   C42   S    
C74   C94   S    
Cr9   O17   S    
C18   C26   S    
C30   C90   S    
S4    O63   D    
S1    O53   D    
C9    C25   S    
C2    O26   A    
C86   H102  S    
C12   C28   S    
C13   C29   S    
C86   H80   S    
C67   H67   S    
C137  H138  S    
C98   O50   A    
C128  H130  S    
C45   O29   A    
C46   C118  S    
O61   H147  S    
S1    O54   D    
C6    H86   S    
C1    C28   S    
Cr1   O41   S    
S3    O59   D    
C2    C27   S    
Cr10  O18   S    
C73   C121  S    
Cr4   O44   S    
C52   C55   S    
C129  C130  A    
C64   C80   S    
C73   H81   S    
C17   C33   S    
C110  C117  S    
C38   H18   S    
C33   H25   S    
C122  H125  S    
C105  O13   A    
C69   H75   S    
C40   H16   S    
C107  O15   A    
C68   C84   S    
C24   C28   S    
C143  H143  S    
C53   C57   S    
C82   C86   S    
C56   C60   S    
C115  C119  S    
C50   C58   S    
C133  C134  A    
C48   O36   A    
Cr7   O31   S    
C34   S4    S    
C76   H84   S    
C65   C81   S    
C108  O16   A    
Cr7   O51   S    
C132  H134  S    
C50   H38   S    
C127  C132  A    
C20   H122  S    
C71   C87   S    
C15   H115  S    
C31   C35   S    
C96   H96   S    
S1    O55   S    
Cr9   O9    S    
C101  O9    A    
C122  C123  A    
C37   H17   S    
C112  C119  S    
C121  C126  A    
C14   H118  S    
C20   C28   S    
C22   H6    S    
C18   H124  S    
C41   C57   S    
C47   O31   A    
C109  C110  S    
C49   H37   S    
C48   O32   A    
C89   O37   A    
C125  C126  A    
C135  H136  S    
C24   H12   S    
C63   H59   S    
Cr6   O26   S    
C91   O39   A    
C84   C108  S    
Cr7   O7    S    
Cr8   O8    S    
Cr1   O17   S    
C94   H94   S    
Cr10  O10   S    
C109  H45   S    
Cr11  O15   S    
Cr4   O4    S    
C22   C26   S    
C29   C37   S    
C55   H51   S    
C44   H32   S    
C70   H76   S    
C42   H34   S    
C43   H31   S    
C140  C141  A    
C101  O5    A    
C5    C114  S    
C70   C78   S    
C79   C98   S    
C10   H110  S    
C63   C79   S    
C121  C122  A    
C20   H22   S    
C54   H41   S    
C23   H7    S    
Cr6   O50   S    
C84   C96   S    
C11   H107  S    
C49   C54   S    
Cr6   O6    S    
C19   H21   S    
C130  H132  S    
C46   O34   A    
Cr7   O27   S    
Cr8   O20   S    
C8    C115  S    
Cr2   O2    S    
C83   C107  S    
C96   H92   S    
C41   H33   S    
Cr12  O36   S    
Cr9   O37   S    
C19   C27   S    
C74   C78   S    
C109  C113  S    
C7    H87   S    
C10   C26   S    
C3    O27   A    
Cr9   O33   S    
C140  H140  S    
S3    O60   D    
C105  O41   A    
C14   C30   S    
C72   C88   S    
C53   H42   S    
C108  O44   A    
C88   H104  S    
C63   C67   S    
C56   H43   S    
C89   O1    A    
C123  C124  A    
Cr1   O45   S    
C21   H5    S    
C5    C117  S    
C111  C120  S    
Cr2   O42   S    
Cr3   O47   S    
C70   H98   S    
C6    C113  S    
Cr11  O19   S    
C138  H139  S    
C8    H88   S    
C53   H49   S    
Cr12  O12   S    
C81   C93   S    
C129  H131  S    
C83   C95   S    
Cr10  O34   S    
C54   H50   S    
Cr11  O39   S    
C18   C34   S    
C114  C118  S    
C65   H65   S    
C34   H26   S    
C106  O14   A    
C23   C27   S    
C51   C59   S    
C70   C86   S    
C99   O47   A    
C8    C120  S    
C54   C58   S    
C75   C133  S    
C17   H123  S    
C104  O12   A    
C111  C115  S    
O58   H146  S    
C68   H68   S    
C127  C128  A    
C51   H39   S    
C71   H99   S    
Cr4   O20   S    
C143  C144  A    
C15   H119  S    
C23   C39   S    
C47   C119  S    
O55   H145  S    
C24   C40   S    
C31   C39   S    
C63   H63   S    
C32   C40   S    
S2    O56   D    
C35   H27   S    
Cr9   O13   S    
C36   H28   S    
C100  O52   A    
C65   H69   S    
C102  O10   A    
C39   H15   S    
C103  O7    A    
C124  H127  S    
C93   H89   S    
C37   H13   S    
C142  C143  A    
C123  H126  S    
C50   H53   S    
C6    C118  S    
C14   H114  S    
C17   H23   S    
