data_mof_unit_36240.cif
_audit_creation_date              2012-12-10T19:06:10-0500
_audit_creation_method            fapswitch 2.2
_symmetry_space_group_name_H-M    P1
_symmetry_Int_Tables_number       1
_space_group_crystal_system       triclinic
_cell_length_a                    13.055247
_cell_length_b                    13.617475
_cell_length_c                    15.756747
_cell_angle_alpha                 89.89359
_cell_angle_beta                  92.57805
_cell_angle_gamma                 85.636936
_cell_volume                      2790.24248705

loop_
_atom_site_label
_atom_site_type_symbol
_atom_type_description
_atom_site_fract_x
_atom_site_fract_y
_atom_site_fract_z
_atom_type_partial_charge
C1    C     C_R   0.481103 0.685133 0.499073 0.902338
C2    C     C_1   0.145299 0.480463 0.482686 0.140570
C3    C     C_R   0.499300 0.499817 0.662282 0.896809
C4    C     C_R   0.500676 0.500187 0.337776 0.886703
C5    C     C_3   0.437048 0.597263 0.022854 0.395649
C6    C     C_3   0.552038 0.434274 0.977540 0.360835
C7    C     C_3   0.533973 0.596229 0.970017 0.401666
C8    C     C_3   0.454125 0.434923 0.028728 0.338916
C9    C     C_1   0.497256 0.502635 0.750834 -0.167567
C10   C     C_1   0.500985 0.506318 0.249386 -0.177819
C11   C     C_3   0.398185 0.512537 0.968565 0.033915
C12   C     C_R   0.518875 0.314855 0.500520 0.907642
C13   C     C_3   0.591330 0.519264 0.030508 -0.022374
C14   C     C_3   0.494954 0.511155 0.916299 -0.142319
C15   C     C_3   0.494302 0.519358 0.083894 -0.211387
C16   C     C_1   0.495894 0.506203 0.825795 0.107111
C17   C     C_1   0.498741 0.512857 0.174488 0.041292
C18   C     C_1   0.533947 0.211846 0.496739 -0.175311
C19   C     C_1   0.465708 0.788219 0.497986 -0.173143
C20   C     C_3   0.605322 0.746539 0.992204 0.124418
C21   C     C_3   0.549141 0.847185 0.972616 -0.299790
C22   C     C_3   0.578761 0.923311 0.038386 -1.028340
C23   C     C_2   0.542635 0.020080 0.487739 0.404637
C24   C     C_3   0.380385 0.287089 0.003864 0.069478
C25   C     C_3   0.375993 0.185717 0.044721 -0.334500
C26   C     C_3   0.341015 0.110339 0.980190 -0.972844
C27   C     C_3   0.385368 0.721457 0.118641 0.079342
C28   C     C_3   0.300999 0.689118 0.174631 -0.348323
C29   C     C_3   0.312913 0.729758 0.264393 -0.930086
C30   C     C_3   0.653420 0.293231 0.016286 0.090161
C31   C     C_3   0.700189 0.195557 0.982682 -0.338540
C32   C     C_3   0.749583 0.130727 0.054740 -0.987873
C33   C     C_3   0.775141 0.523686 0.006897 -0.745424
C34   C     C_2   0.452364 0.980777 0.495296 0.393232
C35   C     C_3   0.212708 0.518860 0.988066 -0.715647
C36   C     C_3   0.270652 0.992899 0.497758 0.111193
C37   C     C_3   0.238844 0.970892 0.405239 -0.370944
C38   C     C_3   0.143270 0.912946 0.399758 -0.954554
C39   C     C_3   0.698811 0.990516 0.422995 0.095480
C40   C     C_3   0.659777 0.960749 0.334051 -0.385604
C41   C     C_3   0.734762 0.984623 0.266790 -0.957827
C42   C     C_1   0.455854 0.875623 0.496910 -0.078390
C43   C     C_1   0.542224 0.124567 0.492523 -0.052570
C44   C     C_2   0.033293 0.473007 0.476039 -0.246805
C45   C     C_2   0.966682 0.527270 0.523708 -0.241022
C46   C     C_1   0.854687 0.519672 0.517190 0.144642
H1    H     H_    0.996185 0.579106 0.569209 0.167479
H2    H     H_    0.433141 0.279565 0.950259 0.167275
H3    H     H_    0.302178 0.312177 0.978251 0.152798
H4    H     H_    0.453427 0.160151 0.072053 0.219463
H5    H     H_    0.321598 0.191140 0.097096 0.233482
H6    H     H_    0.263013 0.133686 0.952898 0.269788
H7    H     H_    0.338322 0.037787 0.011989 0.271494
H8    H     H_    0.395674 0.102073 0.928175 0.268230
H9    H     H_    0.377051 0.803072 0.113522 0.160733
H10   H     H_    0.463127 0.703124 0.148699 0.115275
H11   H     H_    0.224598 0.716442 0.146301 0.220419
H12   H     H_    0.003797 0.421167 0.430538 0.163883
H13   H     H_    0.303594 0.607514 0.177641 0.236109
H14   H     H_    0.388531 0.703207 0.294497 0.256823
H15   H     H_    0.251108 0.705023 0.303664 0.275182
H16   H     H_    0.306966 0.811435 0.262270 0.253578
H17   H     H_    0.594944 0.276951 0.062387 0.174069
H18   H     H_    0.715099 0.331565 0.050196 0.178302
H19   H     H_    0.639056 0.155917 0.949125 0.229908
H20   H     H_    0.759502 0.210040 0.936737 0.235918
H21   H     H_    0.811108 0.168799 0.089198 0.270302
H22   H     H_    0.784243 0.061030 0.028303 0.272190
H23   H     H_    0.689087 0.753179 0.987233 0.145653
H24   H     H_    0.690733 0.112974 0.099970 0.271856
H25   H     H_    0.699967 0.578141 0.112693 0.221072
H26   H     H_    0.851171 0.516869 0.041745 0.222208
H27   H     H_    0.768846 0.592872 0.969255 0.248254
H28   H     H_    0.771138 0.460490 0.962869 0.272460
H29   H     H_    0.289449 0.452874 0.887156 0.210656
H30   H     H_    0.138500 0.510007 0.952712 0.217596
H31   H     H_    0.208234 0.592934 0.017272 0.273808
H32   H     H_    0.223771 0.461855 0.038793 0.240226
H33   H     H_    0.208857 0.042868 0.524121 0.166133
H34   H     H_    0.593570 0.725596 0.059180 0.102171
H35   H     H_    0.275833 0.925668 0.538490 0.141911
H36   H     H_    0.222886 0.041357 0.369664 0.228750
H37   H     H_    0.302363 0.927679 0.374614 0.214900
H38   H     H_    0.158775 0.840953 0.432975 0.271297
H39   H     H_    0.121807 0.899025 0.332093 0.267497
H40   H     H_    0.077833 0.955272 0.428886 0.262240
H41   H     H_    0.776083 0.952140 0.436159 0.174950
H42   H     H_    0.710121 0.070649 0.425709 0.135268
H43   H     H_    0.650019 0.880356 0.333263 0.234179
H44   H     H_    0.583889 0.000585 0.317976 0.207047
H45   H     H_    0.569154 0.872188 0.908659 0.229174
H46   H     H_    0.743626 0.065082 0.265035 0.267985
H47   H     H_    0.704928 0.961463 0.203490 0.269120
H48   H     H_    0.811078 0.944643 0.280596 0.267326
H49   H     H_    0.464719 0.841351 0.972056 0.249318
H50   H     H_    0.552378 0.903487 0.101804 0.261917
H51   H     H_    0.542253 0.996854 0.019784 0.284183
H52   H     H_    0.663433 0.927370 0.042290 0.273280
N1    N     N_1   0.234530 0.484780 0.486590 -0.091705
N2    N     N_1   0.765470 0.515220 0.513410 -0.091090
N3    N     N_2   0.694582 0.524411 0.067081 -0.303476
N4    N     N_2   0.295629 0.509354 0.930087 -0.268963
O1    O     O_R   0.402510 0.634760 0.495090 -0.616626
O2    O     O_3   0.412561 0.353521 0.066588 -0.635964
O3    O     O_3   0.372187 0.683529 0.035910 -0.629237
O4    O     O_3   0.610091 0.350915 0.947215 -0.645444
O5    O     O_3   0.362132 0.042662 0.502263 -0.664637
O6    O     O_3   0.633970 0.959880 0.486050 -0.655832
O7    O     O_R   0.597490 0.365240 0.504910 -0.616085
O8    O     O_R   0.572960 0.644530 0.503700 -0.593345
O9    O     O_R   0.427040 0.355470 0.496300 -0.592461
O10   O     O_R   0.414790 0.495120 0.618920 -0.612105
O11   O     O_R   0.585210 0.504880 0.381080 -0.616308
O12   O     O_R   0.585240 0.504900 0.627530 -0.599227
O13   O     O_R   0.414760 0.495100 0.372470 -0.603363
O14   O     O_3   0.574095 0.677664 0.931053 -0.620789
Zn1   Zn    Zn3+2 0.386190 0.493480 0.494250 0.980099
Zn2   Zn    Zn3+2 0.613810 0.506520 0.505750 0.984399

loop_
_geom_bond_atom_site_label_1
_geom_bond_atom_site_label_2
_ccdc_geom_bond_type
C31   H20   S    
C22   H52   S    
C30   H18   S    
C4    O13   A    
C34   C42   S    
C39   H41   S    
C35   N4    S    
O8    Zn2   S    
C5    O3    S    
C28   H11   S    
C38   H40   S    
C33   N3    S    
C34   O5    S    
C28   C29   S    
C9    C16   T    
C5    C11   S    
C30   C31   S    
C11   C14   S    
C27   H9    S    
C6    C14   S    
C27   O3    S    
C10   C17   T    
C23   C43   S    
C31   H19   S    
C25   H4    S    
C33   H26   S    
C7    C14   S    
C41   H47   S    
C41   H48   S    
C2    C44   S    
O13   Zn1   S    
H29   N4    S    
C40   H43   S    
C1    O1    A    
C19   C42   T    
C32   H22   S    
H25   N3    S    
C3    O12   A    
C22   H51   S    
C21   C22   S    
C30   O4    S    
C36   O5    S    
O1    Zn1   S    
C39   H42   S    
C26   H8    S    
C12   O7    A    
O7    Zn2   S    
C45   H1    S    
C39   O6    S    
C29   H15   S    
C35   H30   S    
C1    C19   S    
C20   H34   S    
C38   H39   S    
C24   H2    S    
C4    O11   A    
C24   C25   S    
C44   H12   S    
C39   C40   S    
C5    C7    S    
C27   H10   S    
C6    C8    S    
C21   H49   S    
C36   H35   S    
C25   C26   S    
C45   C46   S    
C35   H31   S    
C24   O2    S    
C7    O14   S    
C25   H5    S    
C37   C38   S    
C3    C9    S    
C26   H6    S    
C1    O8    A    
N1    Zn1   S    
C31   C32   S    
C29   H14   S    
C3    O10   A    
C23   C34   D    
C6    O4    S    
C8    O2    S    
O12   Zn2   S    
C32   H21   S    
C33   H27   S    
C40   C41   S    
C2    N1    T    
C8    C15   S    
C13   C15   S    
C14   C16   S    
C20   H23   S    
N2    Zn2   S    
C13   N3    S    
C26   H7    S    
C44   C45   D    
C20   O14   S    
C21   H45   S    
C28   H13   S    
C24   H3    S    
C15   C17   S    
C46   N2    T    
C29   H16   S    
C36   C37   S    
C38   H38   S    
C22   H50   S    
C36   H33   S    
C32   H24   S    
C35   H32   S    
O9    Zn1   S    
C18   C43   T    
C6    C13   S    
O10   Zn1   S    
C8    C11   S    
C23   O6    S    
C11   N4    S    
C37   H36   S    
C5    C15   S    
O11   Zn2   S    
C33   H28   S    
C7    C13   S    
C41   H46   S    
C20   C21   S    
C12   C18   S    
C27   C28   S    
C37   H37   S    
C40   H44   S    
C30   H17   S    
C4    C10   S    
C12   O9    A    
