data_mof_unit_36380.cif
_audit_creation_date              2012-12-11T15:43:04-0500
_audit_creation_method            fapswitch 2.2
_symmetry_space_group_name_H-M    P1
_symmetry_Int_Tables_number       1
_space_group_crystal_system       triclinic
_cell_length_a                    19.208286
_cell_length_b                    11.214957
_cell_length_c                    18.678617
_cell_angle_alpha                 90.38103
_cell_angle_beta                  89.947739
_cell_angle_gamma                 90.315174
_cell_volume                      4023.59817647

loop_
_atom_site_label
_atom_site_type_symbol
_atom_type_description
_atom_site_fract_x
_atom_site_fract_y
_atom_site_fract_z
_atom_type_partial_charge
C1    C     C_R   0.713162 0.337789 0.137673 0.531923
C2    C     C_R   0.965440 0.965518 0.061968 0.153574
C3    C     C_R   0.746488 0.413854 0.577901 0.025383
C4    C     C_R   0.728373 0.375534 0.353382 0.554474
C5    C     C_R   0.271328 0.375115 0.646548 0.559618
C6    C     C_R   0.228367 0.875515 0.353391 0.550271
C7    C     C_R   0.771336 0.875091 0.646537 0.541946
C8    C     C_R   0.531252 0.156374 0.352440 0.547689
C9    C     C_R   0.437155 0.152498 0.639510 0.561701
C10   C     C_R   0.031248 0.656373 0.352439 0.551961
C11   C     C_R   0.937150 0.652495 0.639513 0.557628
C12   C     C_R   0.742053 0.970885 0.353455 0.562875
C13   C     C_R   0.539325 0.480230 0.002040 0.113466
C14   C     C_R   0.258124 0.970608 0.646545 0.556753
C15   C     C_R   0.242052 0.470888 0.353459 0.554447
C16   C     C_R   0.758120 0.470595 0.646552 0.564845
C17   C     C_R   0.469761 0.172423 0.937169 -0.006750
C18   C     C_R   0.479047 0.169012 0.087244 0.009474
C19   C     C_R   0.998374 0.665443 0.926088 0.033798
C20   C     C_R   0.999201 0.653092 0.075831 0.022518
C21   C     C_R   0.486012 0.282845 0.976481 -0.052076
C22   C     C_R   0.477445 0.277753 0.052370 -0.034361
C23   C     C_R   0.996884 0.773204 0.968508 -0.010117
C24   C     C_R   0.519134 0.472832 0.074589 0.154939
C25   C     C_R   0.985933 0.759803 0.042854 -0.014542
C26   C     C_R   0.447968 0.074255 0.052108 -0.129018
C27   C     C_R   0.444559 0.074578 0.977578 -0.147225
C28   C     C_R   0.998076 0.549681 0.035058 -0.141492
C29   C     C_R   0.001327 0.555195 0.961732 -0.153020
C30   C     C_R   0.747191 0.934988 0.917828 0.001881
C31   C     C_R   0.227775 0.850122 0.063907 0.042055
C32   C     C_R   0.278965 0.358305 0.935738 -0.010046
C33   C     C_R   0.727282 0.384944 0.067230 0.036989
C34   C     C_R   0.689338 0.893660 0.955122 0.045874
C35   C     C_R   0.194183 0.790804 0.005914 -0.012568
C36   C     C_R   0.217936 0.331630 0.971355 0.030724
C37   C     C_R   0.288089 0.333147 0.860974 0.566087
C38   C     C_R   0.688225 0.348716 0.007158 -0.019169
C39   C     C_R   0.684255 0.914222 0.029084 0.079226
C40   C     C_R   0.213152 0.820404 0.936042 0.066100
C41   C     C_R   0.211129 0.357120 0.043204 0.044209
C42   C     C_R   0.711610 0.379230 0.939920 0.090789
C43   C     C_R   0.790974 0.030281 0.024466 0.051010
C44   C     C_R   0.256614 0.002643 0.980482 0.020932
C45   C     C_R   0.321400 0.459562 0.040946 0.056696
C46   C     C_R   0.786302 0.526836 0.991589 0.041812
C47   C     C_R   0.796576 0.005475 0.953001 -0.129103
C48   C     C_R   0.211053 0.827666 0.138580 0.546206
C49   C     C_R   0.265126 0.954982 0.048370 -0.090247
C50   C     C_R   0.332677 0.416079 0.972834 -0.144949
C51   C     C_R   0.772427 0.482508 0.059831 -0.044224
C52   C     C_3   0.616673 0.933583 0.941489 -0.245475
C53   C     C_3   0.192813 0.663656 0.983648 -0.286340
C54   C     C_3   0.145015 0.369821 0.955975 -0.229753
C55   C     C_3   0.669964 0.228092 0.980044 -0.284487
C56   C     C_3   0.610306 0.953807 0.020877 -0.017529
C57   C     C_3   0.223190 0.696672 0.911486 -0.037562
C58   C     C_3   0.138313 0.395746 0.035478 -0.026390
C59   C     C_R   0.768614 0.881088 0.851153 0.579615
C60   C     C_3   0.707618 0.256474 0.910895 -0.025613
C61   C     C_R   0.737099 0.978178 0.065304 0.014784
C62   C     C_R   0.251596 0.922756 0.923101 0.033823
C63   C     C_R   0.261652 0.419654 0.079828 0.008624
C64   C     C_R   0.761810 0.466029 0.930691 0.048129
C65   C     C_R   0.527388 0.154884 0.149983 0.536586
C66   C     C_R   0.461270 0.156879 0.857832 0.572925
C67   C     C_R   0.032666 0.652519 0.146587 0.551193
C68   C     C_R   0.968499 0.656164 0.853217 0.600954
C69   C     C_R   0.450625 0.158208 0.562833 0.013537
C70   C     C_R   0.514188 0.395205 0.950640 0.075596
C71   C     C_R   0.489513 0.160730 0.417794 0.024810
C72   C     C_R   0.950616 0.658201 0.562837 0.014768
C73   C     C_R   0.989514 0.660727 0.417801 0.025766
C74   C     C_R   0.456289 0.052159 0.524087 0.016530
C75   C     C_R   0.474930 0.053304 0.453057 0.030477
C76   C     C_R   0.956286 0.552153 0.524091 0.016183
C77   C     C_R   0.974928 0.553298 0.453061 0.031589
C78   C     C_R   0.473022 0.268146 0.452723 -0.152831
C79   C     C_R   0.454343 0.266893 0.525487 -0.155116
C80   C     C_R   0.973031 0.768142 0.452737 -0.152713
C81   C     C_R   0.476105 0.380257 0.094643 0.105978
C82   C     C_R   0.954336 0.766886 0.525495 -0.154400
C83   C     C_3   0.500369 0.945522 0.539462 -0.267807
C84   C     C_3   0.519904 0.945536 0.461443 -0.267266
C85   C     C_3   0.000375 0.445526 0.539470 -0.267599
C86   C     C_3   0.019908 0.445541 0.461450 -0.267836
C87   C     C_R   0.759538 0.899557 0.571558 0.025331
C88   C     C_R   0.238682 0.899211 0.428624 0.020990
C89   C     C_R   0.259534 0.399591 0.571565 0.022688
C90   C     C_R   0.738687 0.399241 0.428614 0.020657
C91   C     C_R   0.815906 0.944439 0.533205 0.025695
C92   C     C_R   0.001117 0.892040 0.942379 0.119347
C93   C     C_R   0.179010 0.915546 0.470421 0.037262
C94   C     C_R   0.315916 0.444404 0.533201 0.022914
C95   C     C_R   0.679013 0.415528 0.470414 0.035953
C96   C     C_R   0.815194 0.951156 0.460237 0.029309
C97   C     C_R   0.182250 0.922387 0.543553 0.031456
C98   C     C_R   0.315209 0.451089 0.460230 0.030544
C99   C     C_R   0.682250 0.422353 0.543548 0.032535
C100  C     C_R   0.703207 0.852893 0.458230 -0.170679
C101  C     C_R   0.304574 0.876291 0.537609 -0.171157
C102  C     C_R   0.203190 0.352938 0.458242 -0.170919
C103  C     C_R   0.956396 0.849602 0.083498 0.110816
C104  C     C_R   0.804584 0.376346 0.537599 -0.172520
C105  C     C_R   0.704597 0.845970 0.533126 -0.167259
C106  C     C_R   0.301175 0.871608 0.463004 -0.175193
C107  C     C_R   0.204576 0.346044 0.533140 -0.167303
C108  C     C_R   0.801187 0.371680 0.462993 -0.174748
C109  C     C_3   0.855001 0.058471 0.542880 -0.278878
C110  C     C_3   0.123594 0.007820 0.465599 -0.267622
C111  C     C_3   0.355060 0.558393 0.542856 -0.278765
C112  C     C_3   0.623569 0.507750 0.465592 -0.267252
C113  C     C_R   0.729173 0.013961 0.139712 0.550581
C114  C     C_R   0.985849 0.989191 0.989611 0.134462
C115  C     C_R   0.258642 0.969283 0.851625 0.575545
C116  C     C_R   0.242359 0.472841 0.147403 0.556982
C117  C     C_R   0.770879 0.513406 0.860137 0.590797
C118  C     C_3   0.855363 0.066416 0.462157 -0.267558
C119  C     C_3   0.125722 0.014062 0.546488 -0.266538
C120  C     C_3   0.355439 0.566287 0.462129 -0.266531
C121  C     C_3   0.625690 0.513971 0.546485 -0.266270
C122  C     C_R   0.755882 0.916200 0.421973 0.026837
C123  C     C_R   0.246486 0.913851 0.577904 0.026085
C124  C     C_R   0.255882 0.416189 0.421974 0.026767
Cr1   Cr    Cr6+3 0.772010 0.169670 0.250090 1.076406
Cr2   Cr    Cr6+3 0.383290 0.010760 0.749160 1.028290
Cr3   Cr    Cr6+3 0.116710 0.510760 0.250840 1.056968
Cr4   Cr    Cr6+3 0.883290 0.510760 0.749160 1.049311
Cr5   Cr    Cr6+3 0.227990 0.169670 0.749910 1.061144
Cr6   Cr    Cr6+3 0.272010 0.669670 0.250090 1.070004
Cr7   Cr    Cr6+3 0.727990 0.669670 0.749910 1.062742
Cr8   Cr    Cr6+3 0.615000 0.323260 0.249260 1.060102
Cr9   Cr    Cr6+3 0.385000 0.323260 0.750740 1.060788
Cr10  Cr    Cr6+3 0.115000 0.823260 0.249260 1.066557
Cr11  Cr    Cr6+3 0.885000 0.823260 0.750740 1.063106
Cr12  Cr    Cr6+3 0.616710 0.010760 0.250840 1.065418
H1    H     H_    0.970129 0.365267 0.554936 0.128528
H2    H     H_    0.354142 0.861798 0.562999 0.137340
H3    H     H_    0.158278 0.318497 0.429745 0.125197
H4    H     H_    0.854154 0.361874 0.562987 0.136965
H5    H     H_    0.823109 0.128395 0.569402 0.152221
H6    H     H_    0.142182 0.090890 0.439432 0.142594
H7    H     H_    0.323190 0.628372 0.569355 0.153598
H8    H     H_    0.642134 0.590840 0.439431 0.144162
H9    H     H_    0.824740 0.142604 0.442431 0.170279
H10   H     H_    0.143107 0.102573 0.566217 0.159349
H11   H     H_    0.324866 0.642520 0.442384 0.171001
H12   H     H_    0.075849 0.466085 0.453005 0.159353
H13   H     H_    0.643043 0.602492 0.566227 0.158706
H14   H     H_    0.908209 0.057414 0.438459 0.134298
H15   H     H_    0.077508 0.979118 0.572032 0.144923
H16   H     H_    0.408282 0.557179 0.438438 0.135437
H17   H     H_    0.577486 0.478972 0.572022 0.146414
H18   H     H_    0.111523 0.297561 0.935617 0.217591
H19   H     H_    0.613408 0.217054 0.972919 0.151412
H20   H     H_    0.583066 0.861320 0.919679 0.200789
H21   H     H_    0.137960 0.634590 0.979175 0.146119
H22   H     H_    0.601448 0.047277 0.036613 0.102720
H23   H     H_    0.470117 0.865268 0.554925 0.128374
H24   H     H_    0.279274 0.673780 0.906655 0.168321
H25   H     H_    0.131040 0.489779 0.050185 0.112812
H26   H     H_    0.760364 0.217540 0.907412 0.154060
H27   H     H_    0.429479 0.998393 0.082005 0.176302
H28   H     H_    0.423173 0.995794 0.951721 0.168530
H29   H     H_    0.995600 0.464159 0.060001 0.203740
H30   H     H_    0.001211 0.470762 0.933270 0.185723
H31   H     H_    0.479727 0.352437 0.425831 0.127837
H32   H     H_    0.447775 0.350527 0.553476 0.136847
H33   H     H_    0.979753 0.852440 0.425860 0.125489
H34   H     H_    0.575848 0.966062 0.452997 0.159140
H35   H     H_    0.947762 0.850523 0.553483 0.136969
H36   H     H_    0.662015 0.802914 0.560812 0.123293
H37   H     H_    0.347381 0.849582 0.432477 0.129316
H38   H     H_    0.161980 0.303037 0.560832 0.123866
H39   H     H_    0.847396 0.349679 0.432464 0.130030
H40   H     H_    0.907671 0.045993 0.566026 0.137323
H41   H     H_    0.073996 0.971523 0.444362 0.142235
H42   H     H_    0.407719 0.545879 0.566016 0.137463
H43   H     H_    0.573987 0.471410 0.444341 0.143365
H44   H     H_    0.839276 0.045951 0.923951 0.188837
H45   H     H_    0.545282 0.966437 0.575064 0.165711
H46   H     H_    0.283694 0.012203 0.091393 0.152921
H47   H     H_    0.378694 0.445960 0.944863 0.179792
H48   H     H_    0.794693 0.525763 0.106608 0.175937
H49   H     H_    0.614131 0.017136 0.910220 0.141505
H50   H     H_    0.226677 0.610320 0.017103 0.134347
H51   H     H_    0.143254 0.450255 0.922258 0.148135
H52   H     H_    0.692904 0.162136 0.013633 0.101731
H53   H     H_    0.499412 0.866957 0.431402 0.140284
H54   H     H_    0.045286 0.466455 0.575072 0.167925
H55   H     H_    0.999422 0.366956 0.431411 0.140518
H56   H     H_    0.658304 0.818427 0.429729 0.125819
I1    I     I_    0.520439 0.461388 0.842370 -0.212463
I2    I     I_    0.158779 0.077662 0.990748 -0.305374
I3    I     I_    0.374280 0.627966 0.055643 -0.326343
I4    I     I_    0.828318 0.695965 0.984679 -0.363226
I5    I     I_    0.536744 0.840157 0.068547 -0.262765
I6    I     I_    0.162571 0.648665 0.819599 -0.347473
I7    I     I_    0.081681 0.288212 0.105381 -0.223258
I8    I     I_    0.650797 0.229777 0.813941 -0.327356
I9    I     I_    0.420254 0.378449 0.195877 -0.270318
I10   I     I_    0.051662 0.930230 0.841745 -0.206575
I11   I     I_    0.888719 0.802090 0.172726 -0.249072
I12   I     I_    0.985979 0.164789 0.944525 -0.307984
I13   I     I_    0.970677 0.074850 0.155758 -0.161219
I14   I     I_    0.611394 0.614140 0.971285 -0.262979
I15   I     I_    0.556261 0.582767 0.160536 -0.155383
I16   I     I_    0.842855 0.190243 0.050643 -0.331448
O1    O     O_R   0.787520 0.042810 0.170440 -0.442648
O2    O     O_R   0.454050 0.051210 0.669140 -0.506193
O3    O     O_R   0.045950 0.551210 0.330860 -0.513841
O4    O     O_R   0.954050 0.551210 0.669140 -0.508575
O5    O     O_R   0.681390 0.959480 0.325510 -0.503516
O6    O     O_R   0.318610 0.959480 0.674490 -0.521639
O7    O     O_R   0.181390 0.459480 0.325510 -0.505869
O8    O     O_R   0.818610 0.459480 0.674490 -0.520938
O9    O     O_3   0.667900 0.167900 0.250060 -0.317725
O10   O     O_3   0.332100 0.167900 0.749940 -0.324407
O11   O     O_3   0.167900 0.667900 0.250060 -0.307520
O12   O     O_R   0.212480 0.042810 0.829560 -0.459782
O13   O     O_3   0.832100 0.667900 0.749940 -0.313786
O14   O     O_R   0.765640 0.292100 0.175020 -0.474421
O15   O     O_R   0.234360 0.292100 0.824980 -0.473208
O16   O     O_R   0.265640 0.792100 0.175020 -0.479498
O17   O     O_R   0.734360 0.792100 0.824980 -0.485329
O18   O     O_R   0.670190 0.408840 0.168540 -0.476662
O19   O     O_R   0.329810 0.408840 0.831460 -0.501092
O20   O     O_R   0.170190 0.908840 0.168540 -0.469176
O21   O     O_R   0.829810 0.908840 0.831460 -0.506127
O22   O     O_R   0.556620 0.251410 0.175160 -0.500191
O23   O     O_R   0.287520 0.542810 0.170440 -0.468448
O24   O     O_R   0.443380 0.251410 0.824840 -0.474313
O25   O     O_R   0.056620 0.751410 0.175160 -0.494772
O26   O     O_R   0.943380 0.751410 0.824840 -0.461022
O27   O     O_R   0.545960 0.049620 0.170320 -0.489732
O28   O     O_R   0.454040 0.049620 0.829680 -0.505314
O29   O     O_R   0.045960 0.549620 0.170320 -0.500438
O30   O     O_R   0.954040 0.549620 0.829680 -0.506309
O31   O     O_R   0.681390 0.958010 0.176690 -0.461876
O32   O     O_R   0.318610 0.958010 0.823310 -0.513945
O33   O     O_R   0.181390 0.458010 0.176690 -0.484997
O34   O     O_R   0.712480 0.542810 0.829560 -0.448960
O35   O     O_R   0.818610 0.458010 0.823310 -0.487586
O36   O     O_R   0.787510 0.044390 0.330970 -0.509247
O37   O     O_R   0.212490 0.044390 0.669030 -0.514278
O38   O     O_R   0.287510 0.544390 0.330970 -0.509382
O39   O     O_R   0.712490 0.544390 0.669030 -0.509873
O40   O     O_R   0.765630 0.293570 0.323840 -0.507496
O41   O     O_R   0.234370 0.293570 0.676160 -0.504930
O42   O     O_R   0.265630 0.793570 0.323840 -0.507991
O43   O     O_R   0.734370 0.793570 0.676160 -0.516171
O44   O     O_R   0.670190 0.410420 0.329080 -0.501053
O45   O     O_R   0.556610 0.252880 0.323980 -0.492925
O46   O     O_R   0.329810 0.410420 0.670920 -0.513385
O47   O     O_R   0.170190 0.910420 0.329080 -0.507931
O48   O     O_R   0.829810 0.910420 0.670920 -0.521756
O49   O     O_R   0.443390 0.252880 0.676020 -0.485221
O50   O     O_R   0.056610 0.752880 0.323980 -0.497654
O51   O     O_R   0.943390 0.752880 0.676020 -0.491905
O52   O     O_R   0.545950 0.051210 0.330860 -0.518515

loop_
_geom_bond_atom_site_label_1
_geom_bond_atom_site_label_2
_ccdc_geom_bond_type
C3    C104  A    
C45   I3    S    
Cr12  O27   S    
C8    O52   A    
C105  H36   S    
C87   C91   A    
C57   I6    S    
C35   C53   S    
C8    O45   A    
C20   C67   S    
C19   C23   A    
C50   H47   S    
C18   C26   A    
C59   O21   A    
C100  C105  A    
C74   C83   S    
C72   C76   A    
Cr2   O32   S    
C7    O48   A    
Cr6   O38   S    
C109  H40   S    
C1    C33   S    
C90   C95   A    
Cr5   O37   S    
Cr1   O14   S    
C68   O26   A    
C119  H10   S    
C98   C124  A    
C83   H45   S    
C86   H55   S    
C101  C123  A    
C121  H17   S    
C65   O22   A    
Cr8   O44   S    
C32   C36   A    
C96   C118  S    
C28   C29   A    
C2    C103  A    
C9    C69   S    
C41   C58   S    
C38   C42   A    
Cr5   O12   S    
C84   H34   S    
C95   C112  S    
C115  O32   A    
C11   O4    A    
C10   C73   S    
C95   C99   A    
C75   C84   S    
C20   C25   A    
C94   C98   A    
Cr4   O30   S    
Cr10  O11   S    
C108  H39   S    
C66   O24   A    
C94   C111  S    
C40   C62   A    
C14   O6    A    
Cr1   O36   S    
C110  H6    S    
Cr8   O9    S    
C73   C80   A    
C89   C94   A    
C16   O8    A    
C4    O40   A    
C56   H22   S    
Cr2   O6    S    
C91   C96   A    
C82   H35   S    
C52   C56   S    
Cr10  O25   S    
C7    C87   S    
C38   C55   S    
C83   C84   S    
C12   O36   A    
Cr3   O33   S    
Cr12  O52   S    
C111  H42   S    
C60   H26   S    
C10   O50   A    
C40   C57   S    
Cr11  O48   S    
Cr2   O28   S    
C4    C90   S    
C111  H7    S    
C93   C110  S    
C99   C121  S    
C14   O37   A    
C117  O34   A    
C66   O28   A    
C104  C108  A    
Cr9   O49   S    
C18   C22   A    
C55   C60   S    
C88   C93   A    
C5    C89   S    
Cr1   O1    S    
C36   C41   A    
C100  H56   S    
C12   O5    A    
C31   C49   A    
C102  C124  A    
C90   C108  A    
Cr7   O43   S    
C109  C118  S    
C80   H33   S    
Cr6   O42   S    
C119  H15   S    
C39   C61   A    
Cr5   O41   S    
C58   I7    S    
C120  H16   S    
C32   C37   S    
C74   C75   A    
C30   C34   A    
Cr3   O11   S    
C34   C39   A    
C17   C27   A    
C22   C81   A    
C5    O41   A    
C30   C47   A    
C102  C107  A    
C76   C77   A    
C4    O44   A    
C15   O7    A    
C51   H48   S    
Cr2   O2    S    
C42   C60   S    
C6    O42   A    
C11   C72   S    
C25   C103  A    
C81   I9    S    
Cr12  O9    S    
C20   C28   A    
C110  H41   S    
C44   C62   A    
C9    O49   A    
C85   C86   S    
C80   C82   A    
C46   C51   A    
C67   O29   A    
C44   C49   A    
C17   C21   A    
C64   C117  S    
C104  H4    S    
C13   C24   A    
C7    O43   A    
C111  C120  S    
C18   C65   S    
Cr10  O20   S    
C29   H30   S    
C97   C119  S    
C55   H19   S    
C53   H50   S    
C19   C68   S    
C47   H44   S    
Cr8   O18   S    
C27   H28   S    
C88   C106  A    
Cr7   O17   S    
C93   C97   A    
Cr11  O21   S    
C39   C56   S    
C87   C105  A    
C15   O38   A    
C37   O19   A    
C9    O2    A    
Cr10  O50   S    
C30   C59   S    
C89   C107  A    
C78   H31   S    
Cr11  O26   S    
C12   C122  S    
C84   H53   S    
Cr7   O13   S    
C2    I13   S    
C65   O27   A    
C55   H52   S    
C98   C120  S    
C32   C50   A    
C1    O18   A    
C24   C81   A    
C28   H29   S    
Cr4   O8    S    
C112  H43   S    
C63   C116  S    
Cr8   O45   S    
Cr3   O3    S    
C15   C124  S    
C5    O46   A    
C77   C86   S    
Cr3   O29   S    
C37   O15   A    
C54   H51   S    
C13   I14   S    
C116  O23   A    
C26   C27   A    
C79   H32   S    
C114  I12   S    
C115  O12   A    
C69   C79   A    
C33   C51   A    
C52   H49   S    
C41   C63   A    
C19   C29   A    
C85   H1    S    
C69   C74   A    
C92   I10   S    
Cr11  O51   S    
C43   C61   A    
C56   I5    S    
C54   C58   S    
C16   O39   A    
C101  C106  A    
C3    C99   A    
C116  O33   A    
C67   O25   A    
Cr11  O13   S    
C53   C57   S    
C14   C123  S    
C112  C121  S    
C43   I16   S    
C78   C79   A    
C53   H21   S    
C57   H24   S    
C118  H9    S    
Cr9   O19   S    
C43   C47   A    
Cr1   O40   S    
Cr7   O34   S    
Cr8   O22   S    
C110  C119  S    
Cr10  O47   S    
C42   C64   A    
C109  H5    S    
C101  H2    S    
C46   I4    S    
C107  H38   S    
C52   H20   S    
C48   O16   A    
C24   I15   S    
C34   C52   S    
Cr9   O10   S    
C96   C122  A    
C21   C70   A    
C31   C48   S    
C112  H8    S    
Cr6   O16   S    
C35   C40   A    
C85   H54   S    
Cr9   O24   S    
C118  H14   S    
C62   C115  S    
C97   C123  A    
C6    C88   S    
Cr4   O13   S    
C26   H27   S    
C71   C75   A    
C2    C114  A    
C91   C109  S    
Cr9   O46   S    
C45   C63   A    
Cr6   O23   S    
C76   C85   S    
C70   I1    S    
C48   O20   A    
Cr5   O10   S    
C31   C35   A    
Cr7   O39   S    
C44   I2    S    
C117  O35   A    
C106  H37   S    
C121  H13   S    
C6    O47   A    
C100  C122  A    
C102  H3    S    
C23   C25   A    
C17   C66   S    
Cr6   O11   S    
C59   O17   A    
C86   H12   S    
C103  I11   S    
Cr12  O5    S    
C36   C54   S    
C60   I8    S    
C61   C113  S    
C113  O1    A    
C49   H46   S    
Cr3   O7    S    
Cr4   O4    S    
C10   O3    A    
C113  O31   A    
C83   H23   S    
C120  H11   S    
C13   C70   A    
Cr12  O31   S    
C46   C64   A    
Cr4   O35   S    
C73   C77   A    
C23   C92   A    
C1    O14   A    
C33   C38   A    
C68   O30   A    
C45   C50   A    
C54   H18   S    
C21   C22   A    
C58   H25   S    
C92   C114  A    
Cr5   O15   S    
C71   C78   A    
C72   C82   A    
C3    C16   S    
Cr2   O10   S    
C11   O51   A    
C8    C71   S    
Cr1   O9    S    
