data_mof_unit_38175.cif
_audit_creation_date              2012-12-10T19:07:39-0500
_audit_creation_method            fapswitch 2.2
_symmetry_space_group_name_H-M    P1
_symmetry_Int_Tables_number       1
_space_group_crystal_system       triclinic
_cell_length_a                    10.858891
_cell_length_b                    10.871964
_cell_length_c                    9.553012
_cell_angle_alpha                 89.924806
_cell_angle_beta                  90.969799
_cell_angle_gamma                 90.769685
_cell_volume                      1127.5404856

loop_
_atom_site_label
_atom_site_type_symbol
_atom_type_description
_atom_site_fract_x
_atom_site_fract_y
_atom_site_fract_z
_atom_type_partial_charge
C1    C     C_R   0.498911 0.262765 0.499885 0.800871
C2    C     C_R   0.940163 0.465396 0.623199 0.122652
C3    C     C_3   0.941822 0.532259 0.759765 -0.489437
C4    C     C_3   0.081072 0.531398 0.756409 -0.445094
C5    C     C_R   0.488079 0.061994 0.620301 0.138723
C6    C     C_R   0.497856 0.130220 0.498215 -0.104669
C7    C     C_R   0.506073 0.064883 0.371194 -0.223478
C8    C     C_R   0.504946 0.935865 0.371351 -0.180469
C9    C     C_R   0.497318 0.870028 0.498423 -0.110500
C10   C     C_R   0.488216 0.938050 0.620597 0.130222
C11   C     C_3   0.470304 0.929698 0.774699 -0.471148
C12   C     C_R   0.262523 0.496288 0.498866 0.793113
C13   C     C_3   0.470091 0.071246 0.774019 -0.483577
C14   C     C_R   0.545837 0.599038 0.074629 0.189757
C15   C     C_R   0.442475 0.409053 0.073378 -0.090415
C16   C     C_R   0.442239 0.409213 0.924607 -0.076450
C17   C     C_R   0.546250 0.598593 0.926814 0.184031
C18   C     C_3   0.675477 0.644401 0.922512 -0.575881
C19   C     C_3   0.675544 0.646732 0.081328 0.206789
C20   C     C_R   0.498655 0.737301 0.499844 0.821906
C21   C     C_R   0.737997 0.497098 0.500716 0.812069
C22   C     C_R   0.066978 0.464873 0.620987 0.124144
C23   C     C_R   0.129845 0.481221 0.496467 -0.096882
C24   C     C_R   0.062362 0.478626 0.369807 -0.215578
C25   C     C_R   0.933801 0.479205 0.371569 -0.194344
C26   C     C_R   0.871449 0.483235 0.499839 -0.097626
Cu1   Cu    Cu3+1 0.499990 0.499980 0.640670 0.943296
Cu2   Cu    Cu3+1 0.500010 0.500020 0.359330 0.955677
H1    H     H_    0.108135 0.483016 0.270027 0.165666
H2    H     H_    0.551207 0.891318 0.830817 0.190780
H3    H     H_    0.379240 0.110421 0.799795 0.188989
H4    H     H_    0.550954 0.113734 0.829142 0.203828
H5    H     H_    0.397693 0.334203 0.128149 0.139347
H6    H     H_    0.396924 0.334803 0.868287 0.134548
H7    H     H_    0.734627 0.572290 0.881482 0.194704
H8    H     H_    0.685533 0.735436 0.871231 0.197194
H9    H     H_    0.741317 0.581824 0.130242 0.148928
H10   H     H_    0.884351 0.482616 0.272569 0.154749
H11   H     H_    0.903739 0.626450 0.750848 0.207179
H12   H     H_    0.906104 0.473501 0.845660 0.191452
H13   H     H_    0.123092 0.624639 0.744681 0.202856
H14   H     H_    0.123352 0.473143 0.839515 0.195002
H15   H     H_    0.512809 0.112639 0.271982 0.164955
H16   H     H_    0.509131 0.888465 0.272315 0.180881
H17   H     H_    0.379869 0.887539 0.801416 0.198518
N1    N     N_R   0.500790 0.500930 0.147930 -0.203702
N2    N     N_R   0.500790 0.500890 0.852020 -0.173430
O1    O     O_R   0.500000 0.319640 0.618810 -0.586649
O2    O     O_R   0.500010 0.319680 0.381230 -0.594981
O3    O     O_R   0.319650 0.499970 0.618810 -0.583755
O4    O     O_R   0.319660 0.500010 0.381230 -0.586889
O5    O     O_R   0.499990 0.680320 0.618770 -0.580646
O6    O     O_R   0.500000 0.680360 0.381190 -0.562361
O7    O     O_R   0.680340 0.499990 0.618770 -0.577664
O8    O     O_R   0.680350 0.500030 0.381190 -0.584177
O9    O     O_3   0.685621 0.765838 0.138184 -0.706190
H18   H     H_    0.628259 0.820402 0.086025 0.313164

loop_
_geom_bond_atom_site_label_1
_geom_bond_atom_site_label_2
_ccdc_geom_bond_type
C19   O9    S    
Cu1   O1    S    
C12   O3    A    
C23   C24   A    
C1    O1    A    
C2    C22   A    
C6    C7    A    
C7    H15   S    
C25   H10   S    
C4    C22   S    
C18   H7    S    
C9    C20   S    
C5    C13   S    
C14   C17   A    
Cu1   O3    S    
C21   C26   S    
C17   C18   S    
Cu1   O7    S    
C3    H11   S    
C7    C8    A    
C2    C26   A    
O9    H18   S    
Cu2   O6    S    
C11   C13   S    
C12   C23   S    
Cu2   N1    S    
C5    C6    A    
C4    H14   S    
C11   H2    S    
C16   N2    A    
Cu2   O8    S    
C15   H5    S    
C3    H12   S    
C2    C3    S    
C10   C11   S    
C21   O7    A    
Cu2   O4    S    
C11   H17   S    
C4    H13   S    
C1    C6    S    
C8    H16   S    
C5    C10   A    
C12   O4    A    
C24   C25   A    
Cu1   O5    S    
C20   O5    A    
C18   C19   S    
C9    C10   A    
Cu1   N2    S    
Cu1   Cu2   S    
C21   O8    A    
C24   H1    S    
C20   O6    A    
C19   H9    S    
C15   N1    A    
C16   H6    S    
C25   C26   A    
C22   C23   A    
C13   H4    S    
C18   H8    S    
C14   C19   S    
C13   H3    S    
C3    C4    S    
C15   C16   A    
C17   N2    A    
C8    C9    A    
C14   N1    A    
Cu2   O2    S    
C1    O2    A    
