data_mof_unit_29758.cif
_audit_creation_date              2013-03-05T15:47:47-0500
_audit_creation_method            fapswitch 2.2
_symmetry_space_group_name_H-M    P1
_symmetry_Int_Tables_number       1
_space_group_crystal_system       triclinic
_cell_length_a                    10.673493
_cell_length_b                    13.041028
_cell_length_c                    11.678504
_cell_angle_alpha                 101.516983
_cell_angle_beta                  94.033374
_cell_angle_gamma                 90.421445
_cell_volume                      1588.51393858

loop_
_atom_site_label
_atom_site_type_symbol
_atom_site_description
_atom_site_fract_x
_atom_site_fract_y
_atom_site_fract_z
_atom_type_partial_charge
O1    O     O_R   0.506570 0.354460 0.582000 -0.591459
O2    O     O_R   0.493430 0.645540 0.418000 -0.588999
O3    O     O_R   0.490940 0.341410 0.386200 -0.548173
O4    O     O_R   0.509060 0.658590 0.613800 -0.543056
C1    C     C_R   0.498791 0.298441 0.477118 0.875956
C2    C     C_R   0.503138 0.701722 0.523190 0.893153
O5    O     O_R   0.327470 0.506520 0.597900 -0.593036
O6    O     O_R   0.672530 0.493480 0.402100 -0.600258
O7    O     O_R   0.311840 0.493460 0.402100 -0.573518
O8    O     O_R   0.688160 0.506540 0.597900 -0.568923
C3    C     C_R   0.262275 0.483769 0.497569 0.866798
C4    C     C_R   0.738894 0.512671 0.501827 0.849390
Cu1   Cu    Cu3+1 0.509250 0.507730 0.615930 1.034924
Cu2   Cu    Cu3+1 0.490750 0.492270 0.384070 1.030739
H1    H     H_    0.051884 0.406293 0.089106 0.196229
H2    H     H_    0.950381 0.576683 0.908943 0.196394
C5    C     C_R   0.121922 0.437646 0.699984 0.384616
C6    C     C_R   0.881220 0.549017 0.296384 0.388041
C7    C     C_R   0.076515 0.474733 0.809974 -0.279274
C8    C     C_R   0.925653 0.509257 0.186560 -0.281481
C9    C     C_R   0.977955 0.544080 0.821895 -0.290902
C10   C     C_R   0.024380 0.440026 0.175865 -0.291415
C11   C     C_R   0.915276 0.571277 0.723079 0.391700
C12   C     C_R   0.088328 0.415450 0.275518 0.361718
C13   C     C_R   0.951706 0.525108 0.609386 -0.091189
C14   C     C_R   0.050682 0.462485 0.388589 -0.096878
C15   C     C_R   0.067280 0.473596 0.600656 -0.100452
C16   C     C_R   0.934938 0.513979 0.396685 -0.096514
C17   C     C_R   0.877313 0.528115 0.504377 -0.050050
C18   C     C_R   0.125178 0.461834 0.493735 -0.050239
H3    H     H_    0.118093 0.450501 0.887316 0.199068
H4    H     H_    0.884043 0.532213 0.108486 0.196996
C19   C     C_R   0.504296 0.816618 0.538752 -0.108327
C20   C     C_R   0.497328 0.183920 0.462766 -0.126182
C21   C     C_R   0.499596 0.008416 0.344099 -0.251161
C22   C     C_R   0.499114 0.992176 0.657004 -0.290079
C23   C     C_R   0.507463 0.116964 0.352791 0.500641
C24   C     C_R   0.513090 0.883636 0.651194 0.473063
C25   C     C_R   0.490490 0.141003 0.563094 -0.238669
C26   C     C_R   0.497336 0.859211 0.437292 -0.249337
C27   C     C_R   0.494000 0.033319 0.555307 0.097560
C28   C     C_R   0.496154 0.966678 0.445076 0.091720
H5    H     H_    0.495395 0.808706 0.351264 0.185231
H6    H     H_    0.485759 0.191535 0.648479 0.197301
H7    H     H_    0.500803 0.956927 0.258943 0.144483
H8    H     H_    0.496611 0.046382 0.739739 0.146946
N1    N     N_R   0.523180 0.519350 0.790130 -0.175299
N2    N     N_R   0.476820 0.480650 0.209870 -0.179751
C29   C     C_R   0.553463 0.375517 0.033615 -0.313254
C30   C     C_R   0.446681 0.624757 0.966322 -0.329392
C31   C     C_R   0.529016 0.391120 0.152082 0.185538
C32   C     C_R   0.470327 0.608974 0.847591 0.185836
C33   C     C_R   0.448115 0.558437 0.149675 0.101633
C34   C     C_R   0.552429 0.441833 0.850479 0.102639
C35   C     C_R   0.473244 0.546458 0.029332 0.084570
C36   C     C_R   0.527286 0.453913 0.970748 0.084959
H9    H     H_    0.589550 0.369246 0.804747 0.104338
H10   H     H_    0.411158 0.631050 0.195485 0.107640
H11   H     H_    0.438557 0.668006 0.800568 0.167764
H12   H     H_    0.559178 0.332234 0.198896 0.168802
H13   H     H_    0.595957 0.303467 0.992671 0.127283
H14   H     H_    0.404048 0.696712 0.007285 0.140064
N3    N     N_R   0.213703 0.356328 0.688594 0.130722
O9    O     O_R   0.214462 0.286390 0.592093 -0.346023
O10   O     O_R   0.284101 0.342481 0.779616 -0.383913
N4    N     N_R   0.792618 0.632763 0.306470 0.133950
O11   O     O_R   0.722495 0.646425 0.215178 -0.387454
O12   O     O_R   0.794132 0.704199 0.401970 -0.345623
N5    N     N_R   0.825096 0.653502 0.740263 0.126114
O13   O     O_R   0.765659 0.672822 0.835555 -0.389492
O14   O     O_R   0.809526 0.714904 0.665415 -0.364916
N6    N     N_R   0.181872 0.335544 0.259883 0.132694
O15   O     O_R   0.199756 0.275096 0.335457 -0.343831
O16   O     O_R   0.238885 0.314545 0.163264 -0.348670
O17   O     O_3   0.532658 0.839104 0.750399 -0.597502
C37   C     C_3   0.590853 0.906363 0.851194 0.084151
H15   H     H_    0.597592 0.861246 0.922588 0.181292
H16   H     H_    0.530690 0.973174 0.884556 0.126636
C38   C     C_3   0.725733 0.940653 0.833728 -0.290178
H17   H     H_    0.788049 0.872636 0.827775 0.290676
H18   H     H_    0.729955 0.970992 0.751841 0.222670
C39   C     C_3   0.777458 0.025588 0.935597 -0.945635
H19   H     H_    0.720654 0.097072 0.940146 0.243065
H20   H     H_    0.875911 0.045851 0.922363 0.282432
H21   H     H_    0.776421 0.997418 0.019143 0.261012
O18   O     O_3   0.522692 0.157999 0.254065 -0.581643
C40   C     C_3   0.643366 0.134686 0.213322 0.005600
H22   H     H_    0.644388 0.157684 0.126980 0.168505
H23   H     H_    0.662004 0.049382 0.197592 0.146626
C41   C     C_3   0.748818 0.196611 0.295849 -0.433758
H24   H     H_    0.727202 0.281152 0.315220 0.222449
H25   H     H_    0.756891 0.168714 0.379913 0.215857
C42   C     C_3   0.874991 0.183251 0.241685 -0.784177
H26   H     H_    0.899033 0.099176 0.220666 0.266307
H27   H     H_    0.949049 0.225869 0.305166 0.285620
H28   H     H_    0.872167 0.215754 0.160565 0.249969

loop_
_geom_bond_atom_site_label_1
_geom_bond_atom_site_label_2
_geom_bond_distance
_ccdc_geom_bond_type
N4    O12   1.301683 A    
C35   C36   1.411882 A    
N3    O10   1.301321 A    
C42   H26   1.110760 S    
C4    C17   1.487025 S    
C20   C23   1.413078 A    
C27   C28   1.403832 A    
C11   N5    1.439786 S    
C37   C38   1.543498 S    
O7    Cu2   1.935671 S    
C7    H3    1.082737 S    
C25   C27   1.389971 A    
O5    C3    1.299461 A    
H2    C9    1.082672 S    
O1    C1    1.291653 A    
C16   C17   1.418429 A    
C21   C23   1.400312 A    
C37   H16   1.109588 S    
H1    C10   1.082615 S    
O4    Cu1   1.972499 S    
N5    O14   1.301500 A    
C21   C28   1.396557 A    
C26   H5    1.084545 S    
C3    C18   1.484792 S    
C29   C31   1.400990 A    
C30   C32   1.401691 A    
C22   H8    1.079429 S    
C26   C28   1.386412 A    
N4    O11   1.301602 A    
C42   H27   1.109005 S    
Cu1   Cu2   2.667938 S    
C15   C18   1.413537 A    
C22   C27   1.395421 A    
O2    C2    1.295466 A    
C24   O17   1.399848 S    
C33   C35   1.427432 A    
C13   C17   1.420784 A    
N2    C33   1.369724 A    
C34   C36   1.426501 A    
N2    C31   1.369984 A    
C19   C26   1.403242 A    
C29   H13   1.083785 S    
C20   C25   1.401668 A    
C5    C15   1.425328 A    
C23   O18   1.383337 S    
C6    C16   1.425743 A    
C37   H15   1.111124 S    
N6    O16   1.301603 A    
C38   H18   1.109067 S    
O18   C40   1.418459 S    
Cu2   N2    2.004458 S    
C38   H17   1.106599 S    
O17   C37   1.420447 S    
C32   H11   1.075020 S    
C41   H25   1.111209 S    
O6    C4    1.298370 A    
C1    C20   1.469063 S    
O7    C3    1.295068 A    
N1    C32   1.372733 A    
O3    Cu2   1.972502 S    
O8    C4    1.295816 A    
N1    C34   1.369048 A    
O4    C2    1.291873 A    
C8    C10   1.388745 A    
C14   C18   1.416708 A    
C42   H28   1.111124 S    
C39   H20   1.110423 S    
C9    C11   1.401234 A    
C13   C15   1.409223 A    
C30   H14   1.083569 S    
C10   C12   1.401222 A    
O1    Cu1   1.958144 S    
C29   C36   1.391902 A    
C12   N6    1.442594 S    
C41   C42   1.524267 S    
Cu1   N1    2.004458 S    
C8    H4    1.082687 S    
O6    Cu2   1.936445 S    
C7    C9    1.388602 A    
C19   C24   1.421333 A    
C12   C14   1.426969 A    
N6    O15   1.301210 A    
O3    C1    1.293895 A    
O8    Cu1   1.935671 S    
C38   C39   1.522970 S    
C33   H10   1.082319 S    
C25   H6    1.084592 S    
C6    N4    1.442375 S    
C39   H21   1.109795 S    
C14   C16   1.410452 A    
C30   C35   1.392644 A    
C2    C19   1.472740 S    
C22   C24   1.413010 A    
C5    N3    1.441963 S    
C41   H24   1.109696 S    
C5    C7    1.400618 A    
C6    C8    1.400870 A    
C11   C13   1.426013 A    
N5    O13   1.301585 A    
O2    Cu2   1.958142 S    
N3    O9    1.301142 A    
O5    Cu1   1.936444 S    
C40   H22   1.108642 S    
C39   H19   1.110187 S    
C40   C41   1.539841 S    
C40   H23   1.112503 S    
C31   H12   1.067139 S    
C34   H9    1.082457 S    
C21   H7    1.084123 S    
