data_mof_unit_62958.cif
_audit_creation_date              2012-12-10T17:04:11-0500
_audit_creation_method            fapswitch 2.2
_symmetry_space_group_name_H-M    P1
_symmetry_Int_Tables_number       1
_space_group_crystal_system       triclinic
_cell_length_a                    19.079609
_cell_length_b                    18.409973
_cell_length_c                    18.90038
_cell_angle_alpha                 108.009159
_cell_angle_beta                  110.581238
_cell_angle_gamma                 109.032608
_cell_volume                      5157.87060342

loop_
_atom_site_label
_atom_site_type_symbol
_atom_type_description
_atom_site_fract_x
_atom_site_fract_y
_atom_site_fract_z
_atom_type_partial_charge
C1    C     C_R   0.613100 0.619525 0.494384 0.793299
C2    C     C_3   0.202828 0.420426 0.181860 0.340754
C3    C     C_3   0.206003 0.427842 0.266273 0.339289
C4    C     C_3   0.302840 0.492880 0.316418 -0.356631
C5    C     C_R   0.651750 0.806094 0.567904 0.098771
C6    C     C_R   0.691057 0.892770 0.631769 0.333957
C7    C     C_R   0.759520 0.956353 0.636138 0.355874
C8    C     C_R   0.782747 0.930535 0.573968 0.034339
C9    C     C_R   0.766430 0.842542 0.536291 -0.040297
C10   C     C_R   0.697692 0.778028 0.532103 -0.057360
C11   C     C_R   0.819486 0.818268 0.508678 0.019474
C12   C     C_R   0.376005 0.495517 0.381649 0.915503
C13   C     C_R   0.802185 0.729579 0.475934 -0.102246
C14   C     C_R   0.717931 0.666319 0.444615 -0.102488
C15   C     C_R   0.672851 0.688231 0.486082 -0.037105
C16   C     C_R   0.859510 0.698612 0.464184 0.043313
C17   C     C_R   0.825053 0.611000 0.402626 0.276449
C18   C     C_R   0.736156 0.556462 0.352575 0.307835
C19   C     C_R   0.682395 0.584569 0.372336 0.303539
C20   C     C_R   0.795134 0.645722 0.715852 0.221542
C21   C     C_R   0.873514 0.686354 0.720102 0.103599
C22   C     C_R   0.935119 0.662497 0.751582 0.296121
C23   C     C_R   0.372242 0.381608 0.489290 0.796002
C24   C     C_R   0.928456 0.623616 0.803675 0.143463
C25   C     C_R   0.843636 0.564378 0.782606 -0.007001
C26   C     C_R   0.774598 0.571193 0.729014 -0.037384
C27   C     C_R   0.822982 0.492525 0.801836 -0.036217
C28   C     C_R   0.737095 0.421707 0.752906 -0.041863
C29   C     C_R   0.670237 0.436787 0.712154 -0.036341
C30   C     C_R   0.688686 0.505607 0.691631 -0.005297
C31   C     C_R   0.714767 0.334895 0.739836 0.306989
C32   C     C_R   0.628405 0.272128 0.702871 0.141973
C33   C     C_R   0.564590 0.296742 0.683227 0.078690
C34   C     C_R   0.619776 0.500720 0.620206 0.790591
C35   C     C_R   0.586453 0.380806 0.691689 0.054536
C36   C     C_R   0.256501 0.417226 0.556224 0.342464
C37   C     C_R   0.241994 0.444686 0.625278 0.093628
C38   C     C_R   0.228825 0.392199 0.664710 0.123002
C39   C     C_R   0.218186 0.307468 0.627369 0.291563
C40   C     C_R   0.219392 0.274602 0.549041 -0.080838
C41   C     C_R   0.255962 0.336202 0.525474 -0.067962
C42   C     C_R   0.180541 0.183949 0.489988 0.000269
C43   C     C_R   0.188326 0.159599 0.414059 -0.079660
C44   C     C_R   0.248513 0.224222 0.407923 -0.092571
C45   C     C_3   0.283062 0.569356 0.328690 0.286529
C46   C     C_R   0.288959 0.313778 0.470575 -0.006701
C47   C     C_R   0.139006 0.072887 0.343230 0.266638
C48   C     C_R   0.169963 0.045237 0.289135 0.320671
C49   C     C_R   0.232811 0.107499 0.286614 0.288451
C50   C     C_R   0.260651 0.196131 0.335596 0.293457
C51   C     C_R   0.005329 0.620587 0.122302 0.807247
C52   C     C_R   0.121945 0.500072 0.124306 0.904639
C53   C     C_R   0.005068 0.381840 0.885576 0.852013
C54   C     C_R   0.885957 0.494663 0.877343 0.878754
C55   C     C_R   0.999817 0.879381 0.382198 0.830902
C56   C     C_3   0.185944 0.503769 0.276627 0.083565
C57   C     C_R   0.882758 0.881834 0.501995 0.796601
C58   C     C_R   0.997644 0.118082 0.617510 0.856925
C59   C     C_R   0.117914 0.117786 0.497203 0.901199
C60   C     C_R   0.168656 0.768264 0.279510 0.064387
C61   C     C_R   0.234804 0.805677 0.364622 0.297158
C62   C     C_R   0.226712 0.852900 0.431808 0.144936
C63   C     C_R   0.160434 0.873119 0.411180 0.269807
C64   C     C_R   0.082138 0.814924 0.331080 -0.029903
C65   C     C_R   0.085696 0.757076 0.264266 -0.074717
C66   C     C_R   0.002161 0.813252 0.315563 -0.027225
C67   C     C_3   0.185553 0.497792 0.193523 -0.380569
C68   C     C_R   0.926896 0.754492 0.232085 -0.060779
C69   C     C_R   0.935256 0.706577 0.164288 -0.048488
C70   C     C_R   0.008541 0.695390 0.184315 -0.004894
C71   C     C_R   0.843033 0.742661 0.211544 0.062527
C72   C     C_R   0.779927 0.709967 0.126379 0.318622
C73   C     C_R   0.795805 0.679483 0.060033 0.337400
C74   C     C_R   0.871937 0.676023 0.078380 0.249271
C75   C     C_R   0.940808 0.365900 0.711588 0.029546
C76   C     C_R   0.882692 0.336776 0.625888 0.334226
C77   C     C_R   0.887078 0.278949 0.561573 0.340903
C78   C     C_3   0.282016 0.563976 0.244901 0.074205
C79   C     C_R   0.942476 0.245403 0.585095 0.265959
C80   C     C_R   0.969431 0.245223 0.665650 -0.074817
C81   C     C_R   0.970517 0.309533 0.731881 -0.032327
C82   C     C_R   0.995585 0.185115 0.683171 -0.019737
C83   C     C_R   0.028821 0.196109 0.768111 -0.078247
C84   C     C_R   0.054626 0.276222 0.835231 -0.124136
C85   C     C_R   0.008330 0.320459 0.816768 0.044419
C86   C     C_R   0.047665 0.135720 0.791223 0.302042
C87   C     C_R   0.119205 0.167182 0.870413 0.292297
C88   C     C_R   0.167007 0.257138 0.926936 0.345715
C89   C     C_3   0.299507 0.485841 0.232046 0.270319
C90   C     C_R   0.131691 0.311481 0.913461 0.263880
Cu1   Cu    Cu3+1 0.500490 0.438210 0.438660 1.207384
Cu2   Cu    Cu3+1 0.499510 0.561790 0.561340 1.206130
Cu3   Cu    Cu3+1 0.942070 0.438200 0.003850 1.171263
Cu4   Cu    Cu3+1 0.065670 0.561760 0.003800 1.159270
Cu5   Cu    Cu3+1 0.062280 0.000030 0.562300 1.200899
Cu6   Cu    Cu3+1 0.937720 0.000000 0.437720 1.210977
O1    O     O_R   0.590580 0.537990 0.448200 -0.554034
O2    O     O_R   0.055380 0.642340 0.093300 -0.551609
O3    O     O_R   0.042560 0.447800 0.094700 -0.560345
O4    O     O_R   0.146930 0.552150 0.094670 -0.545788
O5    O     O_R   0.952370 0.357620 0.914350 -0.520782
O6    O     O_R   0.056740 0.461970 0.914310 -0.556556
O7    O     O_R   0.860810 0.447810 0.912980 -0.543779
O8    O     O_R   0.965190 0.552160 0.912950 -0.570657
O9    O     O_R   0.053330 0.909870 0.463140 -0.563251
O10   O     O_R   0.948140 0.909840 0.357940 -0.529342
O11   O     O_R   0.962430 0.909850 0.552620 -0.544849
O12   O     O_R   0.589760 0.642350 0.551790 -0.543977
O13   O     O_R   0.857240 0.909830 0.447420 -0.560985
O14   O     O_R   0.051860 0.090180 0.642080 -0.536387
O15   O     O_R   0.946670 0.090160 0.536880 -0.549353
O16   O     O_R   0.142760 0.090200 0.552610 -0.494633
O17   O     O_R   0.037570 0.090170 0.447410 -0.508965
O18   O     O_R   0.409540 0.447820 0.357340 -0.498590
O19   O     O_R   0.408720 0.552180 0.460940 -0.529873
O20   O     O_R   0.410240 0.357650 0.448210 -0.562312
O21   O     O_R   0.409420 0.462010 0.551800 -0.560504
O22   O     O_R   0.591280 0.447820 0.539060 -0.568642
O23   O     O_R   0.590460 0.552180 0.642660 -0.505961
O24   O     O_R   0.951000 0.537990 0.093340 -0.565909
I1    I     I_    0.090874 0.516359 0.307409 0.007642
Cl1   Cl    Cl    0.800899 0.068639 0.703477 -0.420914
I2    I     I_    0.755138 0.988318 0.493153 -0.092320
I3    I     I_    0.996015 0.767026 0.548465 -0.024814
Cl2   Cl    Cl    0.891972 0.570539 0.381708 -0.400723
Cl3   Cl    Cl    0.572831 0.528637 0.293502 -0.356350
I4    I     I_    0.434044 0.206063 0.636079 -0.099810
Cl4   Cl    Cl    0.740260 0.705992 0.723445 -0.454892
I5    I     I_    0.908117 0.798790 0.702590 -0.012013
Cl5   Cl    Cl    0.030924 0.703633 0.748142 -0.405404
I6    I     I_    0.034990 0.722684 0.931197 0.079408
Cl6   Cl    Cl    0.316215 0.657402 0.428019 -0.399732
Cl7   Cl    Cl    0.789843 0.297193 0.750911 -0.552965
I7    I     I_    0.595621 0.140982 0.680414 0.062428
I8    I     I_    0.506679 0.434444 0.710723 -0.118815
Cl8   Cl    Cl    0.264067 0.074235 0.209963 -0.308680
Cl9   Cl    Cl    0.257642 0.475895 0.497675 -0.452901
I9    I     I_    0.243109 0.567082 0.671067 0.052029
I10   I     I_    0.220647 0.438460 0.778868 -0.037223
Cl10  Cl    Cl    0.221360 0.253507 0.690064 -0.503994
Cl11  Cl    Cl    0.026785 0.013528 0.293916 -0.438838
Cl12  Cl    Cl    0.116679 0.933937 0.211324 -0.405911
I11   I     I_    0.352240 0.668219 0.227822 0.051696
Cl13  Cl    Cl    0.280498 0.259877 0.284359 -0.376106
Cl14  Cl    Cl    0.718237 0.642327 0.952734 -0.362776
I12   I     I_    0.217601 0.798629 0.199541 0.025413
Cl15  Cl    Cl    0.336931 0.817407 0.387095 -0.427781
I13   I     I_    0.327525 0.918350 0.562530 0.067503
Cl16  Cl    Cl    0.199102 0.986690 0.458528 -0.578313
I14   I     I_    0.793208 0.731340 0.292837 -0.191568
Cl17  Cl    Cl    0.680240 0.707282 0.101755 -0.344055
Cl18  Cl    Cl    0.894688 0.656234 0.995411 -0.530783
Cl19  Cl    Cl    0.271109 0.300243 0.012239 -0.244366
Cl20  Cl    Cl    0.372477 0.473747 0.198033 -0.289817
I15   I     I_    0.030657 0.501182 0.770799 -0.103831
Cl21  Cl    Cl    0.823103 0.390197 0.601317 -0.490878
Cl22  Cl    Cl    0.835370 0.260408 0.454871 -0.315992
Cl23  Cl    Cl    0.003364 0.243324 0.532954 -0.511485
Cl24  Cl    Cl    0.977248 0.022071 0.727991 -0.497477
Cl25  Cl    Cl    0.151867 0.094967 0.896123 -0.289467
Cl26  Cl    Cl    0.195089 0.425087 0.984727 -0.448250
Cl27  Cl    Cl    0.140756 0.315430 0.089636 -0.406065
Cl28  Cl    Cl    0.151060 0.339428 0.280500 -0.365208
Cl29  Cl    Cl    0.691826 0.452263 0.265198 -0.312975
I16   I     I_    0.519908 0.750726 0.484228 -0.026024
Cl30  Cl    Cl    0.643530 0.923128 0.692346 -0.353670

loop_
_geom_bond_atom_site_label_1
_geom_bond_atom_site_label_2
_ccdc_geom_bond_type
C34   O22   A    
C66   C68   A    
C87   C88   A    
C6    Cl30  S    
C88   Cl19  S    
Cu3   Cu4   S    
C73   C74   A    
Cu5   Cu6   S    
C31   Cl7   S    
Cu3   O7    S    
C79   Cl23  S    
C27   C54   S    
C7    C8    A    
Cu1   O20   S    
C28   C29   A    
C37   C38   A    
C84   C90   A    
C55   O9    A    
C83   C84   A    
C54   O8    A    
C36   C37   A    
Cu2   O23   S    
C20   Cl4   S    
Cu5   O16   S    
C58   C82   S    
C5    C6    A    
C71   I14   S    
Cu4   O2    S    
C65   C70   A    
C33   I4    S    
C87   Cl25  S    
C18   C19   A    
C49   C50   A    
C63   Cl16  S    
Cu5   O9    S    
C23   O20   A    
C18   Cl29  S    
C84   C85   A    
Cu2   O12   S    
C57   O13   A    
C31   C32   A    
C45   C56   S    
C44   C46   A    
C16   C17   A    
C41   C46   A    
C45   C78   S    
C1    C15   S    
C51   C70   S    
C5    I16   S    
C4    C12   S    
C9    C10   A    
Cu3   O3    S    
C3    Cl28  S    
C72   C73   A    
C12   O19   A    
C51   O2    A    
C40   C42   A    
Cu4   O8    S    
C23   C46   S    
C62   I13   S    
C13   C14   A    
C22   Cl5   S    
C74   Cl18  S    
C36   C41   A    
C61   C62   A    
C67   C78   S    
C60   I12   S    
C50   Cl13  S    
C17   C18   A    
C12   O18   A    
C4    C45   S    
C77   C79   A    
C78   C89   S    
Cu6   O15   S    
C30   C34   S    
C55   O10   A    
C58   O15   A    
C54   O7    A    
C24   C25   A    
C80   C82   A    
C2    C67   S    
C1    O1    A    
Cu1   Cu2   S    
C86   C87   A    
C68   C69   A    
C35   I8    S    
C90   Cl26  S    
C25   C26   A    
C76   Cl21  S    
Cu1   O1    S    
C63   C64   A    
C86   Cl24  S    
C73   Cl14  S    
C60   C61   A    
C64   C66   A    
C2    C89   S    
C75   C76   A    
C29   C30   A    
C3    C56   S    
C51   O24   A    
C47   C48   A    
Cu4   O4    S    
C53   O6    A    
C59   O17   A    
C72   Cl17  S    
C62   C63   A    
C59   O16   A    
C8    C9    A    
Cu1   O22   S    
C48   Cl12  S    
C69   C74   A    
C76   C77   A    
C9    C11   A    
C21   I5    S    
C52   C67   S    
Cu5   O11   S    
Cu2   O21   S    
C40   C41   A    
Cu3   O24   S    
C49   Cl8   S    
C88   C90   A    
C60   C65   A    
C26   C30   A    
C37   I9    S    
C43   C44   A    
C22   C24   A    
Cu6   O17   S    
C42   C43   A    
C7    Cl1   S    
Cu3   O5    S    
C3    C4    S    
C39   C40   A    
C55   C66   S    
C4    C89   S    
C36   Cl9   S    
C38   I10   S    
C44   C50   A    
C34   O23   A    
Cu6   O10   S    
C39   Cl10  S    
C48   C49   A    
C52   O3    A    
C57   O11   A    
C58   O14   A    
C14   C19   A    
C28   C31   A    
C75   C81   A    
C80   C81   A    
Cu5   O14   S    
C42   C59   S    
C23   O21   A    
C8    I2    S    
C6    C7    A    
C25   C27   A    
C56   C67   S    
Cu6   O13   S    
C29   C35   A    
C19   Cl3   S    
C53   O5    A    
Cu1   O18   S    
C10   C15   A    
C56   I1    S    
C2    C3    S    
C16   I3    S    
C71   C72   A    
C11   C57   S    
C78   I11   S    
C32   C33   A    
C32   I7    S    
C11   C13   A    
C24   I6    S    
C17   Cl2   S    
C89   Cl20  S    
C38   C39   A    
C20   C26   A    
C68   C71   A    
C64   C65   A    
C33   C35   A    
C52   O4    A    
C47   Cl11  S    
C61   Cl15  S    
C69   C70   A    
Cu2   O19   S    
C1    O12   A    
C79   C80   A    
C75   I15   S    
C5    C10   A    
C83   C86   A    
C20   C21   A    
Cu4   O6    S    
C45   Cl6   S    
C82   C83   A    
C13   C16   A    
C27   C28   A    
C14   C15   A    
C53   C85   S    
C21   C22   A    
C43   C47   A    
C81   C85   A    
C77   Cl22  S    
C2    Cl27  S    
