data_mof_unit_30203.cif
_audit_creation_date              2012-12-11T14:44:37-0500
_audit_creation_method            fapswitch 2.2
_symmetry_space_group_name_H-M    P1
_symmetry_Int_Tables_number       1
_space_group_crystal_system       triclinic
_cell_length_a                    20.202149
_cell_length_b                    7.196761
_cell_length_c                    19.717296
_cell_angle_alpha                 89.996312
_cell_angle_beta                  98.688035
_cell_angle_gamma                 90.004657
_cell_volume                      2833.80433604

loop_
_atom_site_label
_atom_site_type_symbol
_atom_type_description
_atom_site_fract_x
_atom_site_fract_y
_atom_site_fract_z
_atom_type_partial_charge
O1    O     O_R   0.673210 0.377390 0.686390 -0.531201
O2    O     O_R   0.326790 0.622610 0.313610 -0.531342
O3    O     O_R   0.826790 0.877390 0.813610 -0.531651
O4    O     O_R   0.173210 0.122610 0.186390 -0.531320
O5    O     O_R   0.810750 0.706450 0.681250 -0.541565
O6    O     O_R   0.189250 0.293550 0.318750 -0.541902
O7    O     O_R   0.689250 0.206450 0.818750 -0.541714
O8    O     O_R   0.310750 0.793550 0.181250 -0.541868
C1    C     C_R   0.831895 0.537238 0.666039 0.726380
C2    C     C_R   0.168102 0.462677 0.333846 0.725903
C3    C     C_R   0.668091 0.037221 0.833944 0.727283
C4    C     C_R   0.331889 0.962699 0.166145 0.725804
O9    O     O_R   0.672750 0.707060 0.678240 -0.537995
O10   O     O_R   0.327250 0.292940 0.321760 -0.538379
O11   O     O_R   0.827250 0.207060 0.821760 -0.538368
O12   O     O_R   0.172750 0.792940 0.178240 -0.538341
O13   O     O_R   0.687800 0.877990 0.810580 -0.537966
O14   O     O_R   0.312200 0.122010 0.189420 -0.538024
O15   O     O_R   0.812200 0.377990 0.689420 -0.537755
O16   O     O_R   0.187800 0.622010 0.310580 -0.538008
C5    C     C_R   0.647842 0.539822 0.662206 0.740058
C6    C     C_R   0.351824 0.460234 0.338227 0.739970
C7    C     C_R   0.852143 0.039822 0.837813 0.742555
C8    C     C_R   0.148172 0.960233 0.161775 0.739822
O17   O     O_3   0.755100 0.544060 0.793420 -0.378982
O18   O     O_3   0.244900 0.455940 0.206580 -0.378496
O19   O     O_3   0.744900 0.044060 0.706580 -0.378157
O20   O     O_3   0.255100 0.955940 0.293420 -0.378527
V1    V     V_3+5 0.749050 0.818670 0.741950 1.448246
V2    V     V_3+5 0.250950 0.181330 0.258050 1.446640
V3    V     V_3+5 0.750950 0.318670 0.758050 1.447544
V4    V     V_3+5 0.249050 0.681330 0.241950 1.446691
C9    C     C_R   0.087083 0.960264 0.108137 -0.152699
C10   C     C_R   0.913786 0.039412 0.890788 -0.154865
C11   C     C_R   0.412893 0.460250 0.391884 -0.152683
C12   C     C_R   0.586208 0.539403 0.609218 -0.154758
C13   C     C_R   0.016517 0.198986 0.942305 0.078669
C14   C     C_R   0.985212 0.798773 0.055776 0.076341
C15   C     C_R   0.483436 0.698897 0.557745 0.078836
C16   C     C_R   0.514657 0.298516 0.444329 0.076187
C17   C     C_R   0.965603 0.168653 0.885441 -0.057814
C18   C     C_R   0.035404 0.830278 0.113051 -0.056296
C19   C     C_R   0.534462 0.668819 0.614496 -0.056373
C20   C     C_R   0.464547 0.330187 0.387002 -0.056427
C21   C     C_R   0.915271 0.938035 0.952406 0.102538
C22   C     C_R   0.086270 0.060387 0.046223 0.089846
C23   C     C_R   0.584640 0.437721 0.547667 0.103617
C24   C     C_R   0.413677 0.560302 0.453807 0.089903
C25   C     C_R   0.975283 0.931964 0.001424 0.060830
C26   C     C_R   0.026471 0.066015 0.996794 0.059570
C27   C     C_R   0.524623 0.431764 0.498651 0.060419
C28   C     C_R   0.473462 0.565918 0.503256 0.059757
C29   C     C_R   0.557645 0.133816 0.871181 0.048426
C30   C     C_R   0.441775 0.863791 0.128757 0.048323
C31   C     C_R   0.942398 0.633554 0.628847 0.048836
C32   C     C_R   0.058155 0.363915 0.371177 0.048270
C33   C     C_R   0.616492 0.022296 0.881424 -0.098313
C34   C     C_R   0.383422 0.976962 0.118791 -0.101063
C35   C     C_R   0.883466 0.522361 0.618527 -0.098122
C36   C     C_R   0.116567 0.476891 0.381199 -0.101040
C37   C     C_R   0.622709 0.884609 0.934188 0.069621
C38   C     C_R   0.377380 0.114255 0.066031 0.068119
C39   C     C_R   0.877132 0.385003 0.565651 0.069560
C40   C     C_R   0.122658 0.614022 0.434009 0.068175
C41   C     C_R   0.582586 0.896712 0.987417 0.040226
C42   C     C_R   0.416817 0.099770 0.012371 0.039740
C43   C     C_R   0.917281 0.397155 0.512444 0.040229
C44   C     C_R   0.083221 0.599458 0.487663 0.039698
C45   C     C_R   0.523084 0.003117 0.976156 0.005411
C46   C     C_R   0.476130 0.992788 0.023436 0.003591
C47   C     C_R   0.976879 0.503146 0.523801 0.005246
C48   C     C_R   0.023837 0.492775 0.476529 0.003536
C49   C     C_R   0.509985 0.118484 0.917462 0.079136
C50   C     C_R   0.489058 0.877246 0.082069 0.078124
C51   C     C_R   0.990061 0.618174 0.582573 0.079105
C52   C     C_R   0.010839 0.377517 0.417828 0.078080
C53   C     C_R   0.598623 0.800543 0.050731 -0.029078
C54   C     C_R   0.400097 0.193595 0.948687 -0.023277
C55   C     C_R   0.901162 0.301457 0.449044 -0.029176
C56   C     C_R   0.100004 0.692960 0.551401 -0.023254
C57   C     C_R   0.550506 0.782202 0.094212 -0.213049
C58   C     C_R   0.448000 0.211494 0.904917 -0.219884
C59   C     C_R   0.949290 0.282954 0.405581 -0.213085
C60   C     C_R   0.052119 0.710827 0.595190 -0.219815
H1    H     H_    0.563865 0.699905 0.140048 0.171609
H2    H     H_    0.434289 0.292373 0.858803 0.173999
H3    H     H_    0.935861 0.201010 0.359670 0.171639
H4    H     H_    0.065891 0.791408 0.641365 0.173763
C61   C     C_3   0.152877 0.127332 0.028846 -0.704050
H5    H     H_    0.151685 0.147637 0.973004 0.245621
H6    H     H_    0.168146 0.257340 0.057158 0.204373
H7    H     H_    0.192203 0.020569 0.043298 0.192273
C62   C     C_3   0.849045 0.870305 0.970275 -0.728945
H8    H     H_    0.851257 0.849625 0.026099 0.224674
H9    H     H_    0.809526 0.976963 0.956583 0.197022
H10   H     H_    0.833601 0.740342 0.942003 0.208956
C63   C     C_3   0.347050 0.627043 0.471173 -0.703978
H11   H     H_    0.348209 0.647120 0.527019 0.245902
H12   H     H_    0.331783 0.757113 0.442902 0.204259
H13   H     H_    0.307742 0.520260 0.456658 0.192231
C64   C     C_3   0.650815 0.369517 0.529841 -0.728777
H14   H     H_    0.648606 0.348547 0.474033 0.224278
H15   H     H_    0.690399 0.476039 0.543467 0.197028
H16   H     H_    0.666158 0.239599 0.558191 0.209472
C65   C     C_2   0.034982 0.725973 0.178408 0.780450
O21   O     O_2   0.032225 0.556342 0.178888 -0.573125
O22   O     O_R   0.040088 0.823979 0.240083 -0.680661
H17   H     H_    0.039370 0.739545 0.281118 0.288692
C66   C     C_2   0.965471 0.272824 0.819963 0.779143
O23   O     O_2   0.969433 0.442222 0.819503 -0.574542
O24   O     O_R   0.958530 0.174983 0.758160 -0.681172
H18   H     H_    0.959265 0.259166 0.717066 0.288250
C67   C     C_2   0.465024 0.225975 0.321634 0.780581
O25   O     O_2   0.467937 0.056390 0.321140 -0.573099
O26   O     O_R   0.459824 0.324014 0.259964 -0.680682
H19   H     H_    0.460605 0.239652 0.218925 0.288702
C68   C     C_2   0.534825 0.773870 0.679757 0.778984
O27   O     O_2   0.533145 0.943610 0.680077 -0.574238
O28   O     O_R   0.539577 0.676370 0.741515 -0.680928
H20   H     H_    0.539409 0.761269 0.782504 0.288355
C69   C     C_3   0.053751 0.383099 0.947071 -0.717494
H21   H     H_    0.079546 0.413603 0.999381 0.210849
H22   H     H_    0.089740 0.387551 0.909758 0.224264
H23   H     H_    0.017877 0.499698 0.936438 0.239559
C70   C     C_3   0.948661 0.613568 0.050510 -0.718484
H24   H     H_    0.912495 0.607281 0.087615 0.221939
H25   H     H_    0.923137 0.583401 0.998046 0.212173
H26   H     H_    0.984978 0.498002 0.061193 0.240405
C71   C     C_3   0.446016 0.882706 0.553226 -0.720437
H27   H     H_    0.420112 0.913439 0.500984 0.211471
H28   H     H_    0.410128 0.886486 0.590649 0.223297
H29   H     H_    0.481747 0.999603 0.563913 0.239837
C72   C     C_3   0.551037 0.113065 0.449708 -0.717726
H30   H     H_    0.587253 0.106382 0.412664 0.222046
H31   H     H_    0.576473 0.082904 0.502208 0.212601
H32   H     H_    0.514611 0.997744 0.439012 0.240359
C73   C     C_3   0.541388 0.255787 0.807881 -0.673613
H33   H     H_    0.577394 0.248615 0.771171 0.235416
H34   H     H_    0.493198 0.211351 0.777546 0.219918
H35   H     H_    0.537775 0.402339 0.824250 0.221669
C74   C     C_3   0.458057 0.742734 0.192316 -0.671407
H36   H     H_    0.422587 0.752733 0.229512 0.235285
H37   H     H_    0.460685 0.595619 0.176281 0.220165
H38   H     H_    0.506718 0.785796 0.222049 0.221254
C75   C     C_3   0.958720 0.755282 0.692193 -0.673157
H39   H     H_    0.922658 0.748330 0.728854 0.235098
H40   H     H_    0.006852 0.710478 0.722546 0.220720
H41   H     H_    0.962507 0.901811 0.675862 0.221468
C76   C     C_3   0.041858 0.242906 0.307613 -0.671522
H42   H     H_    0.077423 0.252541 0.270501 0.235327
H43   H     H_    0.039048 0.095831 0.323649 0.220280
H44   H     H_    0.993280 0.286303 0.277797 0.221291
C77   C     C_3   0.661756 0.707255 0.926372 -0.665936
H45   H     H_    0.652414 0.595701 0.962352 0.190138
H46   H     H_    0.644320 0.643782 0.875542 0.215881
H47   H     H_    0.716067 0.736181 0.932367 0.215572
C78   C     C_3   0.339643 0.293625 0.074266 -0.655262
H48   H     H_    0.349298 0.403968 0.037884 0.187388
H49   H     H_    0.285178 0.267484 0.068840 0.216936
H50   H     H_    0.357874 0.356368 0.125054 0.212721
C79   C     C_3   0.837897 0.207875 0.573304 -0.666231
H51   H     H_    0.847068 0.096527 0.537180 0.190239
H52   H     H_    0.855290 0.143905 0.624058 0.216289
H53   H     H_    0.783629 0.237250 0.567396 0.215524
C80   C     C_3   0.160435 0.793371 0.425830 -0.655418
H54   H     H_    0.150841 0.903585 0.462279 0.187441
H55   H     H_    0.214886 0.767142 0.431205 0.216884
H56   H     H_    0.142194 0.856299 0.375074 0.212752
C81   C     C_2   0.667888 0.741407 0.078607 0.785417
O29   O     O_2   0.677311 0.600964 0.113727 -0.548238
O30   O     O_R   0.722244 0.850325 0.066838 -0.656996
H57   H     H_    0.766269 0.799935 0.091379 0.297990
C82   C     C_2   0.330644 0.253213 0.921352 0.767356
O31   O     O_2   0.282832 0.164016 0.934996 -0.560751
O32   O     O_R   0.319987 0.408080 0.878223 -0.660340
H58   H     H_    0.270686 0.433740 0.862645 0.307471
C83   C     C_2   0.831820 0.243171 0.421071 0.785463
O33   O     O_2   0.822210 0.103099 0.385771 -0.548175
O34   O     O_R   0.777612 0.352516 0.432949 -0.656964
H59   H     H_    0.733522 0.302820 0.408291 0.298078
C84   C     C_2   0.169491 0.752270 0.578749 0.767409
O35   O     O_2   0.217252 0.663020 0.565024 -0.560796
O36   O     O_R   0.180239 0.906902 0.621981 -0.660379
H60   H     H_    0.229555 0.932361 0.637558 0.307402

loop_
_geom_bond_atom_site_label_1
_geom_bond_atom_site_label_2
_ccdc_geom_bond_type
C34   C38   A    
C59   H3    S    
O30   H57   S    
O1    C5    A    
C62   H8    S    
C23   C64   S    
C31   C35   A    
O19   V1    S    
C68   O27   D    
O13   V1    S    
C81   O29   D    
C65   O21   D    
O3    C7    A    
O24   H18   S    
C56   C60   A    
C21   C62   S    
C75   H41   S    
C79   H51   S    
C14   C25   A    
C42   C46   A    
C82   O31   D    
O7    C3    A    
C6    C11   S    
C65   O22   S    
C64   H14   S    
C70   H24   S    
C32   C52   A    
C9    C18   A    
C40   C44   A    
O9    V1    S    
C14   C18   A    
C76   H43   S    
C75   H39   S    
O4    C8    A    
C51   C60   A    
C31   C75   S    
O26   H19   S    
C84   O35   D    
O1    V3    S    
C12   C23   A    
O2    V4    S    
O3    V1    S    
O12   V4    S    
C69   H23   S    
C66   O24   S    
C79   H52   S    
C30   C50   A    
C1    O15   A    
C78   H48   S    
C77   H45   S    
C2    O16   A    
C83   O34   S    
C46   C50   A    
C72   H32   S    
O22   H17   S    
C55   C83   S    
C45   C49   A    
O14   V2    S    
C21   C25   A    
C61   H6    S    
C16   C20   A    
C44   C48   A    
C71   H29   S    
C31   C51   A    
O11   C7    A    
C15   C28   A    
O15   V3    S    
O12   C8    A    
C17   C66   S    
C9    C22   A    
C81   O30   S    
C10   C17   A    
O10   V2    S    
C11   C24   A    
C52   C59   A    
C63   H12   S    
C63   H11   S    
O5    V1    S    
C82   O32   S    
C42   C54   A    
C73   H35   S    
C39   C43   A    
C14   C70   S    
C41   C53   A    
C38   C42   A    
C27   C28   A    
O8    V4    S    
O7    V3    S    
C67   O25   D    
C84   O36   S    
C5    C12   S    
C29   C33   A    
O18   V4    S    
C23   C27   A    
C15   C71   S    
C58   H2    S    
C32   C36   A    
C77   H47   S    
C74   H37   S    
C78   H49   S    
C2    C36   S    
O36   H60   S    
O5    C1    A    
C40   C80   S    
C24   C63   S    
C22   C61   S    
C70   H26   S    
C73   H34   S    
C54   C58   A    
O32   H58   S    
C53   C57   A    
O8    C4    A    
C7    C10   S    
C30   C34   A    
C38   C78   S    
O9    C5    A    
C48   C52   A    
C10   C21   A    
C56   C84   S    
C71   H28   S    
C61   H7    S    
C33   C37   A    
C11   C20   A    
C69   H21   S    
C19   C68   S    
C13   C69   S    
C76   H44   S    
C53   C81   S    
C80   H56   S    
O6    V2    S    
C20   C67   S    
C83   O33   D    
C62   H10   S    
C72   H30   S    
C29   C73   S    
C74   H38   S    
C77   H46   S    
C50   C57   A    
C4    O14   A    
C44   C56   A    
C49   C58   A    
C79   H53   S    
C70   H25   S    
C71   H27   S    
O16   V4    S    
C16   C72   S    
C39   C79   S    
C54   C82   S    
C3    O13   A    
C63   H13   S    
O17   V3    S    
C29   C49   A    
C60   H4    S    
C37   C77   S    
O6    C2    A    
C15   C19   A    
O28   H20   S    
O11   V3    S    
C78   H50   S    
C16   C27   A    
C73   H33   S    
C22   C26   A    
C35   C39   A    
C8    C9    S    
C64   H15   S    
C36   C40   A    
O2    C6    A    
C68   O28   S    
C61   H5    S    
C4    C34   S    
C47   C48   A    
C3    C33   S    
C76   H42   S    
C47   C51   A    
C13   C26   A    
O10   C6    A    
C62   H9    S    
C41   C45   A    
C75   H40   S    
O20   V2    S    
C43   C47   A    
C13   C17   A    
C45   C46   A    
C18   C65   S    
O4    V2    S    
C69   H22   S    
O34   H59   S    
C55   C59   A    
C37   C41   A    
C80   H54   S    
C24   C28   A    
C30   C74   S    
C80   H55   S    
C25   C26   A    
C66   O23   D    
C72   H31   S    
C12   C19   A    
C64   H16   S    
C1    C35   S    
C32   C76   S    
C74   H36   S    
C43   C55   A    
C57   H1    S    
C67   O26   S    
