data_mof_unit_29351.cif
_audit_creation_date              2012-12-10T20:03:09-0500
_audit_creation_method            fapswitch 2.2
_symmetry_space_group_name_H-M    P1
_symmetry_Int_Tables_number       1
_space_group_crystal_system       triclinic
_cell_length_a                    8.584072
_cell_length_b                    19.281936
_cell_length_c                    18.512514
_cell_angle_alpha                 90.734005
_cell_angle_beta                  99.322147
_cell_angle_gamma                 90.660154
_cell_volume                      3023.14272801

loop_
_atom_site_label
_atom_site_type_symbol
_atom_type_description
_atom_site_fract_x
_atom_site_fract_y
_atom_site_fract_z
_atom_type_partial_charge
C1    C     C_R   0.499051 0.365609 0.499550 0.890477
C2    C     C_R   0.499566 0.634360 0.500346 0.889208
C3    C     C_R   0.325823 0.963043 0.487241 -0.202191
C4    C     C_R   0.613560 0.036430 0.508745 -0.160493
C5    C     C_R   0.326072 0.034902 0.485906 -0.202470
C6    C     C_R   0.613302 0.964663 0.509522 -0.166655
C7    C     C_R   0.470042 0.071238 0.496824 0.156458
C8    C     C_R   0.469527 0.928254 0.498827 0.167684
C9    C     C_R   0.613999 0.534773 0.737894 0.339895
C10   C     C_R   0.388587 0.463341 0.262550 0.344533
C11   C     C_R   0.610248 0.533656 0.813570 -0.266296
C12   C     C_R   0.393645 0.463149 0.187005 -0.289499
C13   C     C_R   0.491423 0.497301 0.841073 0.085678
C14   C     C_R   0.509435 0.501055 0.158990 0.109031
C15   C     C_R   0.374704 0.463136 0.790590 -0.290201
C16   C     C_R   0.621258 0.538649 0.208792 -0.238414
C17   C     C_R   0.381742 0.464796 0.715121 -0.031301
C18   C     C_R   0.614700 0.537210 0.284358 -0.042582
C19   C     C_R   0.488694 0.434244 0.962094 0.244138
C20   C     C_R   0.510664 0.563079 0.038017 0.232834
C21   C     C_R   0.497032 0.437541 0.038841 -0.261721
C22   C     C_R   0.504385 0.560066 0.961428 -0.299952
C23   C     C_R   0.200757 0.499916 0.480699 0.976546
C24   C     C_R   0.799243 0.500100 0.519301 0.976011
C25   C     C_R   0.508211 0.501103 0.077747 0.039839
C26   C     C_R   0.492209 0.496511 0.922315 0.021181
C27   C     C_2   0.035271 0.499922 0.470419 -0.386574
C28   C     C_2   0.964732 0.500125 0.529581 -0.388041
C29   C     C_R   0.521275 0.745861 0.438973 -0.272334
C30   C     C_R   0.514555 0.254318 0.564206 -0.273859
C31   C     C_R   0.509782 0.817644 0.437438 0.196551
C32   C     C_R   0.503572 0.182384 0.563804 0.194414
C33   C     C_R   0.470702 0.853178 0.498763 0.036061
C34   C     C_R   0.471579 0.146257 0.496383 0.043005
C35   C     C_R   0.442939 0.817107 0.561307 0.176139
C36   C     C_R   0.450040 0.182079 0.429527 0.184629
C37   C     C_R   0.454447 0.745132 0.561551 -0.202085
C38   C     C_R   0.460434 0.254160 0.431363 -0.213012
C39   C     C_R   0.492999 0.709569 0.500588 -0.111908
C40   C     C_R   0.492412 0.290275 0.498296 -0.108986
H1    H     H_    0.972058 0.499761 0.414506 0.172622
H2    H     H_    0.027941 0.500295 0.585494 0.171879
H3    H     H_    0.278637 0.435522 0.809238 0.155284
H4    H     H_    0.713680 0.568420 0.189561 0.153895
H5    H     H_    0.291940 0.437760 0.676975 0.137799
H6    H     H_    0.701707 0.566156 0.322149 0.134524
H7    H     H_    0.498742 0.389681 0.068951 0.160499
H8    H     H_    0.506355 0.608130 0.931853 0.151688
H9    H     H_    0.551726 0.718588 0.391741 0.165277
H10   H     H_    0.539675 0.281929 0.616236 0.167202
H11   H     H_    0.432338 0.716794 0.609137 0.166737
H12   H     H_    0.443264 0.281958 0.380222 0.167970
H13   H     H_    0.214749 0.934506 0.478703 0.133969
H14   H     H_    0.724745 0.064901 0.517150 0.129789
H15   H     H_    0.215223 0.062242 0.476684 0.139360
H16   H     H_    0.724311 0.937414 0.518430 0.128881
H17   H     H_    0.702119 0.560106 0.851410 0.143327
H18   H     H_    0.304159 0.434930 0.149536 0.146567
N1    N     N_R   0.500020 0.499980 0.689440 -0.091451
N2    N     N_R   0.499980 0.500020 0.310560 -0.090552
O1    O     O_R   0.500010 0.398180 0.560840 -0.622374
O2    O     O_R   0.499990 0.601820 0.439160 -0.620556
O3    O     O_R   0.499930 0.398180 0.439210 -0.632318
O4    O     O_R   0.500070 0.601820 0.560790 -0.633968
O5    O     O_R   0.271780 0.500000 0.546590 -0.620380
O6    O     O_R   0.728220 0.500000 0.453410 -0.618843
O7    O     O_R   0.271710 0.499990 0.424960 -0.628189
O8    O     O_R   0.728290 0.500010 0.575040 -0.629228
Zn1   Zn    Zn3+2 0.500050 0.500000 0.581210 0.933448
Zn2   Zn    Zn3+2 0.499950 0.500000 0.418790 0.936681
N3    N     N_2   0.489629 0.367882 0.927226 -0.308449
H19   H     H_    0.528455 0.366797 0.877416 0.233226
C41   C     C_3   0.351659 0.324540 0.929262 -0.809547
H20   H     H_    0.365260 0.274151 0.901389 0.239861
H21   H     H_    0.337350 0.313825 0.986605 0.246154
H22   H     H_    0.244042 0.350100 0.900799 0.234311
N4    N     N_2   0.517054 0.628819 0.074296 -0.314047
H23   H     H_    0.574780 0.666751 0.049529 0.218024
C42   C     C_3   0.366557 0.652183 0.090276 -0.785291
H24   H     H_    0.383576 0.702008 0.121464 0.235397
H25   H     H_    0.314557 0.613815 0.124077 0.255507
H26   H     H_    0.283407 0.660363 0.038571 0.234438
N5    N     N_2   0.541016 0.854162 0.374840 -0.305786
H27   H     H_    0.628343 0.832152 0.350131 0.220915
C43   C     C_3   0.401659 0.868740 0.322382 -0.785623
H28   H     H_    0.435376 0.900280 0.277440 0.238037
H29   H     H_    0.315502 0.898552 0.348581 0.250363
H30   H     H_    0.345221 0.819554 0.298734 0.234310
N6    N     N_2   0.528195 0.146314 0.631254 -0.304532
H31   H     H_    0.613946 0.168914 0.670225 0.221263
C44   C     C_3   0.384998 0.131492 0.660291 -0.784131
H32   H     H_    0.413525 0.100204 0.710525 0.238720
H33   H     H_    0.299888 0.101343 0.619958 0.250098
H34   H     H_    0.329544 0.180583 0.674462 0.232228
C45   C     C_3   0.404315 0.854637 0.628047 -0.916328
H35   H     H_    0.390737 0.818263 0.672729 0.236217
H36   H     H_    0.500529 0.892198 0.649076 0.249491
H37   H     H_    0.291893 0.882899 0.613689 0.242942
C46   C     C_3   0.418782 0.146147 0.355560 -0.931836
H38   H     H_    0.302814 0.162587 0.325535 0.241350
H39   H     H_    0.512322 0.161037 0.323486 0.244133
H40   H     H_    0.416997 0.088817 0.358759 0.255091
C47   C     C_3   0.748166 0.573114 0.712681 -0.861194
H41   H     H_    0.705433 0.606385 0.665731 0.265477
H42   H     H_    0.810831 0.607898 0.756530 0.199612
H43   H     H_    0.835951 0.535614 0.698770 0.242406
C48   C     C_3   0.254485 0.425012 0.287896 -0.861260
H44   H     H_    0.296740 0.392110 0.335105 0.260068
H45   H     H_    0.166379 0.462538 0.301419 0.243391
H46   H     H_    0.192116 0.389908 0.244280 0.199717

loop_
_geom_bond_atom_site_label_1
_geom_bond_atom_site_label_2
_ccdc_geom_bond_type
C22   H8    S    
C41   H21   S    
C41   H20   S    
C19   N3    S    
C45   H35   S    
C45   H37   S    
C29   H9    S    
C43   H28   S    
C20   N4    S    
C35   C37   A    
C17   H5    S    
C37   H11   S    
C38   H12   S    
C20   C25   A    
C1    O3    A    
C31   N5    S    
O2    Zn2   S    
C23   O7    A    
C19   C26   A    
C1    C40   S    
C33   C35   A    
C2    C39   S    
N5    H27   S    
O8    Zn1   S    
C48   H44   S    
C31   C33   A    
C23   C27   S    
N6    C44   S    
C16   H4    S    
C24   O6    A    
C12   H18   S    
C43   H29   S    
C30   H10   S    
C38   C40   A    
C3    H13   S    
C48   H45   S    
C10   C48   S    
C4    C7    A    
C18   H6    S    
C2    O4    A    
N4    C42   S    
C4    C6    A    
C3    C8    A    
C44   H32   S    
C42   H25   S    
C6    C8    A    
N4    H23   S    
C9    N1    A    
C32   C34   A    
C47   H43   S    
C10   N2    A    
C19   C21   A    
C44   H33   S    
C27   H1    S    
C32   N6    S    
O3    Zn2   S    
N2    Zn2   S    
C9    C47   S    
C29   C39   A    
C30   C40   A    
C47   H42   S    
C16   C18   A    
O4    Zn1   S    
C9    C11   A    
C10   C12   A    
N1    Zn1   S    
C18   N2    A    
N5    C43   S    
C20   C22   A    
C13   C15   A    
C7    C34   S    
C14   C16   A    
C13   C26   S    
C47   H41   S    
C5    C7    A    
C43   H30   S    
O1    Zn1   S    
C15   C17   A    
C21   C25   A    
C4    H14   S    
C5    H15   S    
C24   C28   S    
C6    H16   S    
C3    C5    A    
C1    O1    A    
C42   H26   S    
C45   H36   S    
C35   C45   S    
C46   H38   S    
O7    Zn2   S    
C23   O5    A    
C36   C38   A    
C17   N1    A    
C15   H3    S    
N3    H19   S    
C37   C39   A    
C44   H34   S    
C30   C32   A    
C11   C13   A    
O6    Zn2   S    
O5    Zn1   S    
C28   H2    S    
C48   H46   S    
C36   C46   S    
C34   C36   A    
C8    C33   S    
C14   C25   S    
C24   O8    A    
C42   H24   S    
C12   C14   A    
C46   H40   S    
C41   H22   S    
C29   C31   A    
C22   C26   A    
N3    C41   S    
C27   C28   D    
N6    H31   S    
C11   H17   S    
C46   H39   S    
C2    O2    A    
C21   H7    S    
