data_mof_unit_26572.cif
_audit_creation_date              2013-03-05T15:54:01-0500
_audit_creation_method            fapswitch 2.2
_symmetry_space_group_name_H-M    P1
_symmetry_Int_Tables_number       1
_space_group_crystal_system       triclinic
_cell_length_a                    15.723119
_cell_length_b                    10.728787
_cell_length_c                    9.955688
_cell_angle_alpha                 88.412358
_cell_angle_beta                  91.612161
_cell_angle_gamma                 93.150225
_cell_volume                      1675.64752914

loop_
_atom_site_label
_atom_site_type_symbol
_atom_site_description
_atom_site_fract_x
_atom_site_fract_y
_atom_site_fract_z
_atom_type_partial_charge
O1    O     O_R   0.500000 0.316780 0.614690 -0.663721
O2    O     O_R   0.499990 0.316750 0.385360 -0.611012
C1    C     C_R   0.507913 0.261015 0.502624 0.916469
O3    O     O_R   0.377150 0.500020 0.614720 -0.653198
O4    O     O_R   0.377140 0.499990 0.385380 -0.537510
C2    C     C_R   0.338565 0.500656 0.498571 0.936836
Zn1   Zn    Zn3+2 0.500010 0.500020 0.653130 0.953742
Zn2   Zn    Zn3+2 0.499990 0.499980 0.346870 1.016102
O5    O     O_R   0.500010 0.683250 0.614640 -0.629599
O6    O     O_R   0.500000 0.683220 0.385310 -0.609213
O7    O     O_R   0.622860 0.500010 0.614620 -0.603679
O8    O     O_R   0.622850 0.499980 0.385280 -0.626892
C3    C     C_R   0.494128 0.739362 0.498768 0.857359
C4    C     C_R   0.661506 0.500494 0.501583 0.879636
C5    C     C_3   0.052011 0.446696 0.635878 -0.463491
C6    C     C_3   0.043867 0.419093 0.385253 -0.465112
C7    C     C_3   0.945320 0.425366 0.381320 -0.119932
H1    H     H_    0.931814 0.339043 0.640087 0.108485
H2    H     H_    0.075090 0.350974 0.652039 0.157984
H3    H     H_    0.069117 0.451847 0.286234 0.207889
H4    H     H_    0.063158 0.321423 0.401715 0.200695
H5    H     H_    0.926700 0.477902 0.287758 0.192620
C8    C     C_1   0.750408 0.500237 0.504989 -0.133114
C9    C     C_3   0.083027 0.502002 0.498849 0.230196
C10   C     C_3   0.953360 0.439528 0.637126 0.188396
C11   C     C_3   0.917310 0.499835 0.504078 0.183018
C12   C     C_3   0.954619 0.636243 0.485724 -0.475628
C13   C     C_3   0.052966 0.637164 0.475278 -0.053519
C14   C     C_1   0.825735 0.500000 0.505655 -0.003285
C15   C     C_1   0.174442 0.501749 0.495943 -0.003308
C16   C     C_1   0.249722 0.501366 0.495774 -0.073585
H6    H     H_    0.069747 0.667964 0.370971 0.173206
H7    H     H_    0.935452 0.695461 0.568106 0.231818
H8    H     H_    0.080036 0.502619 0.720055 0.222238
H9    H     H_    0.927581 0.679088 0.391855 0.163636
H10   H     H_    0.534401 0.119319 0.292375 0.169820
C17   C     C_R   0.529968 0.104191 0.758808 -0.214662
H11   H     H_    0.567427 0.190679 0.772208 0.189532
C18   C     C_R   0.505258 0.036227 0.874288 -0.234323
H12   H     H_    0.521825 0.073922 0.971936 0.179567
C19   C     C_R   0.454298 0.925601 0.862907 0.332664
C20   C     C_R   0.440473 0.875363 0.735376 -0.231176
H13   H     H_    0.400664 0.790365 0.726059 0.202697
C21   C     C_R   0.477972 0.934151 0.620872 0.050018
C22   C     C_R   0.509005 0.057808 0.629789 0.093573
C23   C     C_R   0.518014 0.128116 0.508187 -0.116682
C24   C     C_R   0.522801 0.067966 0.385948 -0.165894
H14   H     H_    0.524842 0.894509 0.290451 0.205158
C25   C     C_R   0.513117 0.940272 0.383099 -0.142733
C26   C     C_R   0.489185 0.872797 0.498993 -0.101546
H15   H     H_    0.583978 0.658257 0.123800 0.132710
C27   C     C_R   0.398353 0.307585 0.131857 0.324838
C28   C     C_R   0.369215 0.205080 0.056363 -0.175974
H16   H     H_    0.332354 0.128356 0.103417 0.227553
C29   C     C_R   0.365243 0.215245 0.918577 -0.255656
H17   H     H_    0.330629 0.143984 0.860723 0.190421
C30   C     C_R   0.402008 0.319465 0.855000 -0.138418
H18   H     H_    0.390066 0.326080 0.749696 0.224084
C31   C     C_R   0.451782 0.409414 0.926347 0.143688
C32   C     C_R   0.450576 0.407615 0.070879 0.044548
N1    N     N_R   0.499210 0.498800 0.142780 -0.119197
C33   C     C_R   0.546187 0.586941 0.070941 -0.025878
H19   H     H_    0.584045 0.658114 0.874595 0.142534
C34   C     C_R   0.546220 0.586777 0.928269 -0.044998
N2    N     N_R   0.499180 0.498720 0.857170 -0.119157
N3    N     N_R   0.921629 0.494623 0.758476 0.216848
O9    O     O_R   0.947176 0.606462 0.794500 -0.420938
O10   O     O_R   0.870470 0.428029 0.835924 -0.392840
N4    N     N_R   0.417895 0.863702 0.979563 0.197032
O11   O     O_R   0.421019 0.918377 0.094651 -0.442775
O12   O     O_R   0.377419 0.755000 0.970454 -0.386976
N5    N     N_R   0.342571 0.327208 0.237721 0.232053
O13   O     O_R   0.334518 0.242659 0.333634 -0.427328
O14   O     O_R   0.277539 0.394115 0.208455 -0.389646
N6    N     N_3   0.902326 0.300406 0.375221 -0.451240
H20   H     H_    0.913327 0.264035 0.281244 0.214939
H21   H     H_    0.928882 0.239951 0.446917 0.188745
N7    N     N_3   0.096406 0.726080 0.567277 -0.443673
H22   H     H_    0.074468 0.710858 0.664670 0.247021
H23   H     H_    0.080555 0.816215 0.537023 0.197140

loop_
_geom_bond_atom_site_label_1
_geom_bond_atom_site_label_2
_geom_bond_distance
_ccdc_geom_bond_type
N3    O10   1.301232 A    
C29   H17   1.083279 S    
C6    H4    1.113351 S    
C19   C20   1.399751 A    
C24   C25   1.371087 A    
C28   H16   1.083703 S    
C12   H7    1.109492 S    
Zn1   O7    1.979825 S    
H15   C33   1.081749 S    
C11   C12   1.554411 S    
C7    C11   1.564925 S    
C8    C14   1.184360 T    
O4    C2    1.295063 A    
O7    C4    1.293635 A    
N7    H23   1.046010 S    
C5    C10   1.549156 S    
H10   C24   1.083858 S    
N4    O12   1.301693 A    
O5    C3    1.289710 A    
C33   C34   1.420461 A    
C27   C32   1.445549 A    
C6    C7    1.553953 S    
C13   N7    1.468691 S    
C5    H8    1.111071 S    
C6    H3    1.113733 S    
Zn2   N1    2.031934 S    
C2    C16   1.396809 S    
C31   C32   1.439152 A    
C6    C9    1.551030 S    
N4    O11   1.300081 A    
H1    C10   1.112015 S    
C20   C21   1.414940 A    
O3    Zn1   1.958647 S    
C28   C29   1.373009 A    
C13   H6    1.115343 S    
N5    O14   1.303065 A    
C18   H12   1.082793 S    
N7    H22   1.043862 S    
C12   H9    1.113871 S    
C10   C11   1.563656 S    
C22   C23   1.414921 A    
H19   C34   1.081758 S    
C32   N1    1.407123 A    
O1    C1    1.292739 A    
C4    C8    1.397416 S    
C5    H2    1.113901 S    
N6    H20   1.046085 S    
C17   H11   1.080771 S    
C27   N5    1.417389 S    
Zn1   N2    2.031425 S    
Zn2   O8    1.958645 S    
C27   C28   1.398318 A    
N6    H21   1.044922 S    
O3    C2    1.290653 A    
H14   C25   1.081874 S    
O8    C4    1.292487 A    
C29   C30   1.376740 A    
C20   H13   1.081973 S    
C17   C22   1.414113 A    
C21   C22   1.392491 A    
C19   N4    1.438878 S    
C21   C26   1.416243 A    
Zn1   O5    1.992386 S    
C23   C24   1.398981 A    
C5    C9    1.552991 S    
O1    Zn1   2.013216 S    
O2    Zn2   1.992387 S    
C10   N3    1.470985 S    
C9    C13   1.559336 S    
N5    O13   1.302638 A    
O6    C3    1.302654 A    
O4    Zn2   1.979825 S    
C1    C23   1.442683 S    
C7    H5    1.115687 S    
C34   N2    1.367995 A    
O2    C1    1.302820 A    
C17   C18   1.397128 A    
C31   N2    1.364397 A    
C30   H18   1.060965 S    
C15   C16   1.183921 T    
N3    O9    1.300958 A    
N1    C33   1.366313 A    
C9    C15   1.438596 S    
C30   C31   1.404283 A    
C3    C26   1.438034 S    
C18   C19   1.400487 A    
C11   C14   1.440460 S    
Zn2   O6    2.013217 S    
C25   C26   1.394674 A    
C12   C13   1.552202 S    
C7    N6    1.469911 S    
