data_mof_unit_13692.cif
_audit_creation_date              2012-12-10T17:05:25-0500
_audit_creation_method            fapswitch 2.2
_symmetry_space_group_name_H-M    P1
_symmetry_Int_Tables_number       1
_space_group_crystal_system       triclinic
_cell_length_a                    10.031907
_cell_length_b                    10.698565
_cell_length_c                    15.525158
_cell_angle_alpha                 89.537941
_cell_angle_beta                  67.84547
_cell_angle_gamma                 88.816247
_cell_volume                      1542.91897263

loop_
_atom_site_label
_atom_site_type_symbol
_atom_type_description
_atom_site_fract_x
_atom_site_fract_y
_atom_site_fract_z
_atom_type_partial_charge
C1    C     C_R   0.495904 0.737404 0.504470 0.962306
C2    C     C_R   0.738018 0.516069 0.029535 0.172914
C3    C     C_R   0.593514 0.550210 0.084427 0.094093
C4    C     C_R   0.410023 0.501713 0.675899 0.924778
C5    C     C_R   0.836283 0.487165 0.071837 -0.211452
C6    C     C_R   0.790644 0.485582 0.168415 -0.197600
C7    C     C_R   0.550292 0.546654 0.180970 -0.260760
C8    C     C_2   0.564268 0.063992 0.555508 0.508327
C9    C     C_2   0.505647 0.129979 0.503824 -0.493141
C10   C     C_2   0.577483 0.929680 0.543673 -0.200657
C11   C     C_2   0.479854 0.868121 0.522453 -0.421199
C12   C     C_R   0.426953 0.551948 0.907464 0.080998
C13   C     C_2   0.108820 0.431300 0.444363 -0.104463
C14   C     C_2   0.960805 0.436873 0.440800 -0.081844
C15   C     C_R   0.499952 0.262563 0.503153 1.001839
C16   C     C_R   0.590001 0.501951 0.324128 0.856476
C17   C     C_R   0.355996 0.520770 0.776246 -0.042703
C18   C     C_R   0.646210 0.511942 0.222984 -0.051847
C19   C     C_R   0.185475 0.613375 0.917193 -0.210738
C20   C     C_R   0.220247 0.574508 0.825547 -0.205548
C21   C     C_R   0.453911 0.503195 0.819441 -0.207172
C22   C     C_R   0.288075 0.602630 0.958486 0.179998
C23   C     C_R   0.534105 0.549068 0.946245 0.071092
C24   C     C_R   0.493585 0.576715 0.041715 0.070187
C25   C     C_R   0.354401 0.628431 0.091154 -0.225814
C26   C     C_R   0.254304 0.642744 0.049460 -0.229047
C27   C     C_R   0.680756 0.521580 0.892320 -0.205663
C28   C     C_R   0.781305 0.507429 0.933459 -0.233273
H1    H     H_    0.149235 0.683385 0.089158 0.151670
H2    H     H_    0.439454 0.563925 0.225119 0.159612
H3    H     H_    0.866564 0.459599 0.200193 0.155924
H4    H     H_    0.892147 0.484615 0.890230 0.153657
H5    H     H_    0.080283 0.655136 0.954774 0.146892
H6    H     H_    0.143546 0.590076 0.792556 0.157864
H7    H     H_    0.552757 0.452467 0.782067 0.186038
H8    H     H_    0.321366 0.662799 0.161392 0.148897
H9    H     H_    0.721636 0.513493 0.817555 0.154009
H10   H     H_    0.680130 0.059863 0.751963 0.383705
H11   H     H_    0.946826 0.461185 0.030403 0.151476
H12   H     H_    0.467463 0.085973 0.454918 0.125834
H13   H     H_    0.668193 0.881617 0.552262 0.209362
H14   H     H_    0.381451 0.913100 0.522971 0.170432
H15   H     H_    0.187548 0.367963 0.396639 0.162177
H16   H     H_    0.076845 0.563479 0.540848 0.159688
H17   H     H_    0.943985 0.383761 0.386652 0.150146
H18   H     H_    0.865634 0.543535 0.553379 0.167199
N1    N     N_2   0.148330 0.498670 0.499030 -0.190538
N2    N     N_2   0.852680 0.498640 0.499000 -0.178155
O1    O     O_R   0.386950 0.680940 0.500010 -0.617333
O2    O     O_2   0.518681 0.225707 0.695666 -0.335226
O3    O     O_3   0.646235 0.016485 0.708089 -0.561878
O4    O     O_R   0.613110 0.680900 0.499990 -0.615085
O5    O     O_R   0.322330 0.500030 0.632270 -0.621340
O6    O     O_R   0.548480 0.499990 0.632240 -0.593347
O7    O     O_R   0.386890 0.319100 0.500010 -0.609339
O8    O     O_R   0.613050 0.319060 0.499990 -0.545837
O9    O     O_R   0.451520 0.500010 0.367760 -0.619597
O10   O     O_R   0.677670 0.499970 0.367730 -0.624247
O11   O     O_2   0.768712 0.190214 0.588306 -0.297040
S1    S     S_3+6 0.626032 0.129768 0.637990 0.024384
Zn1   Zn    Zn3+2 0.349000 0.500030 0.500020 0.953913
Zn2   Zn    Zn3+2 0.651000 0.499970 0.499980 0.995995

loop_
_geom_bond_atom_site_label_1
_geom_bond_atom_site_label_2
_ccdc_geom_bond_type
N1    Zn1   S    
C14   N2    D    
C23   C24   A    
O10   Zn2   S    
C21   H7    S    
C23   C27   A    
C4    O5    A    
N2    Zn2   S    
C19   C20   A    
C1    C11   S    
H16   N1    S    
C28   H4    S    
C7    C18   A    
C20   H6    S    
C15   O8    A    
C17   C20   A    
C6    H3    S    
C9    C15   S    
O2    S1    D    
O11   S1    D    
C7    H2    S    
C16   O10   A    
C13   C14   S    
C8    S1    S    
C10   H13   S    
O9    Zn1   S    
C12   C23   A    
C3    C24   A    
O5    Zn1   S    
C27   H9    S    
C4    C17   S    
O7    Zn1   S    
C8    C10   S    
C2    C3    A    
C14   H17   S    
C3    C7    A    
C16   O9    A    
C5    H11   S    
C22   C26   A    
C5    C6    A    
C6    C18   A    
C1    O4    A    
O8    Zn2   S    
O3    S1    S    
C2    C5    A    
O1    Zn1   S    
C10   C11   D    
C25   H8    S    
H18   N2    S    
C12   C22   A    
C13   H15   S    
C19   C22   A    
C24   C25   A    
C26   H1    S    
C16   C18   S    
C19   H5    S    
C27   C28   A    
C13   N1    D    
C2    C28   A    
H10   O3    S    
O6    Zn2   S    
C4    O6    A    
C25   C26   A    
C1    O1    A    
C12   C21   A    
O4    Zn2   S    
C9    H12   S    
C17   C21   A    
C11   H14   S    
C8    C9    D    
C15   O7    A    
