data_mof_unit_9611.cif
_audit_creation_date              2012-12-10T18:42:33-0500
_audit_creation_method            fapswitch 2.2
_symmetry_space_group_name_H-M    P1
_symmetry_Int_Tables_number       1
_space_group_crystal_system       triclinic
_cell_length_a                    8.707788
_cell_length_b                    10.644528
_cell_length_c                    10.028034
_cell_angle_alpha                 90.88623
_cell_angle_beta                  99.16445
_cell_angle_gamma                 93.268756
_cell_volume                      915.85944241

loop_
_atom_site_label
_atom_site_type_symbol
_atom_type_description
_atom_site_fract_x
_atom_site_fract_y
_atom_site_fract_z
_atom_type_partial_charge
C1    C     C_R   0.501031 0.260993 0.499865 0.921337
C2    C     C_R   0.640326 0.072661 0.542270 0.111001
C3    C     C_R   0.500946 0.871737 0.499064 -0.117594
C4    C     C_R   0.499054 0.128263 0.500935 -0.117594
C5    C     C_R   0.593136 0.585970 0.085782 0.137913
C6    C     C_R   0.406864 0.414030 0.914218 0.137914
C7    C     C_R   0.590784 0.586803 0.942849 0.207607
C8    C     C_R   0.409216 0.413197 0.057150 0.207607
C9    C     C_3   0.959873 0.394049 0.330732 -0.803968
C10   C     C_3   0.040127 0.605952 0.669268 -0.803969
C11   C     C_3   0.201483 0.117199 0.440699 -0.794842
C12   C     C_R   0.498968 0.739006 0.500135 0.921337
C13   C     C_3   0.798516 0.882801 0.559301 -0.794843
C14   C     C_3   0.702278 0.681398 0.171687 -0.723696
C15   C     C_3   0.297722 0.318602 0.828313 -0.723696
C16   C     C_R   0.202044 0.496895 0.464773 0.951056
C17   C     C_R   0.797956 0.503105 0.535227 0.951057
C18   C     C_2   0.037044 0.478214 0.449767 -0.009744
C19   C     C_2   0.962956 0.521786 0.550233 -0.009744
C20   C     C_R   0.356847 0.057438 0.464240 0.126239
C21   C     C_R   0.643153 0.942562 0.535760 0.126239
C22   C     C_R   0.359673 0.927339 0.457730 0.111001
H1    H     H_    0.045544 0.340064 0.288518 0.251199
H2    H     H_    0.788986 0.779539 0.542229 0.216406
H3    H     H_    0.872357 0.922343 0.487839 0.263282
H4    H     H_    0.858652 0.903397 0.663997 0.281154
H5    H     H_    0.822917 0.673308 0.151098 0.237804
H6    H     H_    0.664925 0.777828 0.149034 0.247466
H7    H     H_    0.710508 0.670307 0.279899 0.278237
H8    H     H_    0.335076 0.222172 0.850966 0.247466
H9    H     H_    0.177083 0.326692 0.848902 0.237804
H10   H     H_    0.289492 0.329693 0.720101 0.278237
H11   H     H_    0.876366 0.322075 0.361902 0.262253
H12   H     H_    0.901169 0.451620 0.248625 0.271229
H13   H     H_    0.954456 0.659937 0.711481 0.251199
H14   H     H_    0.098830 0.548380 0.751375 0.271229
H15   H     H_    0.123634 0.677925 0.638098 0.262253
H16   H     H_    0.211014 0.220461 0.457770 0.216406
H17   H     H_    0.141348 0.096603 0.336003 0.281154
H18   H     H_    0.127642 0.077657 0.512161 0.263282
I1    I     I_    0.152091 0.815930 0.375938 -0.412412
I2    I     I_    0.847909 0.184070 0.624062 -0.412412
I3    I     I_    0.729169 0.730446 0.865878 -0.341593
I4    I     I_    0.270831 0.269554 0.134122 -0.341593
N1    N     N_R   0.499960 0.499970 0.857200 -0.121962
N2    N     N_R   0.500040 0.500030 0.142800 -0.121962
O1    O     O_R   0.499990 0.316750 0.614620 -0.615030
O2    O     O_R   0.500010 0.683250 0.385380 -0.615030
O3    O     O_R   0.499990 0.316780 0.385290 -0.583927
O4    O     O_R   0.500010 0.683220 0.614710 -0.583927
O5    O     O_R   0.271750 0.499990 0.587840 -0.646119
O6    O     O_R   0.728250 0.500010 0.412160 -0.646119
O7    O     O_R   0.271750 0.500010 0.358510 -0.576882
O8    O     O_R   0.728250 0.499990 0.641490 -0.576882
Zn1   Zn    Zn3+2 0.500000 0.499980 0.653120 0.983585
Zn2   Zn    Zn3+2 0.500000 0.500020 0.346880 0.983584

loop_
_geom_bond_atom_site_label_1
_geom_bond_atom_site_label_2
_ccdc_geom_bond_type
C11   H16   S    
C12   O4    A    
C15   H9    S    
C10   H13   S    
C6    N1    A    
C7    I3    S    
C14   H5    S    
O3    Zn2   S    
C5    N2    A    
C2    C4    A    
O4    Zn1   S    
C16   O5    A    
O2    Zn2   S    
C10   C19   S    
C12   O2    A    
C1    C4    S    
C2    C21   A    
C13   C21   S    
C15   H10   S    
C9    H11   S    
C13   H3    S    
C5    C14   S    
C11   H18   S    
C2    I2    S    
C10   H15   S    
C7    N1    A    
C17   O6    A    
O1    Zn1   S    
C17   C19   S    
C20   C22   A    
O5    Zn1   S    
C9    H12   S    
C11   C20   S    
C8    N2    A    
C13   H4    S    
C3    C21   A    
C22   I1    S    
C14   H7    S    
C4    C20   A    
C11   H17   S    
C9    C18   S    
N1    Zn1   S    
C15   H8    S    
C16   C18   S    
C18   C19   D    
O7    Zn2   S    
N2    Zn2   S    
C5    C7    A    
O8    Zn1   S    
C9    H1    S    
C3    C22   A    
C6    C8    A    
C3    C12   S    
C14   H6    S    
C6    C15   S    
C16   O7    A    
C1    O3    A    
C17   O8    A    
C1    O1    A    
O6    Zn2   S    
C13   H2    S    
C10   H14   S    
C8    I4    S    
