data_mof_unit_26813.cif
_audit_creation_date              2012-12-10T17:18:37-0500
_audit_creation_method            fapswitch 2.2
_symmetry_space_group_name_H-M    P1
_symmetry_Int_Tables_number       1
_space_group_crystal_system       triclinic
_cell_length_a                    25.844469
_cell_length_b                    25.973923
_cell_length_c                    26.065271
_cell_angle_alpha                 89.872351
_cell_angle_beta                  89.912526
_cell_angle_gamma                 90.127061
_cell_volume                      17497.0467339

loop_
_atom_site_label
_atom_site_type_symbol
_atom_type_description
_atom_site_fract_x
_atom_site_fract_y
_atom_site_fract_z
_atom_type_partial_charge
Br1   Br    Br    0.557974 0.570721 0.858568 -0.324817
Br2   Br    Br    0.433993 0.588915 0.880443 -0.308365
Br3   Br    Br    0.951592 0.207190 0.554268 -0.246226
Br4   Br    Br    0.153470 0.932800 0.447236 -0.224707
Br5   Br    Br    0.453083 0.048955 0.807901 -0.235477
Br6   Br    Br    0.554873 0.571150 0.141998 -0.258254
Br7   Br    Br    0.047071 0.205592 0.441719 -0.245057
Br8   Br    Br    0.802166 0.951765 0.551887 -0.294855
Br9   Br    Br    0.756793 0.564222 0.050825 -0.254440
Br10  Br    Br    0.319676 0.430178 0.942947 -0.366247
Br11  Br    Br    0.671693 0.433951 0.941150 -0.349551
Br12  Br    Br    0.443117 0.046116 0.277146 -0.279104
Br13  Br    Br    0.054146 0.551046 0.180365 -0.276104
Br14  Br    Br    0.095987 0.448473 0.111574 -0.189476
Br15  Br    Br    0.671858 0.560601 0.942479 -0.271289
Br16  Br    Br    0.300761 0.555161 0.952859 -0.313805
Br17  Br    Br    0.837997 0.464334 0.060766 -0.209912
Br18  Br    Br    0.060395 0.126533 0.918165 -0.276051
Br19  Br    Br    0.956129 0.697310 0.050182 -0.253292
Br20  Br    Br    0.955233 0.284763 0.943125 -0.257105
Br21  Br    Br    0.124495 0.584171 0.050717 -0.219520
Br22  Br    Br    0.944182 0.164574 0.059360 -0.296223
Br23  Br    Br    0.876107 0.916404 0.450655 -0.193607
Br24  Br    Br    0.069726 0.572241 0.648392 -0.267964
Br25  Br    Br    0.049998 0.297772 0.056186 -0.243514
Br26  Br    Br    0.949708 0.822000 0.946472 -0.329019
Br27  Br    Br    0.060807 0.775440 0.050300 -0.267062
Br28  Br    Br    0.933940 0.115264 0.907806 -0.281434
Br29  Br    Br    0.930263 0.849357 0.069128 -0.287152
Br30  Br    Br    0.080928 0.371332 0.952656 -0.188060
Br31  Br    Br    0.945435 0.554093 0.673966 -0.337071
Br32  Br    Br    0.065897 0.133768 0.078899 -0.285831
Br33  Br    Br    0.069572 0.645691 0.949959 -0.213702
Br34  Br    Br    0.075380 0.134491 0.547255 -0.137017
Br35  Br    Br    0.928436 0.358451 0.047178 -0.152097
Br36  Br    Br    0.422235 0.130926 0.955483 -0.116545
Br37  Br    Br    0.547403 0.708836 0.063182 -0.329734
Br38  Br    Br    0.393772 0.055217 0.101026 -0.179840
Br39  Br    Br    0.566137 0.946280 0.847191 -0.194644
Br40  Br    Br    0.368038 0.921723 0.044831 -0.212023
Br41  Br    Br    0.550357 0.196316 0.944037 -0.263720
Br42  Br    Br    0.230204 0.934688 0.953647 -0.301448
Br43  Br    Br    0.945899 0.063624 0.182516 -0.325388
Br44  Br    Br    0.545719 0.713059 0.936163 -0.325001
Br45  Br    Br    0.431229 0.591540 0.119613 -0.274256
Br46  Br    Br    0.452154 0.202593 0.059662 -0.278673
Br47  Br    Br    0.948701 0.935946 0.190557 -0.282645
Br48  Br    Br    0.308951 0.037259 0.951467 -0.202853
Br49  Br    Br    0.583447 0.123709 0.046994 -0.151555
Br50  Br    Br    0.425909 0.860068 0.946023 -0.187313
Br51  Br    Br    0.616331 0.049718 0.908696 -0.224918
Br52  Br    Br    0.439919 0.951204 0.165380 -0.194366
Br53  Br    Br    0.188795 0.037877 0.550262 -0.217557
Br54  Br    Br    0.550764 0.948282 0.323732 -0.329324
Br55  Br    Br    0.064893 0.930545 0.850645 -0.306875
Br56  Br    Br    0.558077 0.044133 0.730974 -0.288716
Br57  Br    Br    0.938197 0.349125 0.431778 -0.316059
Br58  Br    Br    0.937348 0.953431 0.657850 -0.228023
Br59  Br    Br    0.095127 0.052198 0.387974 -0.170425
Br60  Br    Br    0.946505 0.419847 0.629911 -0.237424
Br61  Br    Br    0.068397 0.711448 0.455322 -0.295206
Br62  Br    Br    0.572731 0.070443 0.353137 -0.300308
Br63  Br    Br    0.272725 0.939468 0.546933 -0.308768
Br64  Br    Br    0.939967 0.710041 0.459179 -0.343494
Br65  Br    Br    0.067234 0.393923 0.602467 -0.291335
Br66  Br    Br    0.053707 0.947588 0.321985 -0.208958
Br67  Br    Br    0.090154 0.882811 0.549664 -0.194423
Br68  Br    Br    0.888843 0.058422 0.597355 -0.199782
Br69  Br    Br    0.063765 0.367952 0.420278 -0.302714
Br70  Br    Br    0.937729 0.934921 0.844506 -0.334257
Br71  Br    Br    0.553502 0.456822 0.275977 -0.222617
Br72  Br    Br    0.438656 0.924552 0.636871 -0.298175
Br73  Br    Br    0.449154 0.303343 0.442340 -0.254642
Br74  Br    Br    0.650098 0.568366 0.551724 -0.216797
Br75  Br    Br    0.449309 0.447131 0.685561 -0.223346
Br76  Br    Br    0.561463 0.849097 0.433412 -0.351651
Br77  Br    Br    0.546448 0.291116 0.562098 -0.303522
Br78  Br    Br    0.920357 0.131312 0.452883 -0.156430
Br79  Br    Br    0.335403 0.561064 0.449274 -0.239752
Br80  Br    Br    0.566293 0.923405 0.636800 -0.297557
Br81  Br    Br    0.443083 0.453540 0.206685 -0.287190
Br82  Br    Br    0.402256 0.608903 0.550203 -0.207825
Br83  Br    Br    0.573955 0.364982 0.458176 -0.163709
Br84  Br    Br    0.433813 0.859358 0.424842 -0.251190
Br85  Br    Br    0.556953 0.456276 0.758742 -0.290775
Br86  Br    Br    0.587606 0.618778 0.449139 -0.196350
Br87  Br    Br    0.416150 0.377163 0.544239 -0.136515
Br88  Br    Br    0.198391 0.566721 0.551020 -0.332063
Br89  Br    Br    0.548168 0.049274 0.199120 -0.243642
Br90  Br    Br    0.745969 0.445865 0.461614 -0.322599
Br91  Br    Br    0.408909 0.448762 0.383780 -0.180890
Br92  Br    Br    0.849230 0.564479 0.566180 -0.256817
Br93  Br    Br    0.836480 0.439540 0.559543 -0.276236
Br94  Br    Br    0.446378 0.555496 0.318521 -0.211102
Br95  Br    Br    0.767440 0.572219 0.455639 -0.297622
Br96  Br    Br    0.196988 0.440026 0.549145 -0.315642
C1    C     C_R   0.749798 0.610042 0.750304 1.070581
C2    C     C_R   0.389810 0.750578 0.749554 1.052617
C3    C     C_R   0.214771 0.042052 0.658488 0.355167
C4    C     C_R   0.829135 0.308563 0.042995 0.395737
C5    C     C_R   0.160950 0.709184 0.954311 0.407355
C6    C     C_R   0.804864 0.046618 0.669157 0.407654
C7    C     C_R   0.154994 0.951997 0.275757 0.401371
C8    C     C_R   0.283284 0.041842 0.843164 0.349397
C9    C     C_R   0.838025 0.945317 0.211225 0.335585
C10   C     C_R   0.054801 0.670864 0.695916 0.316175
C11   C     C_R   0.947382 0.204876 0.163665 0.368424
C12   C     C_R   0.659132 0.952959 0.786471 0.404836
C13   C     C_R   0.610026 0.749380 0.249985 1.057853
C14   C     C_R   0.307933 0.045874 0.170978 0.398700
C15   C     C_R   0.945324 0.180575 0.817441 0.359139
C16   C     C_R   0.049272 0.770487 0.160054 0.373130
C17   C     C_R   0.838453 0.052772 0.208871 0.327683
C18   C     C_R   0.231106 0.947270 0.844151 0.374217
C19   C     C_R   0.956911 0.714264 0.159371 0.389521
C20   C     C_R   0.053703 0.187121 0.824276 0.319503
C21   C     C_R   0.341406 0.954542 0.217024 0.419156
C22   C     C_R   0.695139 0.044371 0.830653 0.394487
C23   C     C_R   0.054104 0.188981 0.175847 0.369690
C24   C     C_R   0.390460 0.249653 0.749607 0.782219
C25   C     C_R   0.949073 0.658226 0.715014 0.313889
C26   C     C_R   0.543576 0.158624 0.216168 0.387838
C27   C     C_R   0.444314 0.675107 0.809937 0.336524
C28   C     C_R   0.152917 0.238378 0.450241 0.395120
C29   C     C_R   0.767476 0.846585 0.548944 0.393435
C30   C     C_R   0.456371 0.157934 0.786054 0.353296
C31   C     C_R   0.551921 0.669925 0.195234 0.368924
C32   C     C_R   0.845359 0.238405 0.547721 0.399480
C33   C     C_R   0.213624 0.840021 0.453474 0.408751
C34   C     C_R   0.551368 0.663531 0.796104 0.298648
C35   C     C_R   0.610118 0.748664 0.750995 1.058984
C36   C     C_R   0.449448 0.156355 0.269228 0.367033
C37   C     C_R   0.168655 0.804442 0.544733 0.410976
C38   C     C_R   0.823446 0.185783 0.456653 0.391620
C39   C     C_R   0.445295 0.684118 0.180883 0.356502
C40   C     C_R   0.551462 0.154546 0.734710 0.367195
C41   C     C_R   0.816896 0.822466 0.456469 0.379872
C42   C     C_R   0.172435 0.189116 0.543615 0.379761
C43   C     C_R   0.282709 0.551745 0.842259 0.329171
C44   C     C_R   0.800616 0.457973 0.165369 0.376996
C45   C     C_R   0.185711 0.455670 0.176536 0.395482
C46   C     C_R   0.389496 0.250092 0.249982 0.841028
C47   C     C_R   0.706558 0.552700 0.836417 0.315944
C48   C     C_R   0.704697 0.444837 0.834594 0.366046
C49   C     C_R   0.155925 0.546944 0.225138 0.401434
C50   C     C_R   0.741757 0.547977 0.158543 0.378730
C51   C     C_R   0.292956 0.444666 0.835369 0.339530
C52   C     C_R   0.528800 0.866762 0.667767 0.189026
C53   C     C_R   0.474159 0.391293 0.232021 0.207008
C54   C     C_R   0.646920 0.652587 0.478187 0.192987
C55   C     C_R   0.369818 0.325411 0.518368 0.204772
C56   C     C_R   0.472729 0.827071 0.370578 0.297005
C57   C     C_R   0.610464 0.250123 0.750131 0.840921
C58   C     C_R   0.525385 0.390635 0.744900 0.212702
C59   C     C_R   0.344855 0.645728 0.521268 0.191561
C60   C     C_R   0.622502 0.314949 0.483252 0.204452
C61   C     C_R   0.521496 0.392447 0.257954 0.212081
C62   C     C_R   0.474913 0.867183 0.667501 0.183035
C63   C     C_R   0.612577 0.287276 0.528377 0.204726
C64   C     C_R   0.319189 0.627301 0.477583 0.213805
C65   C     C_R   0.479473 0.387085 0.716634 0.197324
C66   C     C_R   0.526473 0.824804 0.372497 0.150923
C67   C     C_R   0.382513 0.297118 0.474369 0.209857
C68   C     C_R   0.389842 0.750330 0.250318 0.988489
C69   C     C_R   0.671019 0.633122 0.522305 0.213431
C70   C     C_R   0.763525 0.531697 0.394349 0.280507
C71   C     C_R   0.206744 0.475257 0.613757 0.202951
C72   C     C_R   0.811492 0.475098 0.619821 0.217105
C73   C     C_R   0.379850 0.524416 0.306802 0.227308
C74   C     C_R   0.365000 0.479299 0.332636 0.209071
C75   C     C_R   0.816850 0.528309 0.622870 0.226350
C76   C     C_R   0.206962 0.528869 0.614512 0.182637
C77   C     C_R   0.758561 0.478284 0.396467 0.137060
C78   C     C_R   0.029233 0.349030 0.648349 0.168816
C79   C     C_R   0.249923 0.749965 0.389989 0.821259
C80   C     C_R   0.974756 0.718702 0.394048 0.121945
C81   C     C_R   0.617205 0.202788 0.975509 0.211344
C82   C     C_R   0.341103 0.857842 0.019416 0.206027
C83   C     C_R   0.973508 0.326208 0.370424 0.168402
C84   C     C_R   0.027184 0.872582 0.822929 0.184133
C85   C     C_R   0.385814 0.208330 0.026854 0.205494
C86   C     C_R   0.610980 0.716599 0.972221 0.127822
C87   C     C_R   0.028780 0.719585 0.393168 0.274186
C88   C     C_R   0.977018 0.358243 0.657353 0.198707
C89   C     C_R   0.611020 0.715967 0.025541 0.290947
C90   C     C_R   0.749881 0.249919 0.610260 0.801898
C91   C     C_R   0.374510 0.180960 0.981971 0.213993
C92   C     C_R   0.973400 0.874179 0.820312 0.208432
C93   C     C_R   0.026917 0.332456 0.366276 0.195992
C94   C     C_R   0.363033 0.834283 0.976167 0.196678
C95   C     C_R   0.630009 0.174749 0.019750 0.201311
C96   C     C_R   0.128979 0.322266 0.980317 0.208606
C97   C     C_R   0.878275 0.812891 0.030565 0.276700
C98   C     C_R   0.137286 0.021264 0.335599 0.207619
C99   C     C_R   0.870678 0.980679 0.675908 0.200919
C100  C     C_R   0.155321 0.645068 0.021936 0.197391
C101  C     C_R   0.749208 0.750931 0.390327 0.820866
C102  C     C_R   0.887710 0.284679 0.974171 0.215708
C103  C     C_R   0.254228 0.971960 0.610604 0.206530
C104  C     C_R   0.623954 0.031199 0.316331 0.278811
C105  C     C_R   0.885229 0.802382 0.978723 0.154441
C106  C     C_R   0.116921 0.294045 0.024691 0.230904
C107  C     C_R   0.616018 0.979448 0.305011 0.153605
C108  C     C_R   0.223602 0.016300 0.611710 0.194358
C109  C     C_R   0.877627 0.312565 0.019063 0.212605
C110  C     C_R   0.134200 0.668709 0.978290 0.210847
C111  C     C_R   0.851558 0.025258 0.652206 0.214271
C112  C     C_R   0.250226 0.390309 0.249852 0.801735
C113  C     C_R   0.249566 0.250479 0.609537 0.785562
C114  C     C_R   0.121091 0.976695 0.309807 0.208231
C115  C     C_R   0.275145 0.015149 0.889671 0.200936
C116  C     C_R   0.884446 0.972301 0.201492 0.133981
C117  C     C_R   0.030508 0.624821 0.682981 0.294259
C118  C     C_R   0.976363 0.181565 0.124202 0.196506
C119  C     C_R   0.630761 0.976370 0.825911 0.211871
C120  C     C_R   0.354716 0.023499 0.155455 0.205436
C121  C     C_R   0.971801 0.154476 0.856877 0.201899
C122  C     C_R   0.026943 0.756255 0.113313 0.243426
C123  C     C_R   0.884209 0.025855 0.200033 0.276829
C124  C     C_R   0.749357 0.249516 0.390466 0.811095
C125  C     C_R   0.246037 0.969709 0.890344 0.213491
C126  C     C_R   0.982054 0.726035 0.113086 0.212637
C127  C     C_R   0.025434 0.158530 0.860823 0.179407
C128  C     C_R   0.372818 0.979231 0.180549 0.237403
C129  C     C_R   0.650359 0.020576 0.849942 0.185933
C130  C     C_R   0.028750 0.171203 0.131374 0.222245
C131  C     C_R   0.978186 0.617881 0.693344 0.132531
C132  C     C_R   0.519656 0.111388 0.227325 0.215406
C133  C     C_R   0.470548 0.634427 0.834018 0.210108
C134  C     C_R   0.113716 0.209775 0.474027 0.213909
C135  C     C_R   0.249885 0.749852 0.609756 0.818520
C136  C     C_R   0.798092 0.883598 0.524100 0.195234
C137  C     C_R   0.480833 0.110524 0.777285 0.197403
C138  C     C_R   0.522816 0.633363 0.167455 0.208682
C139  C     C_R   0.883958 0.209198 0.523956 0.225554
C140  C     C_R   0.174143 0.868430 0.476976 0.221835
C141  C     C_R   0.523296 0.627723 0.825859 0.189465
C142  C     C_R   0.474103 0.110207 0.256485 0.233053
C143  C     C_R   0.149558 0.848996 0.520979 0.199526
C144  C     C_R   0.871975 0.180235 0.480160 0.213219
C145  C     C_R   0.470216 0.641366 0.158882 0.198253
C146  C     C_R   0.249976 0.249979 0.389797 0.796436
C147  C     C_R   0.526755 0.108710 0.748823 0.214382
C148  C     C_R   0.825676 0.870277 0.479767 0.195776
C149  C     C_R   0.124466 0.182682 0.519284 0.213725
C150  C     C_R   0.294491 0.522509 0.886415 0.203968
C151  C     C_R   0.796500 0.484535 0.118422 0.197892
C152  C     C_R   0.138075 0.478432 0.164507 0.205735
C153  C     C_R   0.691247 0.524858 0.880327 0.220843
C154  C     C_R   0.690517 0.471333 0.879525 0.169488
C155  C     C_R   0.121837 0.522431 0.191167 0.204200
C156  C     C_R   0.764784 0.527917 0.114572 0.219868
C157  C     C_R   0.749698 0.750019 0.609990 0.792579
C158  C     C_R   0.300997 0.469454 0.882638 0.172912
C159  C     C_R   0.473186 0.788605 0.720831 -0.086608
C160  C     C_R   0.524248 0.298277 0.256169 -0.148839
C161  C     C_R   0.724608 0.710491 0.525524 -0.138166
C162  C     C_R   0.294702 0.263191 0.473160 -0.132541
C163  C     C_R   0.527459 0.777274 0.290468 -0.065250
C164  C     C_R   0.475833 0.294743 0.735012 -0.153236
C165  C     C_R   0.270773 0.707620 0.473803 -0.132066
C166  C     C_R   0.702255 0.258433 0.527828 -0.129877
C167  C     C_R   0.471731 0.297799 0.242782 -0.114017
C168  C     C_R   0.249778 0.109399 0.750246 0.780518
C169  C     C_R   0.528036 0.788009 0.721042 -0.083590
C170  C     C_R   0.706747 0.272320 0.476009 -0.141880
C171  C     C_R   0.283759 0.716977 0.524964 -0.135009
C172  C     C_R   0.527613 0.296803 0.750117 -0.129775
C173  C     C_R   0.472599 0.778704 0.289443 -0.150365
C174  C     C_R   0.288143 0.277968 0.524309 -0.151158
C175  C     C_R   0.712073 0.720742 0.474387 -0.120404
C176  C     C_R   0.760452 0.473943 0.302465 -0.024395
C177  C     C_R   0.232759 0.527887 0.705577 -0.086595
C178  C     C_R   0.773198 0.527683 0.707473 -0.089256
C179  C     C_R   0.748399 0.889975 0.251239 1.015369
C180  C     C_R   0.287090 0.475380 0.279870 -0.134318
C181  C     C_R   0.294797 0.526892 0.266345 -0.128669
C182  C     C_R   0.771176 0.473104 0.705980 -0.089929
C183  C     C_R   0.232846 0.473289 0.704757 -0.088004
C184  C     C_R   0.760884 0.528743 0.300968 -0.156999
C185  C     C_R   0.973416 0.285284 0.717849 -0.086480
C186  C     C_R   0.028238 0.734939 0.300253 -0.135101
C187  C     C_R   0.711771 0.222002 0.024656 -0.152961
C188  C     C_R   0.289779 0.775267 0.974074 -0.135443
C189  C     C_R   0.027077 0.279365 0.287932 -0.088481
C190  C     C_R   0.749831 0.109837 0.749926 0.799035
C191  C     C_R   0.972577 0.790718 0.774957 -0.090734
C192  C     C_R   0.291733 0.226179 0.975845 -0.158619
C193  C     C_R   0.704170 0.734207 0.026701 -0.144708
C194  C     C_R   0.973176 0.733947 0.300757 -0.032373
C195  C     C_R   0.027809 0.280845 0.714059 -0.088707
C196  C     C_R   0.704656 0.735036 0.972248 -0.058109
C197  C     C_R   0.297177 0.240111 0.027411 -0.120557
C198  C     C_R   0.027393 0.790328 0.776100 -0.061377
C199  C     C_R   0.972356 0.276766 0.289590 -0.086801
C200  C     C_R   0.278889 0.787306 0.025152 -0.132440
C201  C     C_R   0.249907 0.889962 0.249739 0.794790
C202  C     C_R   0.705128 0.236620 0.973417 -0.128449
C203  C     C_R   0.205601 0.262971 0.026844 -0.136638
C204  C     C_R   0.795999 0.767431 0.973964 -0.068323
C205  C     C_R   0.205268 0.973209 0.267286 -0.129043
C206  C     C_R   0.780350 0.025742 0.713604 -0.147928
C207  C     C_R   0.209765 0.724891 0.974283 -0.133293
C208  C     C_R   0.792129 0.272676 0.023966 -0.146207
C209  C     C_R   0.239073 0.023691 0.704315 -0.149605
C210  C     C_R   0.704565 0.974082 0.268777 -0.070530
C211  C     C_R   0.792247 0.772563 0.027994 -0.133404
C212  C     C_R   0.750618 0.110168 0.249689 0.902295
C213  C     C_R   0.211944 0.277546 0.975569 -0.135996
C214  C     C_R   0.708945 0.028102 0.274342 -0.135860
C215  C     C_R   0.254509 0.972094 0.703869 -0.131380
C216  C     C_R   0.797054 0.258660 0.972384 -0.140332
C217  C     C_R   0.220492 0.712970 0.025459 -0.128011
C218  C     C_R   0.790581 0.974447 0.725610 -0.124490
C219  C     C_R   0.213594 0.024603 0.280558 -0.153174
C220  C     C_R   0.245051 0.971452 0.797027 -0.128765
C221  C     C_R   0.793994 0.026936 0.229694 -0.147692
C222  C     C_R   0.973685 0.705531 0.730134 -0.064876
C223  C     C_R   0.749908 0.610075 0.250256 0.840195
C224  C     C_R   0.250055 0.889475 0.749978 0.843324
C225  C     C_R   0.027465 0.221830 0.211233 -0.091528
C226  C     C_R   0.718248 0.025028 0.784886 -0.124688
C227  C     C_R   0.291156 0.974363 0.227516 -0.132885
C228  C     C_R   0.027240 0.217722 0.786599 -0.086934
C229  C     C_R   0.975460 0.735683 0.206411 -0.176452
C230  C     C_R   0.793605 0.972289 0.230740 -0.067395
C231  C     C_R   0.259689 0.023439 0.796979 -0.147523
C232  C     C_R   0.026463 0.753262 0.207051 -0.130327
C233  C     C_R   0.972435 0.216072 0.784682 -0.087986
C234  C     C_R   0.281531 0.025553 0.214660 -0.139348
C235  C     C_R   0.249533 0.109758 0.249682 0.802807
C236  C     C_R   0.708202 0.973811 0.772328 -0.144115
C237  C     C_R   0.973051 0.226208 0.207745 -0.087014
C238  C     C_R   0.027915 0.709468 0.724753 -0.167661
C239  C     C_R   0.472323 0.204085 0.254153 -0.127884
C240  C     C_R   0.526279 0.707982 0.774787 -0.076719
C241  C     C_R   0.208355 0.226200 0.524343 -0.155571
C242  C     C_R   0.776701 0.789964 0.475685 -0.144705
C243  C     C_R   0.528127 0.202572 0.747431 -0.120119
C244  C     C_R   0.472182 0.715809 0.217193 -0.065385
C245  C     C_R   0.788257 0.223497 0.475595 -0.142390
C246  C     C_R   0.749887 0.890035 0.749739 0.803153
C247  C     C_R   0.214401 0.781044 0.525182 -0.121851
C248  C     C_R   0.471807 0.711566 0.778576 -0.080173
C249  C     C_R   0.524107 0.204776 0.238756 -0.143767
C250  C     C_R   0.227032 0.790973 0.473982 -0.129421
C251  C     C_R   0.794586 0.238498 0.526634 -0.130378
C252  C     C_R   0.526535 0.711452 0.221190 -0.091093
C253  C     C_R   0.475993 0.203437 0.761828 -0.147564
C254  C     C_R   0.763122 0.796445 0.527261 -0.124854
C255  C     C_R   0.203123 0.239805 0.472656 -0.128380
C256  C     C_R   0.269564 0.471985 0.793495 -0.080193
C257  C     C_R   0.110205 0.249760 0.750085 1.050720
C258  C     C_R   0.753159 0.525785 0.207135 -0.134283
C259  C     C_R   0.206542 0.526361 0.232252 -0.130625
C260  C     C_R   0.728268 0.472053 0.792385 -0.081423
C261  C     C_R   0.728828 0.526658 0.793097 -0.095495
C262  C     C_R   0.215017 0.475182 0.218540 -0.154616
C263  C     C_R   0.771790 0.475386 0.208941 -0.197556
C264  C     C_R   0.266801 0.526452 0.795691 -0.093607
C265  C     C_R   0.445937 0.750634 0.750041 -0.020055
C266  C     C_R   0.552583 0.251340 0.248176 -0.063544
C267  C     C_R   0.746581 0.751809 0.554031 -0.069262
C268  C     C_R   0.890317 0.748157 0.250484 0.933813
C269  C     C_R   0.249330 0.250692 0.445521 -0.047962
C270  C     C_R   0.553743 0.747702 0.252341 -0.029501
C271  C     C_R   0.447443 0.249152 0.748841 -0.069090
C272  C     C_R   0.249382 0.749620 0.446054 -0.058832
C273  C     C_R   0.748954 0.249112 0.554579 -0.054267
C274  C     C_R   0.445001 0.250751 0.249485 -0.018825
C275  C     C_R   0.553879 0.748301 0.749048 -0.033993
C276  C     C_R   0.747856 0.248385 0.447317 -0.079985
C277  C     C_R   0.249465 0.749344 0.553278 -0.070806
C278  C     C_R   0.554954 0.249842 0.749596 -0.022472
C279  C     C_R   0.110115 0.250022 0.250104 1.071982
C280  C     C_R   0.445938 0.750427 0.250599 -0.012990
C281  C     C_R   0.248570 0.251597 0.552755 -0.077481
C282  C     C_R   0.746477 0.753844 0.446820 -0.075640
C283  C     C_R   0.762499 0.446717 0.254942 -0.042787
C284  C     C_R   0.249707 0.553867 0.750981 -0.040552
C285  C     C_R   0.750576 0.553809 0.750279 -0.047828
C286  C     C_R   0.250850 0.446969 0.249435 -0.073027
C287  C     C_R   0.250415 0.554266 0.249579 -0.049717
C288  C     C_R   0.749786 0.446001 0.749060 -0.035862
C289  C     C_R   0.250602 0.446060 0.749091 -0.034352
C290  C     C_R   0.889962 0.748739 0.749047 1.034023
C291  C     C_R   0.752370 0.554004 0.253197 -0.035029
C292  C     C_R   0.946164 0.250235 0.750487 -0.027341
C293  C     C_R   0.054120 0.748108 0.253384 -0.011099
C294  C     C_R   0.751551 0.248207 0.052739 -0.070803
C295  C     C_R   0.249884 0.749920 0.946238 -0.067789
C296  C     C_R   0.053900 0.249995 0.250123 -0.026459
C297  C     C_R   0.946248 0.748547 0.751052 -0.036474
C298  C     C_R   0.251558 0.251449 0.947254 -0.071893
C299  C     C_R   0.748823 0.751230 0.053984 -0.026124
C300  C     C_R   0.946682 0.738899 0.253065 -0.048882
C301  C     C_R   0.110191 0.749701 0.250688 0.847996
C302  C     C_R   0.054121 0.248858 0.749928 -0.028483
C303  C     C_R   0.751226 0.749964 0.946228 -0.036515
C304  C     C_R   0.251047 0.251103 0.054524 -0.048120
C305  C     C_R   0.054178 0.750401 0.749731 -0.021204
C306  C     C_R   0.945993 0.250630 0.248993 -0.032497
C307  C     C_R   0.249875 0.750057 0.053441 -0.072364
C308  C     C_R   0.750574 0.248779 0.945495 -0.050231
C309  C     C_R   0.248892 0.946001 0.248298 -0.051334
C310  C     C_R   0.749342 0.053469 0.749445 -0.068777
C311  C     C_R   0.249423 0.052250 0.750607 -0.062209
C312  C     C_R   0.889899 0.250262 0.749851 1.067758
C313  C     C_R   0.748470 0.946263 0.249559 -0.033794
C314  C     C_R   0.751171 0.054115 0.250873 -0.019160
C315  C     C_R   0.249881 0.944853 0.750300 -0.044717
C316  C     C_R   0.749504 0.946214 0.749024 -0.068917
C317  C     C_R   0.248150 0.053273 0.248415 -0.071839
C318  C     C_R   0.110216 0.750007 0.749968 0.994202
C319  C     C_R   0.249532 0.389915 0.749266 1.057403
C320  C     C_R   0.889875 0.249519 0.249257 1.050380
C321  C     C_R   0.250452 0.250382 0.890444 0.802109
C322  C     C_R   0.749311 0.749660 0.110091 0.904762
C323  C     C_R   0.249969 0.749949 0.890082 0.818699
C324  C     C_R   0.750517 0.249532 0.109531 0.779810
C325  C     C_R   0.751362 0.751080 0.889995 1.023621
C326  C     C_R   0.250309 0.250302 0.110246 0.798160
C327  C     C_R   0.749931 0.249918 0.889793 0.809713
C328  C     C_R   0.250001 0.750031 0.109793 0.802710
C329  C     C_R   0.555582 0.825792 0.691166 0.356636
C330  C     C_R   0.250036 0.610161 0.249957 0.796716
C331  C     C_R   0.448167 0.344433 0.225566 0.360247
C332  C     C_R   0.666553 0.697032 0.454418 0.391957
C333  C     C_R   0.322116 0.317103 0.542995 0.378962
C334  C     C_R   0.446048 0.807098 0.328661 0.320384
C335  C     C_R   0.550267 0.345654 0.761148 0.374499
C336  C     C_R   0.328431 0.691573 0.544414 0.392473
C337  C     C_R   0.669681 0.308638 0.457357 0.363437
C338  C     C_R   0.545076 0.346343 0.273114 0.342412
C339  C     C_R   0.446979 0.826728 0.690585 0.321450
C340  C     C_R   0.652250 0.258601 0.550986 0.384338
C341  C     C_R   0.750574 0.389893 0.749277 1.072505
C342  C     C_R   0.281914 0.658020 0.453404 0.407308
C343  C     C_R   0.456105 0.338951 0.708927 0.385746
C344  C     C_R   0.554388 0.803513 0.331075 0.352804
C345  C     C_R   0.345245 0.265547 0.451542 0.387843
C346  C     C_R   0.710819 0.661299 0.545669 0.410444
C347  C     C_R   0.770056 0.556274 0.347394 0.335579
C348  C     C_R   0.214289 0.447398 0.659657 0.354728
C349  C     C_R   0.790705 0.447100 0.661266 0.325517
C350  C     C_R   0.345101 0.548475 0.273250 0.407806
C351  C     C_R   0.317447 0.455880 0.321219 0.402099
C352  C     C_R   0.250713 0.610045 0.750966 1.039872
C353  C     C_R   0.799365 0.554831 0.666790 0.356713
C354  C     C_R   0.214061 0.555100 0.661224 0.357063
C355  C     C_R   0.763778 0.448985 0.351121 0.365939
C356  C     C_R   0.054532 0.309165 0.674719 0.324817
C357  C     C_R   0.946766 0.721900 0.347503 0.356214
C358  C     C_R   0.654513 0.234135 0.952057 0.393603
C359  C     C_R   0.298701 0.834787 0.044243 0.411722
C360  C     C_R   0.945549 0.302406 0.330630 0.323249
C361  C     C_R   0.054039 0.829341 0.804619 0.336113
C362  C     C_R   0.347342 0.238242 0.049919 0.397052
C363  C     C_R   0.752812 0.390344 0.251470 0.882925
C364  C     C_R   0.658387 0.719870 0.945489 0.359752
C365  C     C_R   0.055252 0.722679 0.346600 0.339409
C366  C     C_R   0.947929 0.324645 0.688689 0.346371
C367  C     C_R   0.657621 0.718362 0.052251 0.345847
C368  C     C_R   0.326949 0.188402 0.957091 0.371448
C369  C     C_R   0.945698 0.831795 0.800424 0.370875
C370  C     C_R   0.053566 0.311948 0.323739 0.367188
C371  C     C_R   0.338064 0.792099 0.953633 0.385851
C372  C     C_R   0.677948 0.182868 0.043764 0.378967
C373  C     C_R   0.177237 0.315678 0.956411 0.387913
C374  C     C_R   0.609578 0.250539 0.249406 0.807627
C375  C     C_R   0.832111 0.799857 0.054831 0.314290
C376  C     C_R   0.184883 0.044008 0.323020 0.398189
C377  C     C_R   0.840465 0.954896 0.712681 0.396445
C378  C     C_R   0.199289 0.666315 0.045320 0.405282
C379  C     C_R   0.847420 0.258024 0.950069 0.385848
C380  C     C_R   0.269218 0.948985 0.656612 0.373797
C381  C     C_R   0.670365 0.055012 0.303239 0.320281
C382  C     C_R   0.844263 0.781136 0.949765 0.315002
C383  C     C_R   0.155029 0.264280 0.048353 0.394186
C384  C     C_R   0.656379 0.950065 0.283057 0.318330
H1    H     H_    0.618944 0.838110 0.651902 0.350080
H2    H     H_    0.385134 0.837903 0.649626 0.376279
H3    H     H_    0.664672 0.200059 0.595326 0.326243
H4    H     H_    0.220276 0.654605 0.411389 0.344936
H5    H     H_    0.426673 0.300246 0.653005 0.355899
H6    H     H_    0.619861 0.834625 0.352882 0.373560
H7    H     H_    0.337225 0.205048 0.408994 0.324530
H8    H     H_    0.773175 0.653861 0.585496 0.351067
H9    H     H_    0.815834 0.608670 0.321572 0.319732
H10   H     H_    0.180742 0.385444 0.632369 0.372632
H11   H     H_    0.782420 0.382987 0.623721 0.358637
H12   H     H_    0.400478 0.314047 0.177585 0.351349
H13   H     H_    0.342307 0.592113 0.212984 0.343341
H14   H     H_    0.260123 0.420653 0.353822 0.341921
H15   H     H_    0.836533 0.618298 0.647981 0.381315
H16   H     H_    0.179735 0.617389 0.635416 0.393739
H17   H     H_    0.793075 0.390274 0.387321 0.351100
H18   H     H_    0.112203 0.306146 0.626300 0.361610
H19   H     H_    0.884980 0.689315 0.376726 0.367831
H20   H     H_    0.662422 0.294370 0.908868 0.328076
H21   H     H_    0.237486 0.850754 0.084002 0.347563
H22   H     H_    0.880298 0.335030 0.349606 0.359344
H23   H     H_    0.645764 0.756902 0.415404 0.352179
H24   H     H_    0.113737 0.840349 0.848556 0.380713
H25   H     H_    0.337279 0.297240 0.094018 0.329029
H26   H     H_    0.628098 0.690070 0.883285 0.379801
H27   H     H_    0.112067 0.683117 0.321253 0.324538
H28   H     H_    0.881711 0.347865 0.661833 0.390558
H29   H     H_    0.683569 0.678632 0.107997 0.355230
H30   H     H_    0.274339 0.147976 0.923612 0.350611
H31   H     H_    0.881840 0.851025 0.835841 0.371734
H32   H     H_    0.113687 0.356887 0.333069 0.355538
H33   H     H_    0.349573 0.730205 0.913941 0.352775
H34   H     H_    0.268273 0.353970 0.578802 0.365972
H35   H     H_    0.732242 0.145465 0.078561 0.339466
H36   H     H_    0.230668 0.354315 0.921304 0.365131
H37   H     H_    0.793222 0.838575 0.103560 0.340114
H38   H     H_    0.243469 0.079028 0.353260 0.347164
H39   H     H_    0.846406 0.912990 0.773412 0.343318
H40   H     H_    0.260559 0.648438 0.084067 0.339045
H41   H     H_    0.834542 0.200083 0.905326 0.337885
H42   H     H_    0.321877 0.904727 0.684852 0.349644
H43   H     H_    0.711630 0.102707 0.341022 0.335714
H44   H     H_    0.887169 0.764475 0.890900 0.383819
H45   H     H_    0.386629 0.835737 0.297309 0.350573
H46   H     H_    0.164006 0.204546 0.091839 0.337295
H47   H     H_    0.612278 0.891444 0.267153 0.383848
H48   H     H_    0.156657 0.072369 0.693365 0.357649
H49   H     H_    0.778295 0.352071 0.075391 0.344644
H50   H     H_    0.151062 0.770814 0.913598 0.345640
H51   H     H_    0.744081 0.083762 0.646662 0.345267
H52   H     H_    0.156105 0.908177 0.215734 0.328668
H53   H     H_    0.341261 0.073447 0.809303 0.376664
H54   H     H_    0.862967 0.883152 0.176799 0.394705
H55   H     H_    0.104147 0.711440 0.659381 0.346158
H56   H     H_    0.596015 0.321884 0.814637 0.337086
H57   H     H_    0.881217 0.180562 0.136547 0.371783
H58   H     H_    0.652130 0.911675 0.725181 0.359695
H59   H     H_    0.248360 0.083221 0.145791 0.335883
H60   H     H_    0.883677 0.137167 0.822837 0.352836
H61   H     H_    0.091563 0.824064 0.189650 0.351913
H62   H     H_    0.809590 0.109350 0.172132 0.314391
H63   H     H_    0.179108 0.902302 0.815839 0.347539
H64   H     H_    0.925081 0.654908 0.191033 0.356881
H65   H     H_    0.119247 0.153368 0.839791 0.353089
H66   H     H_    0.344924 0.914054 0.279046 0.333978
H67   H     H_    0.353511 0.751177 0.581286 0.344027
H68   H     H_    0.755999 0.082319 0.851800 0.330566
H69   H     H_    0.112660 0.141922 0.167576 0.359669
H70   H     H_    0.890628 0.615443 0.734052 0.380956
H71   H     H_    0.572705 0.192478 0.156918 0.358828
H72   H     H_    0.375778 0.646616 0.818625 0.352882
H73   H     H_    0.163718 0.296815 0.405443 0.338643
H74   H     H_    0.707803 0.839679 0.593566 0.321852
H75   H     H_    0.426527 0.193299 0.843718 0.365096
H76   H     H_    0.617931 0.644586 0.170434 0.384533
H77   H     H_    0.835163 0.298172 0.590681 0.328864
H78   H     H_    0.719786 0.350027 0.422164 0.371834
H79   H     H_    0.275754 0.846797 0.412371 0.346740
H80   H     H_    0.608997 0.617461 0.783324 0.378847
H81   H     H_    0.403682 0.184261 0.320710 0.348987
H82   H     H_    0.146879 0.744053 0.582502 0.340837
H83   H     H_    0.770293 0.145791 0.422890 0.339864
H84   H     H_    0.387065 0.681731 0.133170 0.360924
H85   H     H_    0.597678 0.180938 0.682585 0.347731
H86   H     H_    0.852550 0.767735 0.421672 0.370850
H87   H     H_    0.224435 0.147853 0.576939 0.345579
H88   H     H_    0.308192 0.615678 0.873376 0.367122
H89   H     H_    0.573660 0.320125 0.335903 0.375622
H90   H     H_    0.852697 0.422994 0.205456 0.349513
H91   H     H_    0.243780 0.420190 0.145869 0.350590
H92   H     H_    0.671150 0.615002 0.858017 0.390445
H93   H     H_    0.667745 0.382213 0.855460 0.378006
H94   H     H_    0.157588 0.589955 0.285707 0.323078
H95   H     H_    0.683036 0.586870 0.181743 0.339681
H96   H     H_    0.336578 0.385914 0.853690 0.361269
O1    O     O_3   0.750000 0.750000 0.750000 -0.545765
O2    O     O_R   0.280360 0.365810 0.280360 -0.596126
O3    O     O_R   0.780360 0.780360 0.634190 -0.602218
O4    O     O_R   0.219640 0.780360 0.365810 -0.585697
O5    O     O_R   0.780360 0.219640 0.634190 -0.586826
O6    O     O_R   0.780360 0.780360 0.365810 -0.609322
O7    O     O_R   0.219640 0.219640 0.634190 -0.591159
O8    O     O_3   0.608574 0.822279 0.684906 -0.782287
O9    O     O_3   0.401955 0.345306 0.199222 -0.717555
O10   O     O_3   0.636652 0.719831 0.416925 -0.653114
O11   O     O_3   0.306629 0.353442 0.578301 -0.625004
O12   O     O_3   0.393542 0.814940 0.328335 -0.753439
O13   O     O_R   0.719640 0.634190 0.280360 -0.576674
O14   O     O_3   0.594650 0.350910 0.789934 -0.699244
O15   O     O_3   0.360603 0.713675 0.580431 -0.665489
O16   O     O_3   0.681784 0.345602 0.421458 -0.618870
O17   O     O_3   0.579993 0.349903 0.312751 -0.620991
O18   O     O_3   0.394001 0.824585 0.684115 -0.784720
O19   O     O_3   0.640251 0.229385 0.593691 -0.711921
O20   O     O_3   0.253944 0.636557 0.413732 -0.679490
O21   O     O_3   0.422715 0.335157 0.667934 -0.623260
O22   O     O_3   0.607808 0.805849 0.331206 -0.775338
O23   O     O_3   0.360225 0.235599 0.410445 -0.704093
O24   O     O_R   0.280360 0.365810 0.719640 -0.564623
O25   O     O_3   0.738473 0.637612 0.584190 -0.653658
O26   O     O_3   0.788832 0.605967 0.348519 -0.712680
O27   O     O_3   0.203716 0.395199 0.661001 -0.770097
O28   O     O_3   0.791518 0.394089 0.658865 -0.778648
O29   O     O_3   0.362981 0.589825 0.244904 -0.672423
O30   O     O_3   0.298450 0.420543 0.356135 -0.657614
O31   O     O_3   0.808386 0.607123 0.671075 -0.765667
O32   O     O_3   0.202066 0.606883 0.664302 -0.740597
O33   O     O_3   0.776692 0.397522 0.353768 -0.761149
O34   O     O_3   0.105371 0.297959 0.662777 -0.764254
O35   O     O_R   0.280360 0.634190 0.280360 -0.589380
O36   O     O_3   0.894680 0.709757 0.346156 -0.772129
O37   O     O_3   0.639476 0.263790 0.910684 -0.703182
O38   O     O_3   0.273895 0.862736 0.081919 -0.669822
O39   O     O_3   0.892126 0.303318 0.332238 -0.771071
O40   O     O_3   0.106252 0.824787 0.814733 -0.772130
O41   O     O_3   0.360803 0.267210 0.092181 -0.709888
O42   O     O_3   0.660207 0.707661 0.893954 -0.747091
O43   O     O_3   0.106914 0.710034 0.347686 -0.723209
O44   O     O_3   0.895328 0.332335 0.693712 -0.747739
O45   O     O_3   0.655993 0.704644 0.103115 -0.726293
O46   O     O_R   0.719640 0.365810 0.719640 -0.584102
O47   O     O_3   0.312545 0.151759 0.921872 -0.595586
O48   O     O_3   0.892627 0.829717 0.806347 -0.757850
O49   O     O_3   0.105204 0.323856 0.316254 -0.776826
O50   O     O_3   0.363953 0.765598 0.915609 -0.640450
O51   O     O_3   0.693850 0.146291 0.078797 -0.646704
O52   O     O_3   0.192316 0.352736 0.921415 -0.650373
O53   O     O_3   0.825634 0.818207 0.103878 -0.741527
O54   O     O_3   0.205275 0.079052 0.357246 -0.658376
O55   O     O_3   0.863301 0.915178 0.739330 -0.653690
O56   O     O_3   0.223791 0.637501 0.082601 -0.667093
O57   O     O_R   0.280360 0.634190 0.719640 -0.610908
O58   O     O_3   0.859335 0.229172 0.907297 -0.667798
O59   O     O_3   0.299356 0.905311 0.654127 -0.709379
O60   O     O_3   0.678168 0.103711 0.322487 -0.743359
O61   O     O_3   0.851046 0.774988 0.897786 -0.757229
O62   O     O_3   0.140834 0.234861 0.090200 -0.676023
O63   O     O_3   0.648933 0.898097 0.275784 -0.755469
O64   O     O_3   0.174038 0.076093 0.659569 -0.610543
O65   O     O_3   0.816242 0.346569 0.077446 -0.619173
O66   O     O_3   0.135980 0.735732 0.915691 -0.657143
O67   O     O_3   0.781539 0.083058 0.638298 -0.667180
O68   O     O_R   0.719640 0.365810 0.280360 -0.544266
O69   O     O_3   0.136066 0.910822 0.248074 -0.689070
O70   O     O_3   0.323135 0.076991 0.842677 -0.580270
O71   O     O_3   0.835393 0.893156 0.201103 -0.753672
O72   O     O_3   0.104183 0.677855 0.677451 -0.746174
O73   O     O_3   0.894392 0.208808 0.158310 -0.748229
O74   O     O_3   0.635691 0.913666 0.759507 -0.646525
O75   O     O_3   0.286139 0.082306 0.139027 -0.666043
O76   O     O_3   0.892893 0.172237 0.811068 -0.772453
O77   O     O_3   0.092108 0.802256 0.158500 -0.714289
O78   O     O_3   0.838730 0.104203 0.196313 -0.733168
O79   O     O_R   0.634190 0.280360 0.280360 -0.607307
O80   O     O_3   0.201894 0.902840 0.846357 -0.712109
O81   O     O_3   0.922084 0.674015 0.158149 -0.646805
O82   O     O_3   0.107118 0.186921 0.826456 -0.782708
O83   O     O_3   0.363037 0.915404 0.245504 -0.695710
O84   O     O_3   0.718731 0.081091 0.860919 -0.679116
O85   O     O_3   0.104531 0.174277 0.185721 -0.777984
O86   O     O_3   0.896797 0.651068 0.721876 -0.754439
O87   O     O_3   0.577172 0.159148 0.175093 -0.623348
O88   O     O_3   0.392197 0.681029 0.819527 -0.764270
O89   O     O_3   0.140111 0.266743 0.407369 -0.667386
O90   O     O_R   0.365810 0.719640 0.719640 -0.616599
O91   O     O_3   0.738764 0.862104 0.590853 -0.689890
O92   O     O_3   0.421991 0.159574 0.826411 -0.614906
O93   O     O_3   0.604475 0.662911 0.200706 -0.757381
O94   O     O_3   0.859214 0.268551 0.589039 -0.693392
O95   O     O_3   0.241237 0.863270 0.414367 -0.671437
O96   O     O_3   0.603223 0.654894 0.787370 -0.767141
O97   O     O_3   0.404902 0.153493 0.298341 -0.714596
O98   O     O_3   0.138043 0.781181 0.581515 -0.675829
O99   O     O_3   0.808631 0.148090 0.422424 -0.660575
O100  O     O_3   0.394563 0.694758 0.168005 -0.768329
O101  O     O_R   0.634190 0.719640 0.280360 -0.554073
O102  O     O_3   0.596305 0.150988 0.706156 -0.713341
O103  O     O_3   0.853206 0.805857 0.421521 -0.637853
O104  O     O_3   0.186305 0.152139 0.578815 -0.607436
O105  O     O_3   0.285965 0.604770 0.844558 -0.781015
O106  O     O_3   0.840146 0.422629 0.169499 -0.616876
O107  O     O_3   0.205570 0.420467 0.142177 -0.659188
O108  O     O_3   0.700692 0.605465 0.836036 -0.749728
O109  O     O_3   0.695588 0.392464 0.831488 -0.755814
O110  O     O_3   0.137130 0.587558 0.253660 -0.702603
O111  O     O_3   0.707953 0.588516 0.152880 -0.729030
O112  O     O_3   0.250000 0.250000 0.250000 -0.543727
O113  O     O_R   0.365810 0.280360 0.719640 -0.608538
O114  O     O_3   0.308632 0.394165 0.829158 -0.788183
O115  O     O_R   0.634190 0.719640 0.719640 -0.596084
O116  O     O_R   0.365810 0.280360 0.280360 -0.587985
O117  O     O_R   0.634190 0.280360 0.719640 -0.592074
O118  O     O_R   0.365810 0.719640 0.280360 -0.582417
O119  O     O_R   0.280360 0.719640 0.365810 -0.604144
O120  O     O_R   0.719640 0.280360 0.634190 -0.609361
O121  O     O_R   0.719640 0.719640 0.365810 -0.575640
O122  O     O_R   0.280360 0.280360 0.634190 -0.600394
O123  O     O_R   0.719640 0.280360 0.365810 -0.592320
O124  O     O_3   0.750000 0.750000 0.250000 -0.545608
O125  O     O_R   0.280360 0.719640 0.634190 -0.593838
O126  O     O_R   0.280360 0.280360 0.365810 -0.592502
O127  O     O_R   0.719640 0.719640 0.634190 -0.608010
O128  O     O_R   0.219640 0.134190 0.719640 -0.607743
O129  O     O_R   0.780360 0.865810 0.280360 -0.603991
O130  O     O_R   0.719640 0.134190 0.780360 -0.589835
O131  O     O_R   0.280360 0.865810 0.219640 -0.599498
O132  O     O_R   0.780360 0.134190 0.280360 -0.600542
O133  O     O_R   0.219640 0.865810 0.719640 -0.604570
O134  O     O_R   0.280360 0.134190 0.219640 -0.595833
O135  O     O_3   0.250000 0.250000 0.750000 -0.540073
O136  O     O_R   0.719640 0.865810 0.780360 -0.617800
O137  O     O_R   0.219640 0.865810 0.280360 -0.586084
O138  O     O_R   0.780360 0.134190 0.719640 -0.613096
O139  O     O_R   0.719640 0.865810 0.219640 -0.590801
O140  O     O_R   0.280360 0.134190 0.780360 -0.599137
O141  O     O_R   0.780360 0.865810 0.719640 -0.572933
O142  O     O_R   0.219640 0.134190 0.280360 -0.609441
O143  O     O_R   0.280360 0.865810 0.780360 -0.606657
O144  O     O_R   0.719640 0.134190 0.219640 -0.590573
O145  O     O_R   0.134190 0.280360 0.780360 -0.602766
O146  O     O_3   0.250000 0.750000 0.250000 -0.543737
O147  O     O_R   0.865810 0.719640 0.219640 -0.627984
O148  O     O_R   0.134190 0.219640 0.280360 -0.580221
O149  O     O_R   0.865810 0.780360 0.719640 -0.591143
O150  O     O_R   0.134190 0.719640 0.219640 -0.599608
O151  O     O_R   0.865810 0.280360 0.780360 -0.580230
O152  O     O_R   0.134190 0.780360 0.719640 -0.615133
O153  O     O_R   0.865810 0.219640 0.280360 -0.576183
O154  O     O_R   0.865810 0.719640 0.780360 -0.589609
O155  O     O_R   0.134190 0.280360 0.219640 -0.591268
O156  O     O_R   0.865810 0.780360 0.280360 -0.551460
O157  O     O_3   0.750000 0.250000 0.750000 -0.544241
O158  O     O_R   0.134190 0.219640 0.719640 -0.582666
O159  O     O_R   0.865810 0.280360 0.219640 -0.580854
O160  O     O_R   0.134190 0.719640 0.780360 -0.582601
O161  O     O_R   0.865810 0.219640 0.719640 -0.595196
O162  O     O_R   0.134190 0.780360 0.280360 -0.574881
O163  O     O_R   0.280360 0.219640 0.865810 -0.599450
O164  O     O_R   0.719640 0.780360 0.134190 -0.617102
O165  O     O_R   0.219640 0.719640 0.865810 -0.596623
O166  O     O_R   0.780360 0.280360 0.134190 -0.585798
O167  O     O_R   0.719640 0.780360 0.865810 -0.617780
O168  O     O_3   0.250000 0.750000 0.750000 -0.544002
O169  O     O_R   0.280360 0.219640 0.134190 -0.591330
O170  O     O_R   0.780360 0.280360 0.865810 -0.598860
O171  O     O_R   0.219640 0.719640 0.134190 -0.594735
O172  O     O_R   0.719640 0.219640 0.134190 -0.615657
O173  O     O_R   0.280360 0.780360 0.865810 -0.590084
O174  O     O_R   0.780360 0.719640 0.134190 -0.578291
O175  O     O_R   0.219640 0.280360 0.865810 -0.591507
O176  O     O_R   0.280360 0.780360 0.134190 -0.601514
O177  O     O_R   0.719640 0.219640 0.865810 -0.591611
O178  O     O_R   0.219640 0.280360 0.134190 -0.588662
O179  O     O_3   0.750000 0.250000 0.250000 -0.543170
O180  O     O_R   0.780360 0.719640 0.865810 -0.568275
O181  O     O_R   0.219640 0.634190 0.219640 -0.589875
O182  O     O_R   0.780360 0.365810 0.780360 -0.605570
O183  O     O_R   0.219640 0.634190 0.780360 -0.577768
O184  O     O_R   0.780360 0.365810 0.219640 -0.633903
O185  O     O_R   0.780360 0.634190 0.780360 -0.593491
O186  O     O_R   0.219640 0.365810 0.219640 -0.609936
O187  O     O_R   0.780360 0.634190 0.219640 -0.622980
O188  O     O_R   0.219640 0.365810 0.780360 -0.602427
O189  O     O_R   0.634190 0.780360 0.780360 -0.579074
O190  O     O_R   0.719640 0.634190 0.719640 -0.581825
O191  O     O_R   0.365810 0.219640 0.219640 -0.593984
O192  O     O_R   0.634190 0.219640 0.780360 -0.590567
O193  O     O_R   0.365810 0.780360 0.219640 -0.598816
O194  O     O_R   0.634190 0.219640 0.219640 -0.603173
O195  O     O_R   0.365810 0.780360 0.780360 -0.570751
O196  O     O_R   0.634190 0.780360 0.219640 -0.611161
O197  O     O_R   0.365810 0.219640 0.780360 -0.606771
O198  O     O_R   0.780360 0.219640 0.365810 -0.596944
O199  O     O_R   0.219640 0.780360 0.634190 -0.599770
O200  O     O_R   0.219640 0.219640 0.365810 -0.589740
Zn1   Zn    Zn3+2 0.706630 0.793370 0.793370 1.106761
Zn2   Zn    Zn3+2 0.293370 0.793370 0.793370 1.119198
Zn3   Zn    Zn3+2 0.793370 0.206630 0.706630 1.091478
Zn4   Zn    Zn3+2 0.206630 0.793370 0.293370 1.093131
Zn5   Zn    Zn3+2 0.293370 0.206630 0.793370 1.061112
Zn6   Zn    Zn3+2 0.706630 0.793370 0.206630 1.102942
Zn7   Zn    Zn3+2 0.206630 0.206630 0.293370 1.098555
Zn8   Zn    Zn3+2 0.793370 0.793370 0.706630 1.107386
Zn9   Zn    Zn3+2 0.793370 0.706630 0.206630 1.096095
Zn10  Zn    Zn3+2 0.206630 0.293370 0.793370 1.116303
Zn11  Zn    Zn3+2 0.793370 0.293370 0.793370 1.118441
Zn12  Zn    Zn3+2 0.293370 0.206630 0.206630 1.081948
Zn13  Zn    Zn3+2 0.206630 0.706630 0.206630 1.081039
Zn14  Zn    Zn3+2 0.206630 0.293370 0.206630 1.093895
Zn15  Zn    Zn3+2 0.793370 0.706630 0.793370 1.130561
Zn16  Zn    Zn3+2 0.206630 0.706630 0.793370 1.125681
Zn17  Zn    Zn3+2 0.793370 0.293370 0.206630 1.091384
Zn18  Zn    Zn3+2 0.706630 0.293370 0.293370 1.096539
Zn19  Zn    Zn3+2 0.293370 0.706630 0.706630 1.101428
Zn20  Zn    Zn3+2 0.293370 0.293370 0.293370 1.085216
Zn21  Zn    Zn3+2 0.706630 0.706630 0.706630 1.112655
Zn22  Zn    Zn3+2 0.293370 0.293370 0.706630 1.094537
Zn23  Zn    Zn3+2 0.793370 0.793370 0.293370 1.117752
Zn24  Zn    Zn3+2 0.706630 0.706630 0.293370 1.134267
Zn25  Zn    Zn3+2 0.706630 0.293370 0.706630 1.096129
Zn26  Zn    Zn3+2 0.293370 0.706630 0.293370 1.096022
Zn27  Zn    Zn3+2 0.206630 0.206630 0.706630 1.084666
Zn28  Zn    Zn3+2 0.293370 0.793370 0.206630 1.081389
Zn29  Zn    Zn3+2 0.706630 0.206630 0.793370 1.091233
Zn30  Zn    Zn3+2 0.206630 0.793370 0.706630 1.097102
Zn31  Zn    Zn3+2 0.793370 0.206630 0.293370 1.115461
Zn32  Zn    Zn3+2 0.706630 0.206630 0.206630 1.071992

loop_
_geom_bond_atom_site_label_1
_geom_bond_atom_site_label_2
_ccdc_geom_bond_type
C221  C230  A    
C10   C238  A    
C94   C371  A    
C2    O90   A    
Br60  C88   S    
C81   C95   A    
C3    C108  A    
C44   C151  A    
Br4   C140  S    
C92   C369  A    
C58   C65   A    
C351  O30   S    
C250  C272  A    
H86   O103  S    
C62   C339  A    
C29   C136  A    
C202  C308  A    
C221  C314  A    
C85   C91   A    
C32   O94   S    
H81   O97   S    
H15   O31   S    
C151  C156  A    
C362  O41   S    
C383  O62   S    
C210  C214  A    
O151  Zn11  S    
C329  O8    S    
C243  C278  A    
C47   O108  S    
C179  O129  A    
O179  Zn18  S    
H88   O105  S    
C210  C313  A    
C230  C313  A    
O112  Zn12  S    
C96   C373  A    
C99   C377  A    
C45   C152  A    
C97   C105  A    
C38   O99   S    
O1    Zn21  S    
Br55  C84   S    
C30   C137  A    
C50   C258  A    
Br2   C133  S    
Br3   C139  S    
O5    Zn3   S    
C137  C147  A    
Br37  C89   S    
O124  Zn24  S    
O154  Zn15  S    
C198  C361  A    
C48   O109  S    
C12   O74   S    
C181  C287  A    
Br42  C125  S    
Br14  C152  S    
C60   C337  A    
C9    O71   S    
C207  C295  A    
C229  C300  A    
C342  O20   S    
C30   C253  A    
O157  Zn29  S    
H19   O36   S    
C22   C129  A    
H47   O63   S    
C13   C270  S    
H76   O93   S    
C32   C251  A    
O117  Zn25  S    
O90   Zn19  S    
C38   C245  A    
O146  Zn28  S    
C71   C348  A    
C7    C114  A    
C222  C238  A    
C299  C322  S    
Br71  C61   S    
C54   C332  A    
C363  O184  A    
C213  C298  A    
C169  C275  A    
C165  C171  A    
C225  C237  A    
C74   C351  A    
C366  O44   S    
C78   C88   A    
Br79  C64   S    
C268  C300  S    
C219  C376  A    
H44   O61   S    
Br15  C153  S    
C220  C231  A    
C330  O35   A    
C236  C316  A    
C46   O191  A    
C251  C273  A    
C321  O163  A    
C86   C89   A    
C268  O156  A    
C16   O77   S    
C216  C308  A    
C90   C273  S    
C14   C120  A    
C120  C128  A    
C166  C273  A    
C132  C142  A    
O139  Zn6   S    
C6    C206  A    
H96   O114  S    
H66   O83   S    
C85   C362  A    
C349  O28   S    
O129  Zn23  S    
C87   C365  A    
C189  C199  A    
Br68  C111  S    
H41   O58   S    
C18   C220  A    
C54   C69   A    
Br12  C142  S    
Br20  C102  S    
C279  O148  A    
C112  C286  S    
Br77  C63   S    
C172  C335  A    
O3    Zn8   S    
C206  C310  A    
C57   O192  A    
C260  C288  A    
Br52  C128  S    
O200  Zn7   S    
O167  Zn1   S    
C98   C376  A    
C103  C108  A    
C186  C365  A    
C157  O3    A    
C133  C141  A    
Br95  C70   S    
H53   O70   S    
C289  C319  S    
C88   C366  A    
C257  O158  A    
Br46  C85   S    
C165  C272  A    
C324  O166  A    
O190  Zn21  S    
C211  C375  A    
C208  C216  A    
O135  Zn22  S    
C135  O199  A    
O133  Zn30  S    
C19   O81   S    
C47   C153  A    
C46   C274  S    
C384  O63   S    
H69   O85   S    
C327  O177  A    
C25   C131  A    
C77   C355  A    
C340  O19   S    
C259  C287  A    
C215  C380  A    
H54   O71   S    
C293  C301  S    
C218  C316  A    
H62   O78   S    
Br39  C119  S    
O191  Zn12  S    
C26   O87   S    
O168  Zn16  S    
C20   C127  A    
C7    O69   S    
C157  O127  A    
O164  Zn6   S    
C20   O82   S    
C219  C317  A    
C39   C145  A    
C181  C350  A    
Br40  C82   S    
H23   O10   S    
C326  O169  A    
Br81  C53   S    
O149  Zn8   S    
O199  Zn30  S    
O126  Zn20  S    
C3    C209  A    
C298  C321  S    
Br21  C100  S    
C100  C110  A    
C190  O138  A    
Br63  C103  S    
O4    Zn4   S    
C12   C119  A    
C307  C328  S    
O132  Zn31  S    
O194  Zn32  S    
H85   O102  S    
C168  O140  A    
C49   O110  S    
Br27  C122  S    
C1    C285  S    
C239  C274  A    
C241  C281  A    
C42   C149  A    
C16   C122  A    
C320  O159  A    
C319  O24   A    
O146  Zn26  S    
C290  C297  S    
C373  O52   S    
C72   C349  A    
C1    O190  A    
Br7   C134  S    
C30   O92   S    
C2    O195  A    
C23   O85   S    
C332  O10   S    
C199  C360  A    
C66   C344  A    
C242  C254  A    
H67   O15   S    
C124  C276  S    
C139  C144  A    
Br58  C99   S    
C19   C126  A    
H57   O73   S    
C184  C291  A    
C353  O31   S    
C82   C359  A    
C37   O98   S    
C268  O147  A    
C179  O139  A    
C245  C251  A    
C189  C370  A    
H79   O95   S    
C161  C346  A    
C193  C367  A    
C153  C154  A    
C9    C116  A    
C101  C282  S    
O157  Zn3   S    
H40   O56   S    
C42   O104  S    
C176  C283  A    
C31   C252  A    
O24   Zn22  S    
Br86  C54   S    
C183  C348  A    
C241  C255  A    
C356  O34   S    
O113  Zn22  S    
C201  C309  S    
C355  O33   S    
C212  C314  S    
Br54  C107  S    
C243  C253  A    
C357  O36   S    
C301  O162  A    
O188  Zn10  S    
C17   O78   S    
H72   O88   S    
C350  O29   S    
C36   C142  A    
C36   O97   S    
C318  O160  A    
C238  C305  A    
C45   C262  A    
O124  Zn6   S    
C186  C194  A    
C72   C75   A    
C103  C380  A    
C338  O17   S    
C191  C369  A    
C258  C291  A    
C331  O9    S    
C100  C378  A    
H45   O12   S    
O157  Zn11  S    
C26   C249  A    
Br30  C96   S    
C191  C297  A    
C40   C243  A    
C112  O2    A    
O138  Zn3   S    
O197  Zn5   S    
C335  O14   S    
C28   C255  A    
Br70  C92   S    
C67   C345  A    
C367  O45   S    
O140  Zn5   S    
Br6   C138  S    
C26   C132  A    
C18   C125  A    
C174  C281  A    
C178  C353  A    
O168  Zn2   S    
H16   O32   S    
Br19  C126  S    
O7    Zn27  S    
C168  O128  A    
Br50  C94   S    
H30   O47   S    
C322  O174  A    
C16   C232  A    
C15   O76   S    
C23   C130  A    
C322  O164  A    
Br13  C155  S    
C244  C252  A    
O146  Zn13  S    
C160  C338  A    
C209  C311  A    
C312  O161  A    
O171  Zn13  S    
Br26  C105  S    
H93   O109  S    
C6    O67   S    
C4    O65   S    
C374  O194  A    
C1    O185  A    
Br1   C141  S    
C228  C233  A    
O158  Zn27  S    
O180  Zn15  S    
O170  Zn11  S    
H37   O53   S    
C18   O80   S    
C95   C372  A    
C11   O73   S    
C327  O170  A    
C78   C356  A    
C43   C264  A    
C135  O125  A    
O112  Zn14  S    
C98   C114  A    
C76   C354  A    
C83   C93   A    
O157  Zn25  S    
H61   O77   S    
C12   C236  A    
O2    Zn20  S    
H48   O64   S    
C2    C265  S    
C13   O101  A    
C58   C335  A    
C146  O126  A    
Br82  C59   S    
C204  C211  A    
O46   Zn25  S    
Br32  C130  S    
O181  Zn13  S    
C256  C264  A    
C359  O38   S    
C101  O6    A    
C235  O142  A    
H89   O17   S    
C192  C368  A    
O127  Zn21  S    
C24   C271  S    
H14   O30   S    
C165  C342  A    
C365  O43   S    
H13   O29   S    
C44   C263  A    
C290  O154  A    
C48   C260  A    
O79   Zn18  S    
C44   O106  S    
C40   C147  A    
C341  O182  A    
C295  C323  S    
C49   C155  A    
C124  O198  A    
H77   O94   S    
C345  O23   S    
O119  Zn26  S    
C57   O117  A    
C163  C173  A    
C91   C368  A    
C214  C314  A    
C4    C109  A    
C3    O64   S    
C200  C359  A    
O165  Zn16  S    
H25   O41   S    
C140  C143  A    
C283  C363  S    
Br75  C65   S    
C56   C334  A    
C15   C233  A    
C13   O196  A    
C217  C307  A    
O112  Zn20  S    
H31   O48   S    
C240  C248  A    
C186  C293  A    
C47   C261  A    
H32   O49   S    
C194  C357  A    
C232  C293  A    
C40   O102  S    
C73   C350  A    
O128  Zn27  S    
O176  Zn28  S    
C64   C342  A    
C9    C230  A    
C175  C332  A    
C43   O105  S    
C205  C309  A    
Br85  C58   S    
C200  C307  A    
O168  Zn19  S    
C160  C266  A    
C224  O143  A    
C56   C66   A    
C257  C302  S    
C233  C292  A    
C5    C110  A    
C113  O122  A    
O135  Zn10  S    
C204  C382  A    
C180  C181  A    
O145  Zn10  S    
O150  Zn13  S    
O198  Zn31  S    
C21   C128  A    
C15   C121  A    
C22   O84   S    
O142  Zn7   S    
O161  Zn3   S    
C370  O49   S    
C256  C289  A    
C171  C277  A    
O68   Zn18  S    
Br29  C97   S    
C34   C141  A    
C121  C127  A    
Br28  C121  S    
C197  C304  A    
Br65  C78   S    
C227  C309  A    
C17   C221  A    
C42   C241  A    
C169  C329  A    
C320  O153  A    
C284  C352  S    
C333  O11   S    
C263  C283  A    
C180  C351  A    
C170  C276  A    
C86   C364  A    
C325  O180  A    
C35   C275  S    
C27   C248  A    
Br73  C67   S    
C287  C330  S    
C215  C315  A    
C210  C384  A    
O135  Zn27  S    
C328  O171  A    
H27   O43   S    
O186  Zn14  S    
O101  Zn24  S    
C208  C294  A    
O182  Zn11  S    
C360  O39   S    
O121  Zn24  S    
C174  C333  A    
C167  C331  A    
C81   C358  A    
C178  C285  A    
O177  Zn29  S    
O192  Zn29  S    
C68   C280  S    
C218  C377  A    
C306  C320  S    
C217  C378  A    
Br17  C151  S    
H7    O23   S    
C45   O107  S    
C193  C196  A    
C29   C254  A    
C25   O86   S    
C223  O13   A    
O183  Zn16  S    
O1    Zn8   S    
C246  C316  S    
O153  Zn31  S    
C84   C92   A    
C212  O144  A    
C136  C148  A    
H68   O84   S    
C46   O116  A    
Br93  C72   S    
C23   C225  A    
C80   C357  A    
C301  O150  A    
C113  O7    A    
O155  Zn14  S    
Br78  C144  S    
C197  C362  A    
C185  C195  A    
H83   O99   S    
C33   C250  A    
C161  C175  A    
O116  Zn20  S    
O35   Zn26  S    
C163  C344  A    
C234  C317  A    
C68   O193  A    
C57   C278  S    
C235  C317  S    
C32   C139  A    
C10   O72   S    
Br66  C114  S    
O141  Zn8   S    
O147  Zn9   S    
C28   O89   S    
C206  C218  A    
C102  C109  A    
C225  C296  A    
C203  C304  A    
H87   O104  S    
H91   O107  S    
C336  O15   S    
C17   C123  A    
O184  Zn17  S    
Br76  C66   S    
C375  O53   S    
C266  C374  S    
Br11  C154  S    
C33   C140  A    
H11   O28   S    
H28   O44   S    
H39   O55   S    
C79   O4    A    
C202  C358  A    
Br9   C156  S    
H42   O59   S    
C255  C269  A    
C113  C281  S    
C254  C267  A    
Br57  C83   S    
C39   O100  S    
C35   O115  A    
C214  C381  A    
H64   O81   S    
C159  C169  A    
C209  C215  A    
C352  O57   A    
C50   C156  A    
O173  Zn2   S    
C119  C129  A    
C59   C336  A    
C253  C271  A    
H9    O26   S    
C192  C298  A    
C117  C131  A    
O146  Zn4   S    
H20   O37   S    
C207  C217  A    
C89   C367  A    
Br90  C77   S    
O124  Zn23  S    
C41   C242  A    
H24   O40   S    
Br34  C149  S    
C382  O61   S    
Br96  C71   S    
C328  O176  A    
C227  C234  A    
C124  O123  A    
C192  C197  A    
H2    O18   S    
C371  O50   S    
O187  Zn9   S    
C352  O183  A    
C195  C356  A    
C82   C94   A    
Br49  C95   S    
C104  C381  A    
H56   O14   S    
C164  C271  A    
Br80  C52   S    
C93   C370  A    
O122  Zn22  S    
C179  C313  S    
C157  C267  S    
C11   C237  A    
H33   O50   S    
O178  Zn14  S    
H75   O92   S    
Br44  C86   S    
C33   O95   S    
C173  C280  A    
C368  O47   S    
C36   C239  A    
C380  O59   S    
Br41  C81   S    
C25   C222  A    
C48   C154  A    
C205  C219  A    
C70   C77   A    
C166  C340  A    
Br10  C158  S    
C187  C294  A    
H36   O52   S    
C245  C276  A    
Br43  C123  S    
C288  C341  S    
C146  O200  A    
Br89  C132  S    
H58   O74   S    
C374  O79   A    
C191  C198  A    
C247  C277  A    
C71   C76   A    
C264  C284  A    
C116  C123  A    
C260  C261  A    
C150  C158  A    
C344  O22   S    
C279  C296  S    
H46   O62   S    
Br36  C91   S    
C242  C282  A    
O163  Zn5   S    
H74   O91   S    
O172  Zn32  S    
C220  C315  A    
Br62  C104  S    
C176  C355  A    
H35   O51   S    
C224  O133  A    
O134  Zn12  S    
C248  C265  A    
C49   C259  A    
C51   O114  S    
C193  C299  A    
C22   C226  A    
O125  Zn19  S    
C194  C300  A    
O13   Zn24  S    
H4    O20   S    
C164  C343  A    
C162  C174  A    
C8    C231  A    
C239  C249  A    
O168  Zn30  S    
C377  O55   S    
O143  Zn2   S    
C99   C111  A    
C354  O32   S    
O6    Zn23  S    
C160  C167  A    
C246  O136  A    
O195  Zn2   S    
C308  C327  S    
Br64  C80   S    
C163  C270  A    
C8    O70   S    
Br23  C148  S    
C201  O131  A    
C43   C150  A    
O179  Zn31  S    
C65   C343  A    
O144  Zn32  S    
O179  Zn17  S    
H34   O11   S    
C29   O91   S    
O162  Zn4   S    
O159  Zn17  S    
O148  Zn7   S    
C37   C247  A    
C80   C87   A    
C279  O155  A    
C162  C269  A    
C4    C208  A    
H12   O9    S    
Br88  C76   S    
C175  C282  A    
Br31  C131  S    
H82   O98   S    
C188  C295  A    
Br8   C136  S    
C73   C74   A    
C223  O187  A    
H43   O60   S    
H60   O76   S    
C337  O16   S    
C348  O27   S    
C14   C234  A    
C52   C329  A    
C198  C305  A    
C188  C371  A    
H80   O96   S    
O166  Zn17  S    
C171  C336  A    
C177  C183  A    
H55   O72   S    
C184  C347  A    
C105  C382  A    
C167  C274  A    
C14   O75   S    
H90   O106  S    
C203  C213  A    
C226  C310  A    
C104  C107  A    
Br94  C73   S    
C326  O178  A    
C346  O25   S    
C190  C310  S    
C324  O172  A    
O124  Zn9   S    
H17   O33   S    
Br92  C75   S    
C201  O137  A    
C258  C263  A    
O160  Zn16  S    
H71   O87   S    
H21   O38   S    
Br72  C62   S    
C183  C289  A    
C34   O96   S    
C235  O134  A    
Br67  C143  S    
H63   O80   S    
C303  C325  S    
C55   C333  A    
C53   C331  A    
C41   C148  A    
C106  C383  A    
Br35  C109  S    
C231  C311  A    
C51   C256  A    
H5    O21   S    
C212  O132  A    
C341  O46   A    
O1    Zn15  S    
C261  C285  A    
Br48  C115  S    
C228  C302  A    
C321  O175  A    
O137  Zn4   S    
C223  C291  S    
H52   O69   S    
O174  Zn9   S    
C343  O21   S    
H22   O39   S    
C339  O18   S    
O130  Zn29  S    
C381  O60   S    
C244  C280  A    
O135  Zn5   S    
C34   C240  A    
C334  O12   S    
H10   O27   S    
C358  O37   S    
C222  C297  A    
Br87  C55   S    
Br47  C116  S    
H1    O8    S    
C177  C354  A    
C190  O130  A    
O131  Zn28  S    
O123  Zn18  S    
C107  C384  A    
C122  C126  A    
H73   O89   S    
C61   C338  A    
Br59  C98   S    
H51   O67   S    
C173  C334  A    
Br33  C110  S    
Br61  C87   S    
H94   O110  S    
C5    C207  A    
H49   O65   S    
C79   C272  S    
H92   O108  S    
C68   O118  A    
C363  O68   A    
Br25  C106  S    
H65   O82   S    
Br69  C93   S    
C325  O167  A    
H3    O19   S    
Br83  C60   S    
C138  C145  A    
O189  Zn1   S    
O179  Zn32  S    
O169  Zn12  S    
C376  O54   S    
O115  Zn21  S    
C361  O40   S    
H59   O75   S    
O185  Zn15  S    
C304  C326  S    
C249  C266  A    
C229  C232  A    
C203  C383  A    
C24   O113  A    
C90   O5    A    
C180  C286  A    
Br18  C127  S    
C90   O120  A    
H18   O34   S    
C115  C125  A    
C199  C306  A    
Br24  C117  S    
C177  C284  A    
C182  C288  A    
C102  C379  A    
C27   C133  A    
C240  C275  A    
C63   C340  A    
C75   C353  A    
O152  Zn30  S    
C159  C339  A    
C50   O111  S    
C259  C262  A    
C39   C244  A    
H50   O66   S    
C112  O186  A    
O118  Zn26  S    
C182  C349  A    
C134  C149  A    
C196  C303  A    
C135  C277  S    
C257  O145  A    
C161  C267  A    
C146  C269  S    
C172  C278  A    
Br84  C56   S    
O156  Zn23  S    
O136  Zn1   S    
H26   O42   S    
Br56  C147  S    
H84   O100  S    
C319  O188  A    
C84   C361  A    
C55   C67   A    
Br22  C118  S    
C247  C250  A    
C164  C172  A    
C83   C360  A    
C318  O152  A    
C20   C228  A    
Br45  C145  S    
C41   O103  S    
H29   O45   S    
C379  O58   S    
C224  C315  S    
C290  O149  A    
C79   O119  A    
C6    C111  A    
C10   C117  A    
C31   O93   S    
C27   O88   S    
Br74  C69   S    
C31   C138  A    
C213  C373  A    
Br91  C74   S    
C59   C64   A    
C178  C182  A    
C170  C337  A    
C38   C144  A    
H6    O22   S    
C60   C63   A    
C69   C346  A    
Br38  C120  S    
C262  C286  A    
C347  O26   S    
C378  O56   S    
C166  C170  A    
C364  O42   S    
C35   O189  A    
C330  O181  A    
H95   O111  S    
C188  C200  A    
C21   C227  A    
Br16  C150  S    
C196  C364  A    
C52   C62   A    
C51   C158  A    
C323  O173  A    
C369  O48   S    
Br51  C129  S    
C21   O83   S    
Br53  C108  S    
C162  C345  A    
C168  C311  S    
C5    O66   S    
H78   O16   S    
C305  C318  S    
C19   C229  A    
C187  C202  A    
C252  C270  A    
C11   C118  A    
C204  C303  A    
C292  C312  S    
C237  C306  A    
C246  O141  A    
C187  C372  A    
H38   O54   S    
C37   C143  A    
C97   C375  A    
C372  O51   S    
O196  Zn6   S    
C226  C236  A    
C118  C130  A    
C312  O151  A    
H8    O25   S    
C159  C265  A    
C152  C155  A    
C323  O165  A    
O1    Zn1   S    
C195  C302  A    
C294  C324  S    
C70   C347  A    
C101  O121  A    
C7    C205  A    
C189  C296  A    
O112  Zn7   S    
C176  C184  A    
C24   O197  A    
O175  Zn10  S    
C96   C106  A    
Br5   C137  S    
O57   Zn19  S    
C8    C115  A    
C53   C61   A    
C185  C292  A    
O120  Zn25  S    
H70   O86   S    
C216  C379  A    
C28   C134  A    
C185  C366  A    
O193  Zn28  S    
C211  C299  A    
