data_mof_unit_37846.cif
_audit_creation_date              2012-10-26T21:09:50-0400
_audit_creation_method            fapswitch 2.2
_symmetry_space_group_name_H-M    P1
_symmetry_Int_Tables_number       1
_space_group_crystal_system       triclinic
_cell_length_a                    15.978798
_cell_length_b                    14.741132
_cell_length_c                    19.26644
_cell_angle_alpha                 89.990757
_cell_angle_beta                  89.726682
_cell_angle_gamma                 90.026896
_cell_volume                      4538.07240685

loop_
_atom_site_label
_atom_site_type_symbol
_atom_type_description
_atom_site_fract_x
_atom_site_fract_y
_atom_site_fract_z
_atom_type_partial_charge
C1    C     C_R   0.340803 0.499964 0.499846 0.521185
C2    C     C_R   0.569257 0.048458 0.526196 0.232281
C3    C     C_R   0.500076 0.903035 0.499869 -0.085113
C4    C     C_R   0.500073 0.097320 0.499896 -0.085272
C5    C     C_1   0.500037 0.802733 0.499947 0.183556
C6    C     C_1   0.500032 0.197410 0.499951 0.184944
C7    C     C_R   0.500847 0.499804 0.367202 0.564777
C8    C     C_R   0.499573 0.499772 0.632805 0.565133
C9    C     C_R   0.449981 0.555883 0.252759 0.219572
C10   C     C_R   0.448443 0.434655 0.743978 0.205785
C11   C     C_R   0.553794 0.555165 0.746479 0.219510
C12   C     C_R   0.659175 0.500008 0.500144 0.518186
C13   C     C_R   0.555214 0.435427 0.256749 0.205631
C14   C     C_R   0.453894 0.554635 0.180162 0.225517
C15   C     C_R   0.455054 0.425091 0.815922 0.226144
C16   C     C_R   0.551767 0.553470 0.819136 0.226158
C17   C     C_R   0.550613 0.426424 0.184631 0.227212
C18   C     C_R   0.502207 0.488008 0.145975 -0.064686
C19   C     C_R   0.504213 0.486663 0.853944 -0.064812
C20   C     C_R   0.502605 0.498050 0.291235 -0.086289
C21   C     C_R   0.499857 0.497765 0.708780 -0.086337
C22   C     C_R   0.503975 0.482758 0.929891 0.345623
C23   C     C_1   0.823279 0.499898 0.500154 -0.077466
C24   C     C_R   0.502800 0.483537 0.070050 0.345751
C25   C     C_R   0.956433 0.570271 0.467297 -0.110194
C26   C     C_R   0.043413 0.428891 0.531836 -0.110294
C27   C     C_R   0.043740 0.570253 0.467158 -0.108602
C28   C     C_R   0.956101 0.429116 0.532242 -0.109936
C29   C     C_R   0.912701 0.499779 0.499931 0.032890
C30   C     C_R   0.087174 0.499539 0.499395 0.038479
C31   C     C_3   0.326217 0.575890 0.312246 0.022468
C32   C     C_3   0.257980 0.568239 0.256930 -0.260924
C33   C     C_3   0.175939 0.534333 0.288476 -0.491166
C34   C     C_1   0.176636 0.499663 0.499423 -0.073250
C35   C     C_3   0.322984 0.422729 0.686846 0.035795
C36   C     C_3   0.254227 0.414330 0.742105 -0.254676
C37   C     C_3   0.171942 0.454599 0.716595 -0.490614
C38   C     C_3   0.675433 0.575326 0.683915 0.023678
C39   C     C_3   0.746482 0.568149 0.736734 -0.262436
C40   C     C_3   0.826494 0.532818 0.702576 -0.490553
C41   C     C_3   0.678285 0.423138 0.317479 0.037052
C42   C     C_3   0.750229 0.414396 0.265183 -0.255918
C43   C     C_3   0.830910 0.454822 0.294012 -0.490313
C44   C     C_3   0.457476 0.684868 0.114405 0.035608
C45   C     C_1   0.251700 0.499832 0.499575 -0.056025
C46   C     C_3   0.437700 0.775208 0.149736 -0.259500
C47   C     C_3   0.486387 0.853244 0.116716 -0.501174
C48   C     C_3   0.462111 0.283618 0.865168 0.029244
C49   C     C_3   0.454943 0.210010 0.809364 -0.249723
C50   C     C_3   0.507227 0.126797 0.827519 -0.509138
C51   C     C_3   0.549377 0.683273 0.885425 0.036027
C52   C     C_3   0.568749 0.774223 0.850839 -0.259633
C53   C     C_3   0.520712 0.851687 0.885197 -0.501294
C54   C     C_3   0.544998 0.285122 0.134956 0.029461
C55   C     C_3   0.550570 0.211499 0.190896 -0.249630
C56   C     C_1   0.748240 0.499989 0.500220 -0.058554
C57   C     C_3   0.499118 0.128085 0.171577 -0.509242
C58   C     C_3   0.627541 0.133053 0.614088 0.008983
C59   C     C_3   0.677000 0.221795 0.618473 -0.244639
C60   C     C_3   0.659062 0.272510 0.686011 -0.484141
C61   C     C_3   0.365642 0.880759 0.384492 0.025809
C62   C     C_3   0.277830 0.863928 0.356201 -0.244269
C63   C     C_3   0.280162 0.839500 0.279360 -0.504544
C64   C     C_3   0.373315 0.132769 0.385190 0.008255
C65   C     C_3   0.324361 0.221759 0.380507 -0.243657
C66   C     C_3   0.342855 0.272177 0.312915 -0.483110
C67   C     C_R   0.569717 0.952172 0.525050 0.231305
C68   C     C_3   0.635333 0.880998 0.614822 0.025230
C69   C     C_3   0.723461 0.865222 0.642759 -0.243920
C70   C     C_3   0.721789 0.840397 0.719532 -0.504038
C71   C     C_R   0.430960 0.048403 0.473464 0.232553
C72   C     C_R   0.430499 0.952114 0.474561 0.231436
Cu1   Cu    Cu3+1 0.500000 0.589220 0.500000 1.000564
Cu2   Cu    Cu3+1 0.500000 0.410780 0.500000 0.973456
H1    H     H_    0.077289 0.625222 0.442108 0.103788
H2    H     H_    0.128128 0.527780 0.247150 0.154425
H3    H     H_    0.152666 0.583065 0.328040 0.146457
H4    H     H_    0.300791 0.389918 0.638394 0.164497
H5    H     H_    0.333784 0.495619 0.673932 0.107642
H6    H     H_    0.244497 0.341611 0.755138 0.190612
H7    H     H_    0.273632 0.450716 0.789894 0.192889
H8    H     H_    0.180128 0.527537 0.703720 0.155456
H9    H     H_    0.123545 0.448341 0.757862 0.153585
H10   H     H_    0.150007 0.417768 0.669818 0.148370
H11   H     H_    0.697033 0.618069 0.639821 0.161240
H12   H     H_    0.922502 0.374393 0.557583 0.107866
H13   H     H_    0.661887 0.506981 0.661937 0.109518
H14   H     H_    0.758960 0.635870 0.759757 0.186668
H15   H     H_    0.727916 0.520977 0.779077 0.186651
H16   H     H_    0.815654 0.464720 0.679598 0.145289
H17   H     H_    0.876618 0.527241 0.742056 0.154026
H18   H     H_    0.847757 0.580090 0.661168 0.158027
H19   H     H_    0.697489 0.390385 0.366816 0.167914
H20   H     H_    0.667048 0.496128 0.329730 0.106791
H21   H     H_    0.760654 0.341596 0.252856 0.190166
H22   H     H_    0.733703 0.450449 0.216493 0.192061
H23   H     H_    0.923095 0.625090 0.442159 0.112284
H24   H     H_    0.822066 0.527868 0.306181 0.150391
H25   H     H_    0.881769 0.448251 0.254872 0.153632
H26   H     H_    0.849931 0.418396 0.341898 0.159797
H27   H     H_    0.442609 0.690506 0.058271 0.152418
H28   H     H_    0.526203 0.671464 0.117971 0.111858
H29   H     H_    0.369613 0.789328 0.145391 0.173519
H30   H     H_    0.454185 0.770772 0.205602 0.189239
H31   H     H_    0.554789 0.841101 0.120810 0.150951
H32   H     H_    0.470960 0.917433 0.144052 0.144994
H33   H     H_    0.469220 0.860527 0.061207 0.143064
H34   H     H_    0.076713 0.373863 0.556722 0.105841
H35   H     H_    0.440522 0.254895 0.915479 0.153001
H36   H     H_    0.529177 0.302707 0.872494 0.113609
H37   H     H_    0.388342 0.189546 0.803881 0.185484
H38   H     H_    0.477092 0.237033 0.758786 0.193969
H39   H     H_    0.574301 0.145620 0.832097 0.142923
H40   H     H_    0.501009 0.075172 0.785881 0.140911
H41   H     H_    0.485324 0.096703 0.877255 0.148119
H42   H     H_    0.565014 0.687907 0.941466 0.153235
H43   H     H_    0.480575 0.670025 0.882323 0.111884
H44   H     H_    0.636926 0.788206 0.854590 0.174091
H45   H     H_    0.302352 0.618815 0.355414 0.158634
H46   H     H_    0.551342 0.770799 0.795127 0.188648
H47   H     H_    0.452227 0.839676 0.881721 0.151024
H48   H     H_    0.535813 0.916364 0.858375 0.145064
H49   H     H_    0.538763 0.857926 0.940585 0.142901
H50   H     H_    0.568053 0.256452 0.085086 0.153398
H51   H     H_    0.478164 0.304087 0.126295 0.113713
H52   H     H_    0.617015 0.191312 0.197862 0.186357
H53   H     H_    0.526681 0.238372 0.240963 0.193975
H54   H     H_    0.432171 0.146637 0.165533 0.143286
H55   H     H_    0.504143 0.076465 0.213342 0.140993
H56   H     H_    0.338809 0.507757 0.334986 0.109401
H57   H     H_    0.522682 0.098110 0.122334 0.148290
H58   H     H_    0.651403 0.085755 0.654278 0.132329
H59   H     H_    0.560496 0.147537 0.626401 0.116263
H60   H     H_    0.745048 0.206751 0.614955 0.164048
H61   H     H_    0.660136 0.266234 0.574120 0.203379
H62   H     H_    0.592499 0.293918 0.688032 0.170305
H63   H     H_    0.698864 0.334154 0.688681 0.137124
H64   H     H_    0.672966 0.228770 0.731460 0.140009
H65   H     H_    0.402470 0.816946 0.380405 0.155019
H66   H     H_    0.396560 0.933708 0.351840 0.105840
H67   H     H_    0.247354 0.635584 0.232641 0.188816
H68   H     H_    0.247898 0.807631 0.385657 0.170636
H69   H     H_    0.239344 0.926095 0.363235 0.186251
H70   H     H_    0.307661 0.895991 0.248621 0.138381
H71   H     H_    0.215617 0.826534 0.260719 0.145613
H72   H     H_    0.317980 0.777384 0.271331 0.192737
H73   H     H_    0.349343 0.085509 0.345016 0.132652
H74   H     H_    0.440484 0.146873 0.373017 0.115973
H75   H     H_    0.256221 0.207084 0.383861 0.166936
H76   H     H_    0.341285 0.266235 0.424820 0.203547
H77   H     H_    0.409555 0.293172 0.311019 0.169671
H78   H     H_    0.278324 0.520009 0.215889 0.186125
H79   H     H_    0.303430 0.334054 0.310022 0.138433
H80   H     H_    0.328869 0.228387 0.267511 0.140089
H81   H     H_    0.599073 0.816787 0.619116 0.155423
H82   H     H_    0.604157 0.933652 0.647553 0.105806
H83   H     H_    0.753839 0.809470 0.613059 0.173118
H84   H     H_    0.761241 0.927941 0.635744 0.186067
H85   H     H_    0.693579 0.896225 0.750496 0.138026
H86   H     H_    0.786590 0.828531 0.737970 0.146851
H87   H     H_    0.684939 0.777534 0.727466 0.192873
H88   H     H_    0.185044 0.466938 0.313128 0.150518
N1    N     N_R   0.576329 0.482918 0.034604 -0.206763
N2    N     N_R   0.430477 0.482298 0.965356 -0.206683
N3    N     N_R   0.576918 0.482907 0.965577 -0.208978
N4    N     N_R   0.429887 0.483021 0.034355 -0.208682
N5    N     N_1   0.500000 0.276710 0.500000 -0.195444
N6    N     N_1   0.500000 0.723290 0.500000 -0.187138
O1    O     O_R   0.380310 0.575320 0.500010 -0.490644
O2    O     O_3   0.396181 0.376369 0.707997 -0.546243
O3    O     O_3   0.604293 0.618336 0.713324 -0.556161
O4    O     O_3   0.606381 0.376765 0.293427 -0.546777
O5    O     O_3   0.405968 0.615898 0.143072 -0.539700
O6    O     O_3   0.409309 0.357920 0.849142 -0.537373
O7    O     O_3   0.600407 0.614800 0.855551 -0.538627
O8    O     O_3   0.597254 0.359547 0.151997 -0.536199
O9    O     O_3   0.640516 0.094010 0.547643 -0.531831
O10   O     O_3   0.358642 0.906835 0.454858 -0.531432
O11   O     O_3   0.359880 0.093929 0.451664 -0.531764
O12   O     O_R   0.619690 0.424680 0.499990 -0.506861
O13   O     O_3   0.641712 0.906961 0.544392 -0.532056
O14   O     O_R   0.619690 0.575320 0.499990 -0.492057
O15   O     O_R   0.380310 0.424680 0.500010 -0.505516
O16   O     O_R   0.499990 0.575370 0.400140 -0.470243
O17   O     O_R   0.500010 0.424630 0.599860 -0.474364
O18   O     O_R   0.500010 0.575370 0.599860 -0.470623
O19   O     O_R   0.499990 0.424630 0.400140 -0.475279
O20   O     O_3   0.398765 0.618875 0.285255 -0.556427

loop_
_geom_bond_atom_site_label_1
_geom_bond_atom_site_label_2
_ccdc_geom_bond_type
C48   H36   S    
C11   O3    S    
Cu1   Cu2   S    
C14   C18   A    
C2    C4    A    
C35   C36   S    
C43   H24   S    
C72   O10   S    
C62   H69   S    
C9    O20   S    
C33   H3    S    
C57   H54   S    
Cu1   O18   S    
C1    O15   A    
C38   O3    S    
C15   C19   A    
C7    O16   A    
C42   H22   S    
C23   C29   S    
C7    O19   A    
C36   C37   S    
N1    N3    A    
C43   H25   S    
C70   H85   S    
C31   H56   S    
C53   H48   S    
C38   C39   S    
C71   O11   S    
C50   H41   S    
C41   C42   S    
C5    N6    T    
C54   O8    S    
C65   H76   S    
C67   O13   S    
C46   C47   S    
C22   N3    A    
C13   O4    S    
C12   O14   A    
C41   H20   S    
C58   H58   S    
C68   C69   S    
C47   H31   S    
C31   O20   S    
C69   H83   S    
C63   H70   S    
C37   H10   S    
C2    O9    S    
C60   H62   S    
C63   H72   S    
C15   O6    S    
C17   O8    S    
C60   H63   S    
C49   H37   S    
Cu2   O17   S    
C68   H81   S    
C48   H35   S    
C59   C60   S    
C10   C21   A    
C64   H74   S    
C27   C30   A    
C61   C62   S    
C39   H14   S    
C62   H68   S    
Cu1   N6    S    
C27   H1    S    
Cu2   N5    S    
C54   H51   S    
C44   C46   S    
C69   H84   S    
C48   O6    S    
C58   H59   S    
C25   C29   A    
C41   O4    S    
C41   H19   S    
C68   O13   S    
C30   C34   S    
C38   H11   S    
C51   C52   S    
C23   C56   T    
C19   C22   S    
C43   H26   S    
C4    C6    S    
C2    C67   A    
C36   H6    S    
C26   H34   S    
C39   C40   S    
C66   H80   S    
C64   O11   S    
C44   H28   S    
C61   H65   S    
Cu2   O15   S    
C1    O1    A    
C68   H82   S    
C58   C59   S    
C46   H30   S    
C11   C21   A    
C40   H18   S    
C42   H21   S    
C50   H40   S    
C24   N4    A    
C9    C14   A    
C62   C63   S    
C22   N2    A    
C11   C16   A    
C33   H2    S    
C31   C32   S    
C32   H78   S    
C55   H52   S    
C36   H7    S    
C47   H32   S    
C17   C18   A    
Cu2   O12   S    
C34   C45   T    
C44   O5    S    
C51   O7    S    
C31   H45   S    
C32   H67   S    
C12   C56   S    
C49   H38   S    
C9    C20   A    
C52   H46   S    
C16   O7    S    
C25   H23   S    
C48   C49   S    
C12   O12   A    
C55   H53   S    
C49   C50   S    
C47   H33   S    
C55   C57   S    
C64   H73   S    
C28   H12   S    
C18   C24   S    
C37   H8    S    
C35   H5    S    
C24   N1    A    
C25   C27   A    
C42   C43   S    
Cu1   O1    S    
C70   H87   S    
C52   C53   S    
Cu2   O19   S    
C57   H55   S    
Cu1   O16   S    
C54   H50   S    
C54   C55   S    
C28   C29   A    
C59   H60   S    
C13   C20   A    
C57   H57   S    
C3    C67   A    
C3    C5    S    
C8    C21   S    
C66   H79   S    
C44   H27   S    
C61   H66   S    
C26   C30   A    
C8    O17   A    
C14   O5    S    
C46   H29   S    
C35   H4    S    
C26   C28   A    
C51   H42   S    
C13   C17   A    
C38   H13   S    
C10   C15   A    
C50   H39   S    
C8    O18   A    
C64   C65   S    
N2    N4    A    
C3    C72   A    
C61   O10   S    
C66   H77   S    
C53   H47   S    
C32   C33   S    
Cu1   O14   S    
C1    C45   S    
C16   C19   A    
C10   O2    S    
C59   H61   S    
C51   H43   S    
C63   H71   S    
C33   H88   S    
C58   O9    S    
C70   H86   S    
C65   C66   S    
C40   H17   S    
C65   H75   S    
C69   C70   S    
C71   C72   A    
C53   H49   S    
C7    C20   S    
C35   O2    S    
C37   H9    S    
C40   H16   S    
C6    N5    T    
C39   H15   S    
C4    C71   A    
C60   H64   S    
C52   H44   S    
