data_mof_unit_13357.cif
_audit_creation_date              2012-12-10T19:04:15-0500
_audit_creation_method            fapswitch 2.2
_symmetry_space_group_name_H-M    P1
_symmetry_Int_Tables_number       1
_space_group_crystal_system       triclinic
_cell_length_a                    10.632532
_cell_length_b                    10.750282
_cell_length_c                    9.619556
_cell_angle_alpha                 89.912439
_cell_angle_beta                  89.544568
_cell_angle_gamma                 90.472659
_cell_volume                      1099.46784557

loop_
_atom_site_label
_atom_site_type_symbol
_atom_type_description
_atom_site_fract_x
_atom_site_fract_y
_atom_site_fract_z
_atom_type_partial_charge
C1    C     C_R   0.502681 0.262865 0.499973 0.772397
C2    C     C_3   0.962594 0.486474 0.371162 0.436070
C3    C     C_3   0.043616 0.390755 0.447230 -0.215319
C4    C     C_3   0.123205 0.500470 0.501453 -0.108739
C5    C     C_R   0.429256 0.064254 0.412189 0.081084
C6    C     C_R   0.511491 0.129570 0.497787 -0.187601
C7    C     C_R   0.604547 0.063703 0.572579 0.392767
C8    C     C_R   0.599946 0.933601 0.572717 -0.082372
C9    C     C_R   0.506116 0.870381 0.498733 -0.173970
C10   C     C_R   0.426424 0.936563 0.412886 0.138563
C11   C     C_3   0.286459 0.931369 0.402550 -0.445657
C12   C     C_R   0.259740 0.500377 0.500521 0.809387
C13   C     C_3   0.289527 0.072693 0.401272 -0.473431
C14   C     C_R   0.592045 0.561359 0.071847 0.127380
C15   C     C_R   0.415056 0.431423 0.075075 -0.012026
C16   C     C_R   0.414459 0.432151 0.926657 -0.045078
C17   C     C_R   0.594608 0.557327 0.925797 0.139615
C18   C     C_3   0.643456 0.688586 0.915080 0.109589
C19   C     C_3   0.634591 0.696281 0.075057 -0.243199
C20   C     C_R   0.500144 0.737182 0.499948 0.860730
C21   C     C_R   0.740309 0.498986 0.499472 0.855866
C22   C     C_3   0.039976 0.511867 0.632814 -0.181861
C23   C     C_3   0.957493 0.402870 0.577775 -0.280672
C24   C     C_3   0.877020 0.497650 0.498536 -0.018806
C25   C     C_3   0.959020 0.604139 0.551424 0.408743
C26   C     C_3   0.043965 0.596149 0.421559 -0.284756
Cu1   Cu    Cu3+1 0.499990 0.499980 0.640670 0.977351
Cu2   Cu    Cu3+1 0.500010 0.500020 0.359330 1.011745
H1    H     H_    0.920063 0.324334 0.641136 0.184940
H2    H     H_    0.240699 0.891202 0.497017 0.187174
H3    H     H_    0.260157 0.113302 0.300393 0.200396
H4    H     H_    0.245206 0.115019 0.494830 0.198425
H5    H     H_    0.344785 0.377356 0.130918 0.123361
H6    H     H_    0.343455 0.379027 0.872269 0.136411
H7    H     H_    0.739680 0.691407 0.869447 0.214662
H8    H     H_    0.073922 0.524430 0.740776 0.166260
H9    H     H_    0.080844 0.675106 0.358394 0.149346
H10   H     H_    0.081226 0.303401 0.402376 0.148452
H11   H     H_    0.669332 0.882160 0.630715 0.228563
H12   H     H_    0.254778 0.890576 0.302574 0.228970
N1    N     N_R   0.500800 0.500930 0.147930 -0.166894
N2    N     N_R   0.500800 0.500890 0.852020 -0.184378
O1    O     O_R   0.500000 0.319640 0.618810 -0.577912
O2    O     O_R   0.500010 0.319680 0.381230 -0.575733
O3    O     O_R   0.316850 0.499950 0.618770 -0.595146
O4    O     O_R   0.316860 0.499990 0.381190 -0.584742
O5    O     O_R   0.499990 0.680320 0.618770 -0.551524
O6    O     O_R   0.500000 0.680360 0.381190 -0.549215
O7    O     O_R   0.683140 0.500010 0.618810 -0.585925
O8    O     O_R   0.683150 0.500050 0.381230 -0.532571
O9    O     O_3   0.563433 0.772336 0.846938 -0.683389
H13   H     H_    0.474533 0.747848 0.865316 0.354576
C27   C     C_2   0.759572 0.713887 0.147439 0.911968
O10   O     O_2   0.761562 0.729793 0.273222 -0.563779
O11   O     O_R   0.872476 0.714834 0.071745 -0.765424
H14   H     H_    0.948620 0.728901 0.132690 0.338272
C28   C     C_2   0.537862 0.791833 0.119674 0.932549
O12   O     O_2   0.427048 0.762637 0.134368 -0.614129
O13   O     O_R   0.574619 0.916748 0.128437 -0.723514
H15   H     H_    0.500718 0.974597 0.141248 0.330049
O14   O     O_3   0.910435 0.714382 0.605957 -0.712175
H16   H     H_    0.984857 0.765775 0.630308 0.328051
O15   O     O_3   0.919234 0.471198 0.235425 -0.702259
H17   H     H_    0.995845 0.469728 0.176079 0.323249
O16   O     O_3   0.699294 0.120930 0.646907 -0.701301
H18   H     H_    0.705681 0.209463 0.619562 0.316536

loop_
_geom_bond_atom_site_label_1
_geom_bond_atom_site_label_2
_ccdc_geom_bond_type
C4    C26   S    
C23   C24   S    
C26   H9    S    
C6    C7    A    
C12   O3    A    
C8    H11   S    
Cu1   O1    S    
C4    C12   S    
C4    C22   S    
C18   H7    S    
C9    C20   S    
C5    C13   S    
Cu1   N2    S    
O11   H14   S    
C1    O2    A    
C19   C27   S    
C21   O7    A    
C17   C18   S    
C24   C25   S    
C5    C10   A    
C2    C26   S    
C25   O14   S    
C27   O10   D    
C19   C28   S    
C11   C13   S    
C14   C17   A    
Cu2   O4    S    
C28   O12   D    
C11   H12   S    
Cu2   O8    S    
C11   H2    S    
C14   N1    A    
C5    C6    A    
C15   C16   A    
C23   H1    S    
C9    C10   A    
C21   O8    A    
Cu2   O2    S    
C18   O9    S    
C2    C3    S    
C27   O11   S    
C2    C24   S    
O14   H16   S    
C28   O13   S    
C20   O5    A    
C7    O16   S    
Cu1   O3    S    
O15   H17   S    
Cu1   O7    S    
O9    H13   S    
C16   N2    A    
Cu2   N1    S    
O13   H15   S    
C22   H8    S    
C2    O15   S    
C15   N1    A    
C12   O4    A    
O16   H18   S    
C10   C11   S    
C21   C24   S    
Cu1   O5    S    
Cu1   Cu2   S    
C7    C8    A    
C13   H3    S    
C22   C23   S    
C18   C19   S    
C20   O6    A    
C16   H6    S    
C25   C26   S    
C17   N2    A    
C13   H4    S    
C3    C23   S    
C14   C19   S    
C1    O1    A    
Cu2   O6    S    
C3    C4    S    
C1    C6    S    
C3    H10   S    
C15   H5    S    
C8    C9    A    
C22   C25   S    
