data_mof_unit_61019.cif
_audit_creation_date              2012-12-10T19:45:01-0500
_audit_creation_method            fapswitch 2.2
_symmetry_space_group_name_H-M    P1
_symmetry_Int_Tables_number       1
_space_group_crystal_system       triclinic
_cell_length_a                    18.697471
_cell_length_b                    18.684999
_cell_length_c                    18.694189
_cell_angle_alpha                 109.402164
_cell_angle_beta                  109.337838
_cell_angle_gamma                 109.222233
_cell_volume                      5055.40583694

loop_
_atom_site_label
_atom_site_type_symbol
_atom_type_description
_atom_site_fract_x
_atom_site_fract_y
_atom_site_fract_z
_atom_type_partial_charge
C1    C     C_R   0.120466 0.000123 0.619891 0.896400
C2    C     C_R   0.961492 0.975341 0.168482 -0.170973
C3    C     C_R   0.243982 0.244918 0.421659 -0.239875
C4    C     C_R   0.313914 0.315408 0.501911 -0.094382
C5    C     C_R   0.318925 0.323066 0.581082 0.017315
C6    C     C_R   0.253886 0.257553 0.578340 -0.225822
C7    C     C_R   0.184761 0.186104 0.498051 -0.082266
C8    C     C_R   0.178755 0.179647 0.418888 0.018848
C9    C     C_R   0.460146 0.396714 0.719856 0.146917
C10   C     C_R   0.526142 0.470666 0.801006 -0.180844
C11   C     C_R   0.521354 0.547218 0.829503 -0.178724
C12   C     C_R   0.119199 0.120060 0.498852 0.888401
C13   C     C_R   0.450583 0.550840 0.777885 -0.098979
C14   C     C_R   0.384232 0.478255 0.696810 0.079887
C15   C     C_R   0.388901 0.400554 0.666970 0.065182
C16   C     C_R   0.190124 0.925261 0.673032 0.109762
C17   C     C_R   0.189749 0.002510 0.684441 -0.102535
C18   C     C_R   0.258310 0.082297 0.757462 -0.270108
C19   C     C_R   0.322482 0.083245 0.823354 0.078963
C20   C     C_R   0.315514 0.003284 0.815691 -0.091961
C21   C     C_R   0.251222 0.925401 0.738922 0.033184
C22   C     C_3   0.185175 0.841540 0.723594 -0.072394
C23   C     C_R   0.881447 0.001878 0.380029 0.919113
C24   C     C_3   0.118240 0.841057 0.649491 -0.547262
C25   C     C_R   0.764551 0.729917 0.434340 0.039231
C26   C     C_R   0.815333 0.815131 0.502656 -0.160111
C27   C     C_R   0.800426 0.836862 0.574257 -0.185064
C28   C     C_R   0.735514 0.773147 0.575132 0.069325
C29   C     C_R   0.684572 0.687671 0.502767 -0.125597
C30   C     C_R   0.700799 0.669355 0.433979 0.032447
C31   C     C_3   0.672559 0.598376 0.346905 -0.105484
C32   C     C_3   0.745808 0.668003 0.346369 -0.114303
C33   C     C_R   0.743664 0.924077 0.245072 -0.026709
C34   C     C_R   0.880153 0.879990 0.500537 0.895354
C35   C     C_R   0.815081 0.003069 0.315412 -0.110227
C36   C     C_R   0.817020 0.082360 0.326815 0.092594
C37   C     C_R   0.751118 0.080872 0.262235 -0.277567
C38   C     C_R   0.684208 0.001223 0.188232 -0.115540
C39   C     C_R   0.678133 0.923155 0.182374 0.041514
C40   C     C_3   0.668324 0.848421 0.109177 -0.114557
C41   C     C_3   0.741194 0.849484 0.178642 -0.062238
C42   C     C_R   0.500648 0.620995 0.620272 0.873237
C43   C     C_R   0.379995 0.380668 0.500983 0.874760
C44   C     C_R   0.500928 0.380560 0.380143 0.899254
C45   C     C_R   0.032711 0.964493 0.207288 0.125881
C46   C     C_R   0.619548 0.620257 0.500465 0.900594
C47   C     C_R   0.499617 0.119997 0.119945 0.879565
C48   C     C_R   0.380127 0.001638 0.881348 0.909978
C49   C     C_R   0.499669 0.880051 0.879792 0.871064
C50   C     C_R   0.619766 0.999556 0.119799 0.885796
C51   C     C_R   0.422701 0.686384 0.674678 0.086658
C52   C     C_R   0.500171 0.685727 0.687339 -0.115005
C53   C     C_R   0.576129 0.743277 0.769162 -0.207121
C54   C     C_R   0.576367 0.807994 0.833333 -0.233539
C55   C     C_R   0.500257 0.813486 0.815727 -0.070764
C56   C     C_R   0.103814 0.031786 0.289097 -0.111564
C57   C     C_R   0.422682 0.749459 0.738954 0.083082
C58   C     C_3   0.359866 0.760458 0.675350 -0.511620
C59   C     C_3   0.360261 0.691380 0.604018 -0.070371
C60   C     C_R   0.423173 0.238381 0.249385 0.100756
C61   C     C_R   0.501282 0.313422 0.315867 -0.084648
C62   C     C_R   0.580808 0.318892 0.325211 -0.204303
C63   C     C_R   0.580794 0.254833 0.260491 -0.227831
C64   C     C_R   0.501186 0.184510 0.188639 -0.084725
C65   C     C_R   0.423218 0.173852 0.186865 0.147178
C66   C     C_3   0.342144 0.156597 0.115628 -0.501969
C67   C     C_R   0.103292 0.108563 0.332978 0.053435
C68   C     C_3   0.342290 0.228171 0.184762 -0.469689
C69   C     C_R   0.031759 0.118659 0.294185 -0.201106
C70   C     C_R   0.960725 0.052238 0.211445 0.143288
H1    H     H_    0.572461 0.603831 0.892055 0.159763
H2    H     H_    0.260691 0.143130 0.764438 0.159713
H3    H     H_    0.095778 0.788043 0.584036 0.197072
H4    H     H_    0.065136 0.848291 0.659761 0.192257
H5    H     H_    0.605416 0.575552 0.296984 0.153568
H6    H     H_    0.720711 0.685186 0.295464 0.138295
H7    H     H_    0.753698 0.141594 0.268477 0.152635
H8    H     H_    0.686630 0.866212 0.064099 0.121371
H9    H     H_    0.159273 0.024077 0.318787 0.139800
H10   H     H_    0.801666 0.867933 0.173721 0.145970
H11   H     H_    0.635911 0.740762 0.781950 0.164272
H12   H     H_    0.635755 0.854575 0.895309 0.147619
H13   H     H_    0.296931 0.739638 0.675288 0.199648
H14   H     H_    0.389332 0.826124 0.681751 0.184550
H15   H     H_    0.388313 0.715768 0.567417 0.174241
H16   H     H_    0.642152 0.261048 0.265346 0.153391
H17   H     H_    0.353479 0.173127 0.067004 0.199626
H18   H     H_    0.031998 0.178470 0.327977 0.129940
H19   H     H_    0.353876 0.286433 0.176389 0.216009
H20   H     H_    0.240430 0.240711 0.361143 0.155564
H21   H     H_    0.257046 0.262306 0.638875 0.154985
H22   H     H_    0.581445 0.469104 0.842302 0.131703
O1    O     O_R   0.091630 0.948280 0.539910 -0.619286
O2    O     O_R   0.551690 0.591610 0.643360 -0.620236
O3    O     O_R   0.356650 0.408410 0.448330 -0.631419
O4    O     O_R   0.460080 0.408380 0.551740 -0.620722
O5    O     O_R   0.448280 0.408420 0.356720 -0.623861
O6    O     O_R   0.551710 0.408390 0.460130 -0.624283
O7    O     O_R   0.539890 0.591650 0.448340 -0.623629
O8    O     O_R   0.643320 0.591620 0.551750 -0.631202
O9    O     O_R   0.551740 0.143400 0.091610 -0.621519
O10   O     O_R   0.448290 0.040010 0.091660 -0.620051
O11   O     O_R   0.460120 0.051750 0.908410 -0.608380
O12   O     O_R   0.091590 0.051710 0.643320 -0.628714
O13   O     O_R   0.356670 0.948360 0.908460 -0.607593
O14   O     O_R   0.551710 0.960090 0.908440 -0.620130
O15   O     O_R   0.448260 0.856700 0.908490 -0.628927
O16   O     O_R   0.643330 0.051740 0.091640 -0.627788
O17   O     O_R   0.539880 0.948350 0.091690 -0.623117
O18   O     O_R   0.091640 0.039900 0.448300 -0.620912
O19   O     O_R   0.091600 0.143340 0.551710 -0.625918
O20   O     O_R   0.908410 0.948290 0.356680 -0.642989
O21   O     O_R   0.908370 0.051720 0.460090 -0.598024
O22   O     O_R   0.908400 0.856660 0.448290 -0.637876
O23   O     O_R   0.908360 0.960100 0.551700 -0.627395
O24   O     O_R   0.448260 0.591640 0.539950 -0.639116
Zn1   Zn    Zn3+2 0.000030 0.930940 0.430950 0.923498
Zn2   Zn    Zn3+2 0.999970 0.069060 0.569050 0.955964
Zn3   Zn    Zn3+2 0.430920 0.500040 0.430990 0.933630
Zn4   Zn    Zn3+2 0.569050 0.499990 0.569090 0.944135
Zn5   Zn    Zn3+2 0.569070 0.069080 0.000020 0.958232
Zn6   Zn    Zn3+2 0.430930 0.931020 0.000080 0.956971
H23   H     H_    0.906602 0.924226 0.104761 0.124253
H24   H     H_    0.447229 0.610369 0.801108 0.155975
N1    N     N_3   0.312138 0.484428 0.646457 -0.484976
H25   H     H_    0.254819 0.435284 0.634131 0.193181
H26   H     H_    0.309333 0.473529 0.586807 0.178980
N2    N     N_3   0.390982 0.164394 0.899934 -0.447327
H27   H     H_    0.424682 0.203594 0.880398 0.194347
H28   H     H_    0.362551 0.195468 0.928667 0.173752
H29   H     H_    0.199060 0.787155 0.702046 0.157036
N3    N     N_3   0.167683 0.852361 0.796262 -0.415400
H30   H     H_    0.153499 0.903252 0.813154 0.202300
H31   H     H_    0.112050 0.795116 0.774801 0.185937
H32   H     H_    0.839019 0.902577 0.629410 0.178124
N4    N     N_3   0.034461 0.886201 0.164066 -0.465078
H33   H     H_    0.978016 0.843316 0.103156 0.175783
H34   H     H_    0.033282 0.855191 0.201381 0.175403
N5    N     N_3   0.721671 0.796883 0.648556 -0.459725
H35   H     H_    0.656719 0.782279 0.626055 0.177678
H36   H     H_    0.731936 0.758821 0.676747 0.195643
N6    N     N_3   0.685966 0.526899 0.352235 -0.452193
H37   H     H_    0.685179 0.490887 0.295314 0.214787
H38   H     H_    0.746570 0.550979 0.405328 0.201972
N7    N     N_3   0.817222 0.650367 0.348750 -0.445221
H39   H     H_    0.855599 0.693196 0.335349 0.203144
H40   H     H_    0.857609 0.663982 0.411370 0.196947
N8    N     N_3   0.888397 0.164199 0.400341 -0.440916
H41   H     H_    0.863111 0.196633 0.432786 0.190580
H42   H     H_    0.917967 0.201702 0.377051 0.164737
N9    N     N_3   0.583051 0.769727 0.063117 -0.420358
H43   H     H_    0.539825 0.775207 0.015548 0.192252
H44   H     H_    0.558643 0.766612 0.105591 0.203243
N10   N     N_3   0.714127 0.771434 0.187831 -0.425586
H45   H     H_    0.769854 0.777678 0.233490 0.190284
H46   H     H_    0.672176 0.768516 0.213799 0.188957
N11   N     N_3   0.275759 0.611057 0.547075 -0.445561
H47   H     H_    0.284168 0.563789 0.507171 0.203714
H48   H     H_    0.254995 0.587637 0.584298 0.206498
H49   H     H_    0.642291 0.374512 0.379737 0.162428
H50   H     H_    0.286669 0.090699 0.087443 0.211729
H51   H     H_    0.286813 0.203613 0.196388 0.201841
N12   N     N_3   0.888468 0.062660 0.169074 -0.457671
H52   H     H_    0.896744 0.122490 0.209587 0.186021
H53   H     H_    0.832830 0.014166 0.159865 0.181582
N13   N     N_3   0.464735 0.317657 0.690774 -0.463143
H54   H     H_    0.518881 0.324260 0.739051 0.170493
H55   H     H_    0.474681 0.308274 0.637300 0.201028

loop_
_geom_bond_atom_site_label_1
_geom_bond_atom_site_label_2
_ccdc_geom_bond_type
C66   C68   S    
C46   O7    A    
C16   C21   A    
C47   O9    A    
C22   H29   S    
N5    H36   S    
C35   C36   A    
O16   Zn5   S    
C70   N12   S    
C41   H10   S    
C12   O18   A    
N7    H39   S    
C7    C8    A    
N13   H55   S    
C53   C54   A    
C23   O20   A    
C26   C27   A    
C37   C38   A    
C56   H9    S    
C3    H20   S    
C5    C6    A    
C28   C29   A    
N12   H53   S    
N8    H42   S    
C34   O23   A    
O20   Zn1   S    
C11   H1    S    
O17   Zn6   S    
C6    H21   S    
C19   N2    S    
C11   C13   A    
C53   H11   S    
C18   C19   A    
C48   O13   A    
C44   O6    A    
C26   C34   S    
N11   H47   S    
N12   H52   S    
C45   C56   A    
C16   C17   A    
C36   C37   A    
C43   O3    A    
N9    H43   S    
C51   C57   A    
C49   O15   A    
C9    C10   A    
N10   H46   S    
C25   C32   S    
C10   H22   S    
N11   H48   S    
C47   O10   A    
C21   C22   S    
N2    H27   S    
C62   H49   S    
C50   O16   A    
N13   H54   S    
C61   C62   A    
C28   N5    S    
O1    Zn1   S    
O18   Zn1   S    
N7    H40   S    
C36   N8    S    
C43   O4    A    
C6    C7    A    
O12   Zn2   S    
C2    C45   A    
C18   H2    S    
C7    C12   S    
N6    H37   S    
C51   C52   A    
N8    H41   S    
N4    H34   S    
C3    C8    A    
C47   C64   S    
C13   H24   S    
N3    H30   S    
C32   N7    S    
O3    Zn3   S    
C58   C59   S    
C49   C55   S    
C48   O11   A    
C37   H7    S    
C50   O17   A    
O9    Zn5   S    
O21   Zn2   S    
C66   H50   S    
C60   C61   A    
C67   C69   A    
O5    Zn3   S    
C59   H15   S    
C29   C30   A    
C58   H14   S    
C23   O21   A    
C44   O5    A    
C31   H5    S    
C31   C32   S    
C30   C31   S    
O23   Zn2   S    
C62   C63   A    
C17   C18   A    
C33   C39   A    
C14   N1    S    
C1    O12   A    
C60   C68   S    
N10   H45   S    
C20   C48   S    
C69   H18   S    
N3    H31   S    
O8    Zn4   S    
C1    O1    A    
C40   C41   S    
C60   C65   A    
C23   C35   S    
O19   Zn2   S    
C63   H16   S    
N1    H25   S    
C22   C24   S    
C51   C59   S    
C3    C4    A    
O11   Zn5   S    
C54   H12   S    
N6    H38   S    
C52   C53   A    
C41   N10   S    
C42   O24   A    
C25   C30   A    
C46   O8    A    
C54   C55   A    
C9    N13   S    
C45   N4    S    
C22   N3    S    
C42   O2    A    
O4    Zn4   S    
N4    H33   S    
N2    H28   S    
C32   H6    S    
N5    H35   S    
O6    Zn4   S    
C49   O14   A    
C38   C50   S    
C4    C43   S    
C68   H51   S    
C44   C61   S    
C34   O22   A    
C56   C67   A    
C1    C17   S    
O24   Zn3   S    
C29   C46   S    
C27   H32   S    
C64   C65   A    
C19   C20   A    
C55   C57   A    
C25   C26   A    
C33   C41   S    
O10   Zn6   S    
C58   H13   S    
C59   N11   S    
C24   H4    S    
C57   C58   S    
C38   C39   A    
C2    C70   A    
C66   H17   S    
O14   Zn5   S    
C33   C35   A    
O13   Zn6   S    
C40   H8    S    
N9    H44   S    
C31   N6    S    
C9    C15   A    
C69   C70   A    
C24   H3    S    
C5    C15   S    
O22   Zn1   S    
C10   C11   A    
O7    Zn3   S    
C63   C64   A    
C39   C40   S    
C4    C5    A    
C20   C21   A    
C40   N9    S    
C8    C67   S    
C16   C24   S    
C65   C66   S    
O2    Zn4   S    
C27   C28   A    
N1    H26   S    
C14   C15   A    
O15   Zn6   S    
C68   H19   S    
C13   C14   A    
C12   O19   A    
C2    H23   S    
C42   C52   S    
