data_mof_unit_57264.cif
_audit_creation_date              2012-12-11T15:29:23-0500
_audit_creation_method            fapswitch 2.2
_symmetry_space_group_name_H-M    P1
_symmetry_Int_Tables_number       1
_space_group_crystal_system       triclinic
_cell_length_a                    13.489213
_cell_length_b                    13.49107
_cell_length_c                    27.585835
_cell_angle_alpha                 90.540718
_cell_angle_beta                  89.960395
_cell_angle_gamma                 60.05096
_cell_volume                      4349.55448314

loop_
_atom_site_label
_atom_site_type_symbol
_atom_type_description
_atom_site_fract_x
_atom_site_fract_y
_atom_site_fract_z
_atom_type_partial_charge
C1    C     C_R   0.620275 0.101197 0.569905 0.545357
C2    C     C_1   0.631030 0.731877 0.615943 -0.015309
C3    C     C_3   0.698263 0.561088 0.766961 -0.102257
C4    C     C_3   0.679664 0.654300 0.804344 0.052713
C5    C     C_3   0.589344 0.649451 0.740146 -0.100760
C6    C     C_3   0.663451 0.683104 0.709956 0.050352
C7    C     C_3   0.570959 0.742202 0.778253 -0.098699
C8    C     C_3   0.644869 0.776330 0.747329 -0.100853
C9    C     C_1   0.688578 0.633394 0.856537 -0.053374
C10   C     C_1   0.649427 0.704589 0.657828 -0.058286
C11   C     C_3   0.092842 0.129313 0.737226 -0.125603
C12   C     C_R   0.599655 0.779333 0.568476 0.543979
C13   C     C_3   0.185791 0.058009 0.775264 -0.150354
C14   C     C_1   0.097552 0.200051 0.900274 0.000670
C15   C     C_1   0.229399 0.137763 0.617009 -0.011636
C16   C     C_3   0.053785 0.238805 0.768635 -0.153740
C17   C     C_3   0.147013 0.167293 0.805892 0.058479
C18   C     C_3   0.139997 0.263602 0.741763 -0.076397
C19   C     C_3   0.178811 0.154184 0.711205 0.003630
C20   C     C_3   0.231775 0.191610 0.779316 0.416268
C21   C     C_3   0.272387 0.082433 0.748309 -0.082969
C22   C     C_1   0.125023 0.180744 0.858193 -0.012253
C23   C     C_R   0.277651 0.121689 0.569351 0.542223
C24   C     C_1   0.201378 0.146614 0.658994 -0.053123
C25   C     C_3   0.627435 0.277218 0.738971 -0.114187
C26   C     C_3   0.554878 0.256718 0.776951 -0.068626
C27   C     C_1   0.691889 0.206664 0.901313 -0.006940
C28   C     C_1   0.635512 0.133330 0.617822 -0.014778
C29   C     C_3   0.736025 0.205997 0.769736 -0.109281
C30   C     C_3   0.663304 0.185234 0.806885 0.051287
C31   C     C_3   0.759528 0.095672 0.742281 -0.105346
C32   C     C_3   0.651188 0.167043 0.712286 0.039692
C33   C     C_3   0.687052 0.075127 0.780146 -0.099282
C34   C     C_R   0.622022 0.100302 0.431571 0.542722
C35   C     C_3   0.578448 0.146275 0.749412 -0.072676
C36   C     C_1   0.674987 0.195767 0.859219 -0.042433
C37   C     C_1   0.643987 0.152227 0.659951 -0.057191
C38   C     C_R   0.641238 0.720585 0.383431 0.028275
C39   C     C_R   0.723238 0.735236 0.358074 -0.126305
C40   C     C_R   0.736842 0.715194 0.308646 -0.122895
C41   C     C_R   0.671287 0.676838 0.284114 0.039016
C42   C     C_R   0.598174 0.650518 0.310279 -0.123981
C43   C     C_R   0.582670 0.672984 0.359803 -0.124325
C44   C     C_R   0.577826 0.698244 0.204242 -0.121716
C45   C     C_R   0.602166 0.776531 0.430566 0.545427
C46   C     C_R   0.585824 0.677589 0.154586 -0.130298
C47   C     C_R   0.789948 0.608262 0.157825 -0.126477
C48   C     C_R   0.782374 0.626423 0.207435 -0.123802
C49   C     C_R   0.677054 0.667588 0.231216 0.036716
C50   C     C_R   0.692924 0.627562 0.131561 0.023316
C51   C     C_R   0.217307 0.141434 0.384747 0.025103
C52   C     C_R   0.216050 0.051101 0.358401 0.141890
C53   C     C_R   0.192758 0.065338 0.308668 -0.088586
C54   C     C_R   0.164113 0.168733 0.286057 0.006547
C55   C     C_R   0.152766 0.261205 0.313702 -0.134065
C56   C     C_R   0.277533 0.120578 0.431261 0.546648
C57   C     C_R   0.179757 0.247508 0.362513 -0.156225
C58   C     C_R   0.180808 0.243084 0.205655 -0.117555
C59   C     C_R   0.155347 0.259179 0.156445 -0.130814
C60   C     C_R   0.066745 0.141175 0.162072 -0.125290
C61   C     C_R   0.088952 0.128066 0.211161 -0.124940
C62   C     C_R   0.144876 0.179916 0.233566 0.036156
C63   C     C_R   0.096289 0.209871 0.134648 0.024296
C64   C     C_R   0.641603 0.139960 0.385242 0.023343
C65   C     C_R   0.549307 0.232166 0.362102 -0.126123
C66   C     C_R   0.557254 0.252782 0.313491 -0.122262
C67   C     C_3   0.772248 0.595135 0.735987 -0.100694
C68   C     C_R   0.658221 0.182821 0.287509 0.037427
C69   C     C_R   0.753960 0.097313 0.311728 -0.121037
C70   C     C_R   0.745566 0.075589 0.360299 -0.129746
C71   C     C_R   0.718494 0.098291 0.204801 -0.121315
C72   C     C_R   0.729800 0.110189 0.155450 -0.129870
C73   C     C_R   0.619207 0.316654 0.164932 -0.127442
C74   C     C_R   0.609510 0.304793 0.214374 -0.123264
C75   C     C_R   0.661917 0.195594 0.234869 0.034737
C76   C     C_R   0.683218 0.219504 0.135525 0.023382
C77   C     C_R   0.049956 0.234793 0.947988 0.545921
C78   C     C_3   0.753897 0.687927 0.774227 -0.098229
C79   C     C_R   0.712076 0.561758 0.946383 0.545769
C80   C     C_R   0.722705 0.224096 0.949067 0.546624
C81   C     C_R   0.046924 0.244069 0.086513 0.542069
C82   C     C_R   0.709308 0.572023 0.084368 0.540302
C83   C     C_R   0.719922 0.233501 0.087557 0.540618
C84   C     C_1   0.697586 0.607213 0.898573 -0.011628
Cr1   Cr    Cr6+3 0.417550 0.169090 0.500530 1.019842
Cr2   Cr    Cr6+3 0.669180 0.913420 0.499920 1.019017
Cr3   Cr    Cr6+3 0.413260 0.917540 0.499520 1.029656
Cr4   Cr    Cr6+3 0.909770 0.175810 0.018240 1.021873
Cr5   Cr    Cr6+3 0.913300 0.427650 0.016090 1.027946
Cr6   Cr    Cr6+3 0.657770 0.431010 0.016900 1.026523
H1    H     H_    0.821168 0.704183 0.788870 0.109629
H2    H     H_    0.121692 0.347946 0.727781 0.114486
H3    H     H_    0.963625 0.303088 0.777496 0.105540
H4    H     H_    0.470664 0.322578 0.791790 0.155670
H5    H     H_    0.603432 0.360049 0.721586 0.106450
H6    H     H_    0.513419 0.121548 0.740408 0.143690
H7    H     H_    0.711112 0.992238 0.797492 0.110041
H8    H     H_    0.843822 0.029805 0.727500 0.107556
H9    H     H_    0.801223 0.230538 0.778672 0.101496
H10   H     H_    0.769994 0.771666 0.375416 0.132436
H11   H     H_    0.854713 0.534473 0.718124 0.105706
H12   H     H_    0.494902 0.734235 0.221762 0.100927
H13   H     H_    0.509779 0.694105 0.134839 0.125580
H14   H     H_    0.793660 0.736334 0.289355 0.098474
H15   H     H_    0.860206 0.601956 0.227391 0.101261
H16   H     H_    0.873844 0.569453 0.140985 0.135556
H17   H     H_    0.549900 0.616750 0.292187 0.095505
H18   H     H_    0.520354 0.659467 0.378940 0.122026
H19   H     H_    0.226461 0.281772 0.222027 0.105300
H20   H     H_    0.178419 0.312756 0.135882 0.123851
H21   H     H_    0.622838 0.865212 0.738626 0.103759
H22   H     H_    0.199105 0.995300 0.287004 0.100363
H23   H     H_    0.057907 0.081108 0.231806 0.099604
H24   H     H_    0.019140 0.103697 0.146459 0.139286
H25   H     H_    0.126083 0.343326 0.297311 0.108522
H26   H     H_    0.177001 0.318656 0.382246 0.132481
H27   H     H_    0.468011 0.283549 0.380465 0.129273
H28   H     H_    0.756417 0.013064 0.219632 0.104915
H29   H     H_    0.779269 0.034250 0.133288 0.124249
H30   H     H_    0.482225 0.319220 0.295669 0.098360
H31   H     H_    0.565752 0.381136 0.236815 0.100736
H32   H     H_    0.488432 0.802865 0.796077 0.110575
H33   H     H_    0.583866 0.402062 0.150495 0.134485
H34   H     H_    0.834014 0.044691 0.292674 0.098472
H35   H     H_    0.818298 0.004792 0.377487 0.122827
H36   H     H_    0.522027 0.633166 0.725572 0.106736
H37   H     H_    0.720208 0.472230 0.775657 0.099318
H38   H     H_    0.204660 0.973718 0.789519 0.113006
H39   H     H_    0.035022 0.104034 0.719283 0.118494
H40   H     H_    0.362835 0.018727 0.739614 0.104010
O1    O     O_R   0.301780 0.195490 0.553940 -0.507027
O2    O     O_R   0.658840 0.818280 0.449970 -0.509004
O3    O     O_R   0.503160 0.801780 0.445740 -0.502859
O4    O     O_R   0.319320 0.022190 0.450230 -0.477258
O5    O     O_3   0.499990 0.000010 0.499990 -0.244926
O6    O     O_R   0.819250 0.149410 0.965240 -0.507400
O7    O     O_R   0.006940 0.180310 0.968270 -0.497637
O8    O     O_R   0.028420 0.332670 0.963010 -0.498352
O9    O     O_R   0.810130 0.520390 0.966030 -0.493811
O10   O     O_R   0.636050 0.541380 0.962520 -0.505532
O11   O     O_R   0.666480 0.323610 0.968170 -0.491733
O12   O     O_R   0.522450 0.158840 0.550250 -0.493723
O13   O     O_R   0.817280 0.156800 0.072180 -0.521992
O14   O     O_R   0.005110 0.187160 0.067410 -0.506267
O15   O     O_R   0.026450 0.340060 0.069950 -0.519136
O16   O     O_R   0.808300 0.527240 0.065170 -0.506003
O17   O     O_R   0.634070 0.548770 0.069460 -0.521700
O18   O     O_R   0.664650 0.330470 0.067300 -0.502824
O19   O     O_3   0.826940 0.344820 0.017080 -0.247880
O20   O     O_R   0.694460 0.003360 0.553820 -0.507616
O21   O     O_R   0.657750 0.819520 0.549120 -0.494905
O22   O     O_R   0.501990 0.803120 0.552700 -0.509311
O23   O     O_R   0.318230 0.023430 0.549370 -0.498491
O24   O     O_R   0.302950 0.194150 0.446980 -0.527903
O25   O     O_R   0.523540 0.157600 0.451100 -0.504326
O26   O     O_R   0.695630 0.002030 0.446860 -0.522588
F1    F     F_    0.303621 0.223386 0.801598 -0.651665
N1    N     N_2   0.239537 0.947688 0.382206 -0.480538
H41   H     H_    0.189768 0.960265 0.412574 0.250753
C85   C     C_3   0.265132 0.846272 0.354195 -0.310922
H42   H     H_    0.294453 0.772460 0.378901 0.138590
H43   H     H_    0.334943 0.826104 0.327710 0.153763
H44   H     H_    0.187254 0.858495 0.335226 0.118999

loop_
_geom_bond_atom_site_label_1
_geom_bond_atom_site_label_2
_ccdc_geom_bond_type
C44   C49   A    
C58   C62   A    
C66   C68   A    
C26   H4    S    
C58   H19   S    
C41   C42   A    
C12   O22   A    
C79   O9    A    
Cr3   O4    S    
C72   C76   A    
C2    C12   S    
C17   C20   S    
C82   O17   A    
C7    C8    S    
C35   H6    S    
C68   C75   S    
Cr5   O15   S    
C11   C19   S    
C16   H3    S    
Cr6   O17   S    
C63   C81   S    
C60   C63   A    
C19   C21   S    
C77   O7    A    
C18   C19   S    
Cr2   O20   S    
Cr1   O25   S    
C79   C84   S    
C3    H37   S    
C31   H8    S    
C59   H20   S    
C51   C56   S    
C73   C74   A    
C14   C77   S    
Cr2   O26   S    
C38   C45   S    
Cr6   O18   S    
C1    O12   A    
C13   H38   S    
C60   H24   S    
Cr3   O3    S    
N1    C85   S    
C81   O14   A    
C48   H15   S    
C16   C17   S    
Cr5   O9    S    
C5    H36   S    
C1    C28   S    
Cr3   O23   S    
C51   C57   A    
C64   C70   A    
C47   C50   A    
C42   H17   S    
Cr4   O13   S    
C18   C20   S    
C30   C33   S    
Cr1   O24   S    
C25   C32   S    
C15   C23   S    
C79   O10   A    
C66   H30   S    
C8    C78   S    
C12   O21   A    
C61   C62   A    
C67   C78   S    
Cr6   O19   S    
C11   H39   S    
C76   C83   S    
C41   C49   S    
C82   O16   A    
C44   C46   A    
C57   H26   S    
C25   C29   S    
Cr5   O16   S    
Cr4   O7    S    
C71   C75   A    
C74   C75   A    
C29   H9    S    
C13   C21   S    
C51   C52   A    
Cr5   O8    S    
C32   C35   S    
Cr3   O5    S    
C38   C39   A    
C77   O8    A    
Cr4   O6    S    
C52   N1    S    
C56   O24   A    
C27   C80   S    
C8    H21   S    
C80   O11   A    
C39   C40   A    
C5    C7    S    
C44   H12   S    
C68   C69   A    
C6    C8    S    
C54   C62   S    
C69   H34   S    
C4    C7    S    
C58   C59   A    
C34   O25   A    
Cr4   O19   S    
C83   O18   A    
C60   C61   A    
C85   H43   S    
C85   H44   S    
C4    C78   S    
C29   C30   S    
C40   H14   S    
C11   C16   S    
C26   C35   S    
Cr6   O10   S    
C47   C48   A    
C47   H16   S    
C34   C64   S    
C23   O1    A    
C1    O20   A    
C32   C37   S    
Cr1   O5    S    
C53   H22   S    
C15   C24   T    
C25   H5    S    
C81   O15   A    
C20   F1    S    
C23   O23   A    
C61   H23   S    
N1    H41   S    
C27   C36   T    
C73   C76   A    
C42   C43   A    
C7    H32   S    
C3    C4    S    
C2    C10   T    
C52   C53   A    
C67   H11   S    
C54   C55   A    
C6    C67   S    
C31   C33   S    
C71   H28   S    
C59   C63   A    
C31   C32   S    
C3    C67   S    
C3    C5    S    
Cr1   O12   S    
C6    C10   S    
C56   O4    A    
C53   C54   A    
C34   O26   A    
C78   H1    S    
C46   H13   S    
C46   C50   A    
C45   O3    A    
C17   C22   S    
C80   O6    A    
C30   C36   S    
Cr3   O22   S    
C18   H2    S    
C50   C82   S    
C14   C22   T    
C55   C57   A    
C19   C24   S    
C25   C26   S    
C38   C43   A    
C29   C31   S    
Cr2   O21   S    
C64   C65   A    
C83   O13   A    
C11   C13   S    
Cr2   O2    S    
C39   H10   S    
C5    C6    S    
C55   H25   S    
C28   C37   T    
C48   C49   A    
C72   H29   S    
Cr5   O19   S    
C33   C35   S    
C33   H7    S    
C43   H18   S    
C70   H35   S    
C69   C70   A    
C85   H42   S    
C21   H40   S    
Cr6   O11   S    
C9    C84   T    
C13   C17   S    
Cr2   O5    S    
C71   C72   A    
C74   H31   S    
C20   C21   S    
C45   O2    A    
C16   C18   S    
C65   C66   A    
C65   H27   S    
C40   C41   A    
C4    C9    S    
Cr4   O14   S    
Cr1   O1    S    
C26   C30   S    
C73   H33   S    
