data_mof_unit_65521.cif
_audit_creation_date              2012-12-10T17:22:35-0500
_audit_creation_method            fapswitch 2.2
_symmetry_space_group_name_H-M    P1
_symmetry_Int_Tables_number       1
_space_group_crystal_system       triclinic
_cell_length_a                    21.729938
_cell_length_b                    21.729934
_cell_length_c                    30.374272
_cell_angle_alpha                 90.000063
_cell_angle_beta                  90.000059
_cell_angle_gamma                 90.089822
_cell_volume                      14342.4134726

loop_
_atom_site_label
_atom_site_type_symbol
_atom_type_description
_atom_site_fract_x
_atom_site_fract_y
_atom_site_fract_z
_atom_type_partial_charge
C1    C     C_R   0.118787 0.500038 0.499988 0.808551
C2    C     C_R   0.499961 0.881213 0.500012 0.808552
C3    C     C_R   0.881213 0.499962 0.499988 0.808551
C4    C     C_R   0.500038 0.118787 0.500012 0.808551
C5    C     C_R   0.618787 0.000038 0.999988 0.808550
C6    C     C_R   0.999961 0.381213 0.000012 0.808551
C7    C     C_R   0.381213 0.999962 0.999988 0.808550
C8    C     C_R   0.000038 0.618787 0.000012 0.808550
C9    C     C_R   0.500012 0.380990 0.500000 0.808106
C10   C     C_R   0.380990 0.500012 0.500000 0.808106
C11   C     C_R   0.499988 0.619010 0.500000 0.808106
C12   C     C_R   0.619010 0.499988 0.500000 0.808106
C13   C     C_R   0.000012 0.880990 0.000000 0.808106
C14   C     C_R   0.880990 0.000012 1.000000 0.808106
C15   C     C_R   0.999988 0.119010 0.000000 0.808106
C16   C     C_R   0.119009 0.999988 1.000000 0.808106
C17   C     C_R   0.313851 0.500040 0.499993 -0.040196
C18   C     C_R   0.499960 0.686149 0.500007 -0.040196
C19   C     C_R   0.686149 0.499960 0.499993 -0.040195
C20   C     C_R   0.500040 0.313851 0.500007 -0.040195
C21   C     C_R   0.813851 0.000040 0.999993 -0.040196
C22   C     C_R   0.999960 0.186149 0.000007 -0.040196
C23   C     C_R   0.186149 0.999960 0.999993 -0.040196
C24   C     C_R   0.000040 0.813851 0.000006 -0.040195
C25   C     C_R   0.281473 0.543756 0.525702 0.130924
C26   C     C_R   0.543641 0.718672 0.525735 0.133000
C27   C     C_R   0.718527 0.456244 0.525702 0.130924
C28   C     C_R   0.456359 0.281328 0.525735 0.133000
C29   C     C_R   0.281328 0.456359 0.474264 0.133001
C30   C     C_R   0.543756 0.281473 0.474298 0.130924
C31   C     C_R   0.718671 0.543641 0.474265 0.133000
C32   C     C_R   0.456244 0.718526 0.474298 0.130924
C33   C     C_R   0.781473 0.043756 0.025702 0.130924
C34   C     C_R   0.043641 0.218672 0.025735 0.133000
C35   C     C_R   0.218527 0.956244 0.025702 0.130924
C36   C     C_R   0.956359 0.781328 0.025735 0.133001
C37   C     C_R   0.781328 0.956359 0.974264 0.133001
C38   C     C_R   0.043756 0.781473 0.974298 0.130924
C39   C     C_R   0.218672 0.043641 0.974265 0.133001
C40   C     C_R   0.956244 0.218527 0.974298 0.130924
C41   C     C_R   0.000000 0.500000 0.414935 0.783529
C42   C     C_R   0.500000 1.000000 0.414934 0.783346
C43   C     C_R   0.000000 0.500000 0.585066 0.783347
C44   C     C_R   0.500000 0.000000 0.585064 0.783529
C45   C     C_R   0.500000 1.000000 0.914935 0.783527
C46   C     C_R   1.000000 0.500000 0.914934 0.783346
C47   C     C_R   0.500000 1.000000 0.085066 0.783347
C48   C     C_R   0.000000 0.500000 0.085064 0.783527
C49   C     C_R   0.185497 0.500102 0.499954 -0.101921
C50   C     C_R   0.499898 0.814503 0.500046 -0.101920
C51   C     C_R   0.814503 0.499898 0.499954 -0.101921
C52   C     C_R   0.500102 0.185497 0.500046 -0.101920
C53   C     C_R   0.685497 0.000102 0.999954 -0.101920
C54   C     C_R   0.999898 0.314503 0.000046 -0.101920
C55   C     C_R   0.314503 0.999898 0.999954 -0.101920
C56   C     C_R   0.000102 0.685497 0.000046 -0.101920
C57   C     C_R   0.217332 0.543858 0.524674 -0.172708
C58   C     C_R   0.543672 0.782809 0.524755 -0.173901
C59   C     C_R   0.782668 0.456142 0.524674 -0.172708
C60   C     C_R   0.456328 0.217191 0.524755 -0.173901
C61   C     C_R   0.217191 0.456328 0.475244 -0.173901
C62   C     C_R   0.543858 0.217332 0.475325 -0.172707
C63   C     C_R   0.782809 0.543672 0.475245 -0.173900
C64   C     C_R   0.456142 0.782668 0.475325 -0.172708
C65   C     C_R   0.717332 0.043858 0.024674 -0.172708
C66   C     C_R   0.043672 0.282809 0.024755 -0.173901
C67   C     C_R   0.282668 0.956142 0.024674 -0.172708
C68   C     C_R   0.956328 0.717191 0.024755 -0.173901
C69   C     C_R   0.717191 0.956328 0.975244 -0.173901
C70   C     C_R   0.043858 0.717332 0.975325 -0.172708
C71   C     C_R   0.282809 0.043672 0.975244 -0.173901
C72   C     C_R   0.956142 0.282668 0.975325 -0.172708
C73   C     C_R   0.018991 0.447572 0.297397 -0.169044
C74   C     C_R   0.552468 0.981122 0.297390 -0.169692
C75   C     C_R   0.981009 0.552427 0.297397 -0.169044
C76   C     C_R   0.447532 0.018878 0.297390 -0.169692
C77   C     C_R   0.018878 0.447532 0.702610 -0.169692
C78   C     C_R   0.552426 0.981004 0.702603 -0.169043
C79   C     C_R   0.981122 0.552468 0.702610 -0.169692
C80   C     C_R   0.447574 0.018996 0.702603 -0.169043
C81   C     C_R   0.519002 0.947576 0.797397 -0.169043
C82   C     C_R   0.052468 0.481122 0.797390 -0.169692
C83   C     C_R   0.480998 0.052423 0.797397 -0.169042
C84   C     C_R   0.947532 0.518878 0.797390 -0.169692
C85   C     C_R   0.518878 0.947532 0.202610 -0.169692
C86   C     C_R   0.052423 0.480997 0.202603 -0.169043
C87   C     C_R   0.481122 0.052468 0.202610 -0.169693
C88   C     C_R   0.947577 0.519002 0.202603 -0.169042
C89   C     C_R   0.018540 0.447390 0.343282 -0.183644
C90   C     C_R   0.552653 0.981581 0.343276 -0.183611
C91   C     C_R   0.981460 0.552610 0.343282 -0.183644
C92   C     C_R   0.447347 0.018419 0.343276 -0.183612
C93   C     C_R   0.018419 0.447347 0.656724 -0.183611
C94   C     C_R   0.552608 0.981454 0.656718 -0.183643
C95   C     C_R   0.981581 0.552653 0.656724 -0.183612
C96   C     C_R   0.447392 0.018545 0.656718 -0.183644
C97   C     C_R   0.518552 0.947394 0.843282 -0.183644
C98   C     C_R   0.052653 0.481581 0.843276 -0.183611
C99   C     C_R   0.481448 0.052606 0.843282 -0.183644
C100  C     C_R   0.947347 0.518419 0.843276 -0.183612
C101  C     C_R   0.518419 0.947347 0.156724 -0.183611
C102  C     C_R   0.052606 0.481448 0.156718 -0.183644
C103  C     C_R   0.481581 0.052653 0.156724 -0.183611
C104  C     C_R   0.947394 0.518552 0.156718 -0.183644
C105  C     C_R   1.000000 0.500000 0.366574 -0.025583
C106  C     C_R   0.500000 0.000000 0.366570 -0.027952
C107  C     C_R   1.000000 0.500000 0.633430 -0.027952
C108  C     C_R   0.500000 1.000000 0.633425 -0.025578
C109  C     C_R   0.500000 1.000000 0.866574 -0.025576
C110  C     C_R   1.000000 0.500000 0.866570 -0.027952
C111  C     C_R   0.500000 1.000000 0.133430 -0.027952
C112  C     C_R   1.000000 0.500000 0.133425 -0.025576
C113  C     C_R   0.000000 0.500000 0.274196 0.101383
C114  C     C_R   0.500000 0.000000 0.274194 0.101012
C115  C     C_R   1.000000 0.500000 0.725806 0.101012
C116  C     C_R   0.500000 1.000000 0.725804 0.101385
C117  C     C_R   0.500000 1.000000 0.774196 0.101384
C118  C     C_R   1.000000 0.500000 0.774194 0.101012
C119  C     C_R   0.500000 0.000000 0.225806 0.101013
C120  C     C_R   0.000000 0.500000 0.225803 0.101382
Cu1   Cu    Cu3+1 0.000000 0.438210 0.500000 0.942457
Cu2   Cu    Cu3+1 0.438210 1.000000 0.500000 0.942457
Cu3   Cu    Cu3+1 1.000000 0.561790 0.500000 0.942457
Cu4   Cu    Cu3+1 0.561790 1.000000 0.500000 0.942457
Cu5   Cu    Cu3+1 0.500000 0.938210 0.000000 0.942458
Cu6   Cu    Cu3+1 0.938210 0.500000 0.000000 0.942458
Cu7   Cu    Cu3+1 0.500000 0.061790 0.000000 0.942458
Cu8   Cu    Cu3+1 0.061790 0.500000 0.000000 0.942457
Cu9   Cu    Cu3+1 0.500000 0.500000 0.544060 0.931849
Cu10  Cu    Cu3+1 0.500000 0.500000 0.455940 0.931849
Cu11  Cu    Cu3+1 0.000000 0.000000 0.044060 0.931849
Cu12  Cu    Cu3+1 0.000000 1.000000 0.955940 0.931849
H1    H     H_    0.033443 0.406569 0.279973 0.129888
H2    H     H_    0.593497 0.966754 0.279962 0.130418
H3    H     H_    0.966557 0.593431 0.279973 0.129888
H4    H     H_    0.406502 0.033246 0.279962 0.130418
H5    H     H_    0.033246 0.406503 0.720038 0.130418
H6    H     H_    0.593428 0.966548 0.720027 0.129886
H7    H     H_    0.966754 0.593498 0.720038 0.130418
H8    H     H_    0.406572 0.033452 0.720027 0.129886
H9    H     H_    0.533463 0.906576 0.779973 0.129886
H10   H     H_    0.093497 0.466754 0.779962 0.130418
H11   H     H_    0.466537 0.093424 0.779973 0.129886
H12   H     H_    0.906502 0.533246 0.779962 0.130418
H13   H     H_    0.533246 0.906503 0.220038 0.130418
H14   H     H_    0.093424 0.466536 0.220027 0.129888
H15   H     H_    0.466754 0.093498 0.220038 0.130418
H16   H     H_    0.906577 0.533464 0.220027 0.129887
H17   H     H_    0.033249 0.406329 0.360510 0.148746
H18   H     H_    0.593752 0.966973 0.360501 0.150781
H19   H     H_    0.966751 0.593671 0.360510 0.148746
H20   H     H_    0.406248 0.033027 0.360501 0.150781
H21   H     H_    0.033027 0.406248 0.639499 0.150781
H22   H     H_    0.593669 0.966742 0.639490 0.148743
H23   H     H_    0.966973 0.593752 0.639499 0.150781
H24   H     H_    0.406332 0.033258 0.639490 0.148744
H25   H     H_    0.533269 0.906335 0.860510 0.148741
H26   H     H_    0.093752 0.466973 0.860501 0.150781
H27   H     H_    0.466731 0.093664 0.860510 0.148741
H28   H     H_    0.906248 0.533027 0.860501 0.150781
H29   H     H_    0.533027 0.906248 0.139499 0.150781
H30   H     H_    0.093664 0.466730 0.139489 0.148741
H31   H     H_    0.466973 0.093752 0.139499 0.150781
H32   H     H_    0.906336 0.533270 0.139489 0.148741
H33   H     H_    0.191908 0.577215 0.543982 0.150914
H34   H     H_    0.577028 0.808340 0.544063 0.148627
H35   H     H_    0.808092 0.422785 0.543982 0.150915
H36   H     H_    0.422972 0.191660 0.544063 0.148627
H37   H     H_    0.191660 0.422972 0.455937 0.148627
H38   H     H_    0.577215 0.191908 0.456018 0.150915
H39   H     H_    0.808339 0.577028 0.455937 0.148627
H40   H     H_    0.422785 0.808092 0.456018 0.150915
H41   H     H_    0.691908 0.077215 0.043982 0.150915
H42   H     H_    0.077028 0.308340 0.044063 0.148626
H43   H     H_    0.308092 0.922785 0.043982 0.150915
H44   H     H_    0.922972 0.691660 0.044063 0.148626
H45   H     H_    0.691660 0.922972 0.955937 0.148626
H46   H     H_    0.077215 0.691908 0.956018 0.150915
H47   H     H_    0.308339 0.077028 0.955937 0.148626
H48   H     H_    0.922785 0.308092 0.956018 0.150915
O1    O     O_R   0.090160 0.447820 0.500030 -0.588621
O2    O     O_R   0.447820 0.909840 0.500030 -0.584269
O3    O     O_R   0.909840 0.552180 0.500030 -0.588621
O4    O     O_R   0.552180 0.090160 0.500030 -0.584269
O5    O     O_R   0.090160 0.552180 0.499970 -0.584269
O6    O     O_R   0.447820 0.090160 0.499970 -0.588622
O7    O     O_R   0.909840 0.447820 0.499970 -0.584269
O8    O     O_R   0.552180 0.909840 0.499970 -0.588622
O9    O     O_R   0.590160 0.947820 0.000030 -0.588622
O10   O     O_R   0.947820 0.409840 0.000030 -0.584269
O11   O     O_R   0.409840 0.052180 0.000030 -0.588622
O12   O     O_R   0.052180 0.590160 0.000030 -0.584269
O13   O     O_R   0.590160 0.052180 0.999970 -0.584268
O14   O     O_R   0.947820 0.590160 0.999970 -0.588622
O15   O     O_R   0.409840 0.947820 0.999970 -0.584268
O16   O     O_R   0.052180 0.409840 0.999970 -0.588622
O17   O     O_R   0.999980 0.447820 0.435750 -0.589218
O18   O     O_R   0.447820 0.000020 0.435750 -0.589487
O19   O     O_R   0.000020 0.552180 0.435750 -0.589218
O20   O     O_R   0.552180 0.999980 0.435750 -0.589487
O21   O     O_R   0.999980 0.552180 0.564250 -0.589488
O22   O     O_R   0.447820 0.999980 0.564250 -0.589218
O23   O     O_R   0.000020 0.447820 0.564250 -0.589487
O24   O     O_R   0.552180 0.000020 0.564250 -0.589218
O25   O     O_R   0.499980 0.947820 0.935750 -0.589216
O26   O     O_R   0.947820 0.500020 0.935750 -0.589487
O27   O     O_R   0.500020 0.052180 0.935750 -0.589216
O28   O     O_R   0.052180 0.499980 0.935750 -0.589487
O29   O     O_R   0.499980 0.052180 0.064250 -0.589488
O30   O     O_R   0.947820 0.499980 0.064250 -0.589217
O31   O     O_R   0.500020 0.947820 0.064250 -0.589487
O32   O     O_R   0.052180 0.500020 0.064250 -0.589217
O33   O     O_R   0.499980 0.409740 0.537200 -0.585066
O34   O     O_R   0.409740 0.500020 0.537200 -0.585335
O35   O     O_R   0.500020 0.590260 0.537200 -0.585067
O36   O     O_R   0.590260 0.499980 0.537200 -0.585336
O37   O     O_R   0.499980 0.590260 0.462800 -0.585335
O38   O     O_R   0.409740 0.499980 0.462800 -0.585067
O39   O     O_R   0.500020 0.409740 0.462800 -0.585336
O40   O     O_R   0.590260 0.500020 0.462800 -0.585066
O41   O     O_R   0.999980 0.909740 0.037200 -0.585066
O42   O     O_R   0.909740 0.000020 0.037200 -0.585336
O43   O     O_R   0.000020 0.090260 0.037200 -0.585067
O44   O     O_R   0.090260 0.999980 0.037200 -0.585336
O45   O     O_R   0.999980 0.090260 0.962800 -0.585336
O46   O     O_R   0.909740 0.999980 0.962800 -0.585067
O47   O     O_R   0.000020 0.909740 0.962800 -0.585336
O48   O     O_R   0.090260 0.000020 0.962800 -0.585067
C121  C     C_3   0.314001 0.590857 0.553945 -0.835824
H49   H     H_    0.281404 0.624939 0.567996 0.222819
H50   H     H_    0.337371 0.567645 0.581839 0.249854
H51   H     H_    0.348434 0.616489 0.534209 0.220850
C122  C     C_3   0.590825 0.686304 0.553916 -0.839480
H52   H     H_    0.624879 0.719028 0.567979 0.221263
H53   H     H_    0.567687 0.662772 0.581803 0.250190
H54   H     H_    0.616480 0.652033 0.534120 0.220837
C123  C     C_3   0.685999 0.409143 0.553945 -0.835824
H55   H     H_    0.718596 0.375061 0.567996 0.222820
H56   H     H_    0.662629 0.432355 0.581839 0.249854
H57   H     H_    0.651566 0.383511 0.534209 0.220850
C124  C     C_3   0.409175 0.313696 0.553916 -0.839479
H58   H     H_    0.375121 0.280972 0.567978 0.221262
H59   H     H_    0.432313 0.337228 0.581803 0.250190
H60   H     H_    0.383520 0.347967 0.534120 0.220837
C125  C     C_3   0.313696 0.409175 0.446084 -0.839479
H61   H     H_    0.280972 0.375121 0.432021 0.221262
H62   H     H_    0.337228 0.432313 0.418197 0.250190
H63   H     H_    0.347967 0.383520 0.465879 0.220836
C126  C     C_3   0.590857 0.314001 0.446055 -0.835825
H64   H     H_    0.624939 0.281404 0.432003 0.222820
H65   H     H_    0.567645 0.337371 0.418161 0.249855
H66   H     H_    0.616488 0.348434 0.465791 0.220850
C127  C     C_3   0.686303 0.590825 0.446084 -0.839479
H67   H     H_    0.719028 0.624879 0.432022 0.221262
H68   H     H_    0.662772 0.567687 0.418197 0.250190
H69   H     H_    0.652033 0.616480 0.465880 0.220836
C128  C     C_3   0.409143 0.685999 0.446055 -0.835824
H70   H     H_    0.375061 0.718596 0.432003 0.222819
H71   H     H_    0.432355 0.662629 0.418161 0.249854
H72   H     H_    0.383511 0.651566 0.465791 0.220850
C129  C     C_3   0.814001 0.090857 0.053945 -0.835825
H73   H     H_    0.781404 0.124939 0.067996 0.222819
H74   H     H_    0.837371 0.067645 0.081839 0.249854
H75   H     H_    0.848434 0.116489 0.034209 0.220850
C130  C     C_3   0.090825 0.186304 0.053916 -0.839480
H76   H     H_    0.124879 0.219028 0.067978 0.221262
H77   H     H_    0.067687 0.162772 0.081803 0.250190
H78   H     H_    0.116480 0.152033 0.034120 0.220837
C131  C     C_3   0.185999 0.909143 0.053945 -0.835824
H79   H     H_    0.218596 0.875061 0.067996 0.222819
H80   H     H_    0.162629 0.932355 0.081839 0.249854
H81   H     H_    0.151566 0.883512 0.034209 0.220850
C132  C     C_3   0.909175 0.813697 0.053916 -0.839480
H82   H     H_    0.875121 0.780972 0.067978 0.221262
H83   H     H_    0.932313 0.837228 0.081803 0.250190
H84   H     H_    0.883520 0.847967 0.034120 0.220837
C133  C     C_3   0.813696 0.909175 0.946084 -0.839479
H85   H     H_    0.780972 0.875121 0.932021 0.221262
H86   H     H_    0.837228 0.932313 0.918197 0.250190
H87   H     H_    0.847967 0.883520 0.965879 0.220836
C134  C     C_3   0.090857 0.814001 0.946055 -0.835824
H88   H     H_    0.124939 0.781404 0.932003 0.222819
H89   H     H_    0.067645 0.837371 0.918161 0.249854
H90   H     H_    0.116488 0.848434 0.965791 0.220850
C135  C     C_3   0.186304 0.090825 0.946084 -0.839479
H91   H     H_    0.219028 0.124879 0.932022 0.221262
H92   H     H_    0.162772 0.067687 0.918197 0.250190
H93   H     H_    0.152033 0.116480 0.965880 0.220836
C136  C     C_3   0.909143 0.185999 0.946055 -0.835824
H94   H     H_    0.875061 0.218596 0.932003 0.222819
H95   H     H_    0.932355 0.162629 0.918161 0.249854
H96   H     H_    0.883511 0.151566 0.965791 0.220850

loop_
_geom_bond_atom_site_label_1
_geom_bond_atom_site_label_2
_ccdc_geom_bond_type
C72   H48   S    
C79   H7    S    
C38   C70   A    
C11   C18   S    
C100  C110  A    
C98   C110  A    
C79   C115  A    
C73   H1    S    
C17   C29   A    
C91   C105  A    
C34   C130  S    
C102  C112  A    
Cu8   O12   S    
C18   C26   A    
C7    C55   S    
C13   O47   A    
C41   O19   A    
C53   C69   A    
C34   C66   A    
C6    O16   A    
C125  H63   S    
C68   H44   S    
C85   C101  A    
C20   C30   A    
C39   C135  S    
C134  H90   S    
C46   O28   A    
C27   C123  S    
C126  H64   S    
C60   H36   S    
C87   H15   S    
C4    C52   S    
C50   C64   A    
C14   C21   S    
Cu3   O19   S    
C32   C128  S    
C66   H42   S    
C35   C131  S    
C14   O46   A    
C121  H51   S    
C37   C69   A    
Cu11  O43   S    
Cu7   O13   S    
C127  H67   S    
C45   C109  S    
Cu2   O6    S    
C21   C33   A    
C84   H12   S    
C10   C17   S    
C77   C115  A    
C74   C114  A    
C33   C129  S    
C11   O35   A    
C136  H96   S    
C73   C113  A    
C116  C117  S    
C135  H91   S    
C103  C111  A    
C124  H58   S    
C2    O2    A    
C71   H47   S    
Cu9   O34   S    
C85   C119  A    
Cu7   O27   S    
Cu3   O3    S    
Cu3   O5    S    
C52   C60   A    
C38   C134  S    
C69   H45   S    
Cu4   O8    S    
C25   C121  S    
Cu7   O29   S    
C15   C22   S    
C48   O32   A    
C67   H43   S    
C92   H20   S    
C24   C38   A    
C122  H53   S    
C8    O14   A    
Cu11  O44   S    
C75   C113  A    
C80   H8    S    
C88   C120  A    
C12   O36   A    
C53   C65   A    
C122  H52   S    
C11   O37   A    
C129  H74   S    
C114  C119  S    
C133  H86   S    
C75   C91   A    
C44   O24   A    
C9    O39   A    
C81   H9    S    
Cu10  O38   S    
C96   C108  A    
C19   C31   A    
C45   O27   A    
C83   C99   A    
C131  H79   S    
C95   C107  A    
C44   O22   A    
C8    C56   S    
C82   C98   A    
C7    O11   A    
C25   C57   A    
C6    C54   S    
C96   H24   S    
C58   H34   S    
C78   H6    S    
C19   C27   A    
C88   C104  A    
C136  H94   S    
C51   C59   A    
C77   H5    S    
C44   C108  S    
C15   O43   A    
Cu5   O31   S    
C62   H38   S    
C29   C61   A    
C89   H17   S    
C126  H65   S    
C49   C61   A    
Cu6   O10   S    
C31   C127  S    
Cu1   O1    S    
C33   C65   A    
C123  H55   S    
C84   C100  A    
C81   C117  A    
C98   H26   S    
C42   O18   A    
C51   C63   A    
Cu1   O23   S    
C41   O17   A    
Cu6   O30   S    
Cu12  O47   S    
C4    O6    A    
C104  C112  A    
C131  H80   S    
Cu3   O21   S    
C134  H89   S    
C10   O34   A    
C7    O15   A    
C20   C28   A    
C54   C72   A    
C9    O33   A    
C134  H88   S    
C56   C68   A    
C1    O1    A    
C52   C62   A    
Cu7   O11   S    
C13   C24   S    
C103  H31   S    
C128  H71   S    
C97   H25   S    
C80   C96   A    
Cu9   O35   S    
Cu10  O37   S    
C55   C71   A    
C47   C111  S    
C87   C119  A    
C121  H49   S    
Cu12  O46   S    
Cu1   O7    S    
C113  C120  S    
C97   C109  A    
C122  H54   S    
Cu6   O14   S    
C9    C20   S    
C63   H39   S    
C76   C114  A    
C35   C67   A    
C102  H30   S    
C115  C118  S    
C22   C40   A    
C6    O10   A    
C129  H75   S    
C132  H82   S    
C88   H16   S    
C50   C58   A    
C21   C37   A    
C40   C136  S    
Cu11  O41   S    
C43   C107  S    
Cu2   O18   S    
Cu10  O40   S    
C26   C58   A    
C32   C64   A    
C135  H92   S    
C28   C60   A    
C41   C105  S    
C76   C92   A    
C87   C103  A    
C132  H84   S    
C26   C122  S    
C92   C106  A    
C48   C112  S    
C42   C106  S    
Cu4   O24   S    
C16   C23   S    
C23   C35   A    
C30   C62   A    
C2    C50   S    
C43   O23   A    
C133  H85   S    
C70   H46   S    
C15   O45   A    
C78   C94   A    
C99   H27   S    
C28   C124  S    
C82   C118  A    
Cu2   Cu4   S    
Cu11  Cu12  S    
C86   C102  A    
C94   C108  A    
C36   C132  S    
C128  H70   S    
C59   H35   S    
Cu6   Cu8   S    
C10   O38   A    
C5    O13   A    
Cu9   Cu10  S    
C130  H76   S    
C5    C53   S    
C42   O20   A    
C46   O26   A    
C123  H57   S    
C16   O48   A    
C126  H66   S    
C45   O25   A    
C40   C72   A    
C124  H60   S    
C65   H41   S    
C81   C97   A    
C131  H81   S    
C29   C125  S    
C135  H93   S    
C14   O42   A    
C47   O29   A    
C78   C116  A    
Cu8   O16   S    
C13   O41   A    
C100  H28   S    
Cu5   O25   S    
Cu12  O48   S    
C3    O7    A    
Cu1   O17   S    
C127  H69   S    
C86   C120  A    
C90   H18   S    
C36   C68   A    
Cu4   O4    S    
C54   C66   A    
C1    O5    A    
C101  C111  A    
C31   C63   A    
Cu4   O20   S    
C56   C70   A    
C24   C36   A    
C30   C126  S    
C128  H72   S    
C17   C25   A    
C91   H19   S    
C83   C117  A    
Cu9   O36   S    
C123  H56   S    
C48   O30   A    
C73   C89   A    
C55   C67   A    
C121  H50   S    
C130  H77   S    
C27   C59   A    
Cu12  O45   S    
C93   C107  A    
C83   H11   S    
C94   H22   S    
C77   C93   A    
Cu2   O22   S    
C104  H32   S    
C129  H73   S    
C75   H3    S    
C3    O3    A    
Cu6   O26   S    
C46   C110  S    
C23   C39   A    
C74   C90   A    
C74   H2    S    
C12   C19   S    
C101  H29   S    
C132  H83   S    
C125  H62   S    
C3    C51   S    
C47   O31   A    
Cu11  O42   S    
C95   H23   S    
Cu9   O33   S    
Cu10  O39   S    
C8    O12   A    
C130  H78   S    
C2    O8    A    
C64   H40   S    
Cu1   Cu3   S    
C16   O44   A    
C61   H37   S    
C90   C106  A    
C5    O9    A    
C82   H10   S    
C76   H4    S    
C93   H21   S    
C49   C57   A    
Cu2   O2    S    
C18   C32   A    
C86   H14   S    
C84   C118  A    
C127  H68   S    
C133  H87   S    
C89   C105  A    
Cu5   Cu7   S    
C22   C34   A    
Cu5   O15   S    
C43   O21   A    
C136  H95   S    
C57   H33   S    
Cu5   O9    S    
Cu8   O28   S    
C80   C116  A    
C124  H59   S    
C85   H13   S    
C125  H61   S    
C79   C95   A    
C1    C49   S    
C12   O40   A    
Cu8   O32   S    
C4    O4    A    
C37   C133  S    
C39   C71   A    
C99   C109  A    
