data_mof_unit_40455.cif
_audit_creation_date              2012-12-11T14:17:30-0500
_audit_creation_method            fapswitch 2.2
_symmetry_space_group_name_H-M    P1
_symmetry_Int_Tables_number       1
_space_group_crystal_system       triclinic
_cell_length_a                    6.945133
_cell_length_b                    13.630877
_cell_length_c                    20.41611
_cell_angle_alpha                 102.08361
_cell_angle_beta                  90.073494
_cell_angle_gamma                 90.6056
_cell_volume                      1889.81603807

loop_
_atom_site_label
_atom_site_type_symbol
_atom_type_description
_atom_site_fract_x
_atom_site_fract_y
_atom_site_fract_z
_atom_type_partial_charge
O1    O     O_R   0.506860 0.599390 0.449240 -0.532168
O2    O     O_R   0.180220 0.594600 0.586780 -0.545003
O3    O     O_R   0.004500 0.400610 0.550760 -0.540862
C1    C     C_R   0.349161 0.616118 0.613443 0.727031
O4    O     O_R   0.177490 0.611290 0.451970 -0.539027
O5    O     O_R   0.001750 0.417420 0.414990 -0.544928
C2    C     C_R   0.346726 0.637840 0.435109 0.709614
O6    O     O_R   0.509610 0.582580 0.585010 -0.545648
O7    O     O_3   0.337420 0.436370 0.488020 -0.368981
V1    V     V_3+5 0.064680 0.511800 0.502220 1.442929
O8    O     O_R   0.671710 0.405400 0.413220 -0.526597
C3    C     C_R   0.839085 0.387681 0.385510 0.720000
O9    O     O_R   0.674440 0.388710 0.548030 -0.542779
C4    C     C_R   0.842752 0.362005 0.564731 0.689609
V2    V     V_3+5 0.564010 0.488200 0.497780 1.458707
O10   O     O_3   0.841140 0.563630 0.511980 -0.373353
C5    C     C_R   0.856327 0.110896 0.612449 -0.130686
H1    H     H_    0.849090 0.161089 0.519650 0.108184
H2    H     H_    0.865437 0.985557 0.695592 0.128264
H3    H     H_    0.857939 0.032504 0.587393 0.132689
C6    C     C_R   0.849773 0.285102 0.604846 -0.034339
C7    C     C_R   0.860102 0.315416 0.928635 -0.164061
C8    C     C_R   0.855292 0.391539 0.892898 -0.118982
C9    C     C_R   0.853720 0.368785 0.823103 -0.157668
C10   C     C_R   0.856949 0.267983 0.786906 0.079356
C11   C     C_R   0.861328 0.190204 0.823987 0.066479
C12   C     C_R   0.855950 0.241773 0.715324 0.071239
C13   C     C_R   0.858538 0.138762 0.682683 0.133151
C14   C     C_R   0.863089 0.064162 0.720187 -0.190323
C15   C     C_R   0.864646 0.089258 0.789649 -0.195087
C16   C     C_R   0.852241 0.314078 0.674724 -0.212833
C17   C     C_R   0.851461 0.183718 0.573782 -0.167598
C18   C     C_R   0.862879 0.215098 0.894951 -0.076507
H4    H     H_    0.850443 0.393514 0.695511 0.093290
H5    H     H_    0.861740 0.334766 0.982899 0.113172
H6    H     H_    0.849942 0.432046 0.799224 0.106599
H7    H     H_    0.852974 0.469072 0.919521 0.120853
H8    H     H_    0.868343 0.028430 0.816261 0.115619
C19   C     C_2   0.992717 0.280405 0.287189 -0.161493
C20   C     C_2   0.839516 0.334624 0.314396 0.013715
H9    H     H_    0.118826 0.277468 0.318222 0.136833
C21   C     C_2   0.006969 0.225898 0.216178 -0.094873
C22   C     C_2   0.860070 0.171865 0.183427 -0.281188
H10   H     H_    0.146993 0.224181 0.192374 0.157471
H11   H     H_    0.724719 0.167155 0.209095 0.163970
C23   C     C_2   0.204659 0.791072 0.782102 -0.135120
C24   C     C_2   0.363515 0.815757 0.819931 -0.303719
H12   H     H_    0.066984 0.821435 0.801255 0.130529
H13   H     H_    0.501974 0.785740 0.802037 0.127718
C25   C     C_2   0.203150 0.722599 0.714613 -0.126028
C26   C     C_2   0.361275 0.684452 0.680155 -0.301571
H14   H     H_    0.061924 0.703717 0.692348 0.134110
H15   H     H_    0.504386 0.702980 0.700353 0.125162
C27   C     C_R   0.385833 0.890839 0.387774 -0.154203
H16   H     H_    0.402251 0.015084 0.304092 0.125674
H17   H     H_    0.399742 0.969410 0.411946 0.134466
C28   C     C_R   0.357610 0.716986 0.396483 -0.134407
C29   C     C_R   0.338464 0.685051 0.072238 -0.175362
C30   C     C_R   0.328232 0.609370 0.108327 -0.106890
C31   C     C_R   0.335231 0.632434 0.178096 -0.139185
C32   C     C_R   0.352804 0.733130 0.213939 0.088134
C33   C     C_R   0.363497 0.810421 0.176465 0.065789
C34   C     C_R   0.360098 0.759755 0.285535 0.072655
C35   C     C_R   0.378163 0.862445 0.317678 0.062228
C36   C     C_R   0.388495 0.936576 0.279818 -0.182009
C37   C     C_R   0.381245 0.911207 0.210418 -0.188505
C38   C     C_R   0.350011 0.688152 0.326522 -0.242520
C39   C     C_R   0.375845 0.819514 0.427712 0.344078
C40   C     C_R   0.356102 0.785258 0.105520 -0.076780
H18   H     H_    0.336169 0.608919 0.305811 0.139378
H19   H     H_    0.332692 0.665431 0.018010 0.104342
H20   H     H_    0.326520 0.569483 0.202222 0.138488
H21   H     H_    0.314697 0.531922 0.081992 0.130241
H22   H     H_    0.389749 0.971696 0.183559 0.117786
O11   O     O_R   0.203230 0.917310 0.915020 -0.540307
O12   O     O_R   0.535500 0.888690 0.048040 -0.541978
O13   O     O_R   0.711080 0.082610 0.085000 -0.538881
C41   C     C_R   0.366360 0.862299 0.065082 0.686693
O14   O     O_R   0.532630 0.905370 0.913230 -0.548997
O15   O     O_R   0.708190 0.099410 0.949230 -0.537438
C42   C     C_R   0.364281 0.884246 0.886510 0.741312
O16   O     O_R   0.206120 0.900510 0.050790 -0.539856
O17   O     O_3   0.375360 0.063570 0.011990 -0.368206
V3    V     V_3+5 0.648170 0.988200 0.997780 1.427208
O18   O     O_R   0.038240 0.111390 0.951940 -0.540629
C43   C     C_R   0.869945 0.137738 0.935026 0.692331
O19   O     O_R   0.041120 0.094710 0.086750 -0.543281
C44   C     C_R   0.872889 0.113432 0.114065 0.746382
V4    V     V_3+5 0.148810 0.011930 0.002180 1.433794
O20   O     O_3   0.871750 0.936430 0.988010 -0.375787
I1    I     I_    0.599663 0.367860 0.256909 -0.493607
O21   O     O_3   0.384440 0.853743 0.496369 -0.646610
H23   H     H_    0.375663 0.796641 0.519211 0.269589

loop_
_geom_bond_atom_site_label_1
_geom_bond_atom_site_label_2
_ccdc_geom_bond_type
O19   C44   A    
O15   V3    S    
O12   V3    S    
C19   H9    S    
O18   C43   A    
C7    H5    S    
C6    C16   A    
C9    H6    S    
O16   V4    S    
V3    O20   S    
C22   C44   S    
C4    C6    S    
C13   C14   A    
O12   C41   A    
O5    C3    A    
O14   V3    S    
C29   H19   S    
C27   C39   A    
C31   H20   S    
V2    O10   S    
C37   H22   S    
C5    H3    S    
C15   H8    S    
C32   C34   A    
O15   C43   A    
O8    V2    S    
O13   C44   A    
C25   H14   S    
C8    C9    A    
O1    V2    S    
O7    V1    S    
C30   H21   S    
C1    O6    A    
C30   C31   A    
O9    C4    A    
C40   C41   S    
C21   H10   S    
C28   C38   A    
H16   C36   S    
C19   C21   S    
C34   C38   A    
O17   V4    S    
C6    C17   A    
C27   H17   S    
C33   C37   A    
C1    C26   S    
C12   C16   A    
C9    C10   A    
C24   H13   S    
C19   C20   D    
O14   C42   A    
O18   V4    S    
O11   C42   A    
O13   V3    S    
C29   C30   A    
C8    H7    S    
C33   C40   A    
C31   C32   A    
C26   H15   S    
C3    C20   S    
O2    C1    A    
C18   C43   S    
C14   C15   A    
C41   O16   A    
C11   C18   A    
O17   V3    S    
C25   C26   D    
C16   H4    S    
C22   H11   S    
O3    C4    A    
C11   C15   A    
O6    V2    S    
O9    V2    S    
H1    C17   S    
C21   C22   D    
C28   C39   A    
O2    V1    S    
O4    C2    A    
C7    C18   A    
C23   C24   D    
O1    C2    A    
C5    C13   A    
O5    V1    S    
O8    C3    A    
C29   C40   A    
C10   C12   A    
C23   C25   S    
C38   H18   S    
C35   C36   A    
O19   V4    S    
C10   C11   A    
O4    V1    S    
O3    V1    S    
V1    O10   S    
C27   C35   A    
O21   H23   S    
C39   O21   S    
C24   C42   S    
C20   I1    S    
O7    V2    S    
C32   C33   A    
O11   V4    S    
C34   C35   A    
C23   H12   S    
C36   C37   A    
C12   C13   A    
C5    C17   A    
C7    C8    A    
V4    O20   S    
C2    C28   S    
H2    C14   S    
