data_mof_unit_21330.cif
_audit_creation_date              2012-12-10T16:44:38-0500
_audit_creation_method            fapswitch 2.2
_symmetry_space_group_name_H-M    P1
_symmetry_Int_Tables_number       1
_space_group_crystal_system       triclinic
_cell_length_a                    15.067413
_cell_length_b                    8.729938
_cell_length_c                    7.432925
_cell_angle_alpha                 102.83303
_cell_angle_beta                  94.223807
_cell_angle_gamma                 92.62981
_cell_volume                      948.748434735

loop_
_atom_site_label
_atom_site_type_symbol
_atom_type_description
_atom_site_fract_x
_atom_site_fract_y
_atom_site_fract_z
_atom_type_partial_charge
C1    C     C_R   0.497330 0.200074 0.453642 0.798859
C2    C     C_R   0.502670 0.799926 0.546358 0.798857
C3    C     C_R   0.033165 0.387354 0.169123 -0.204425
C4    C     C_R   0.966835 0.612653 0.830874 -0.204423
C5    C     C_2   0.496145 0.033077 0.427092 0.291246
C6    C     C_2   0.503855 0.966923 0.572908 0.291246
C7    C     C_R   0.328704 0.499760 0.502407 0.837105
C8    C     C_R   0.671296 0.500240 0.497593 0.837107
C9    C     C_R   0.821461 0.556578 0.660923 -0.298145
C10   C     C_R   0.178538 0.443427 0.339073 -0.298135
C11   C     C_R   0.768051 0.501221 0.494217 -0.180126
C12   C     C_R   0.231948 0.498780 0.505783 -0.180130
C13   C     C_R   0.807427 0.446005 0.328211 0.546565
C14   C     C_R   0.192573 0.553995 0.671791 0.546558
C15   C     C_R   0.900174 0.444861 0.329687 -0.014937
C16   C     C_R   0.099826 0.555141 0.670312 -0.014938
C17   C     C_R   0.953445 0.500485 0.498440 0.020638
C18   C     C_R   0.046555 0.499520 0.501558 0.020640
C19   C     C_R   0.913748 0.556943 0.664211 0.102179
C20   C     C_R   0.086251 0.443063 0.335786 0.102179
C21   C     C_R   0.940704 0.388317 0.165955 -0.159444
C22   C     C_R   0.059296 0.611686 0.834044 -0.159446
Cu1   Cu    Cu3+1 0.510010 0.517380 0.684380 1.085008
Cu2   Cu    Cu3+1 0.489990 0.482620 0.315620 1.085009
H1    H     H_    0.791231 0.600194 0.788928 0.202451
H2    H     H_    0.208769 0.399813 0.211067 0.202452
H3    H     H_    0.901183 0.345082 0.035123 0.206042
H4    H     H_    0.098817 0.654920 0.964877 0.206042
H5    H     H_    0.063188 0.343452 0.041068 0.161540
H6    H     H_    0.936812 0.656557 0.958928 0.161540
H7    H     H_    0.430077 0.378316 0.948206 0.252729
H8    H     H_    0.569923 0.621684 0.051794 0.252728
N1    N     N_2   0.474890 0.456420 0.038520 -0.160274
N2    N     N_2   0.525110 0.543580 0.961480 -0.160275
O1    O     O_R   0.506510 0.286130 0.619770 -0.564242
O2    O     O_R   0.493490 0.713870 0.380230 -0.564241
O3    O     O_R   0.489600 0.256770 0.308360 -0.524198
O4    O     O_R   0.510400 0.743230 0.691640 -0.524198
O5    O     O_R   0.378710 0.514640 0.655720 -0.539125
O6    O     O_R   0.621290 0.485360 0.344280 -0.539125
O7    O     O_R   0.361800 0.485290 0.344300 -0.591562
O8    O     O_R   0.638200 0.514710 0.655700 -0.591563
F1    F     F_    0.755945 0.390428 0.166542 -0.650541
F2    F     F_    0.244055 0.609568 0.833463 -0.650538
F3    F     F_    0.487079 0.946715 0.248978 -0.617344
F4    F     F_    0.512921 0.053284 0.751022 -0.617344

loop_
_geom_bond_atom_site_label_1
_geom_bond_atom_site_label_2
_ccdc_geom_bond_type
C17   C18   A    
C15   C21   A    
Cu1   Cu2   S    
H7    N1    S    
C15   C17   A    
Cu1   O4    S    
C4    C22   A    
C2    O4    A    
Cu1   O1    S    
Cu2   N1    S    
C1    C5    S    
C1    O3    A    
C8    O8    A    
Cu1   N2    S    
C10   H2    S    
C13   C15   A    
Cu2   O3    S    
C21   H3    S    
C9    H1    S    
C3    C20   A    
C22   H4    S    
Cu2   O7    S    
C9    C11   A    
Cu2   O2    S    
Cu1   O8    S    
C10   C12   A    
C8    C11   S    
Cu1   O5    S    
C14   F2    S    
C17   C19   A    
C12   C14   A    
N1    N2    D    
C18   C20   A    
C7    O7    A    
C6    F4    S    
C5    C6    D    
C14   C16   A    
C7    C12   S    
C3    C21   A    
C11   C13   A    
C13   F1    S    
C1    O1    A    
C16   C18   A    
C2    O2    A    
C3    H5    S    
C7    O5    A    
C16   C22   A    
C8    O6    A    
Cu2   O6    S    
C4    C19   A    
C5    F3    S    
C9    C19   A    
C4    H6    S    
C2    C6    S    
C10   C20   A    
H8    N2    S    
