data_mof_unit_59353.cif
_audit_creation_date              2012-12-10T16:52:36-0500
_audit_creation_method            fapswitch 2.2
_symmetry_space_group_name_H-M    P1
_symmetry_Int_Tables_number       1
_space_group_crystal_system       triclinic
_cell_length_a                    7.84017
_cell_length_b                    8.56007
_cell_length_c                    13.541333
_cell_angle_alpha                 93.397716
_cell_angle_beta                  92.384898
_cell_angle_gamma                 94.363595
_cell_volume                      903.592612517

loop_
_atom_site_label
_atom_site_type_symbol
_atom_type_description
_atom_site_fract_x
_atom_site_fract_y
_atom_site_fract_z
_atom_type_partial_charge
Br1   Br    Br    0.764373 0.762463 0.218584 -0.512134
Br2   Br    Br    0.235641 0.237546 0.781419 -0.512133
Br3   Br    Br    0.166907 0.231525 0.202785 -0.481436
Br4   Br    Br    0.833087 0.768473 0.797214 -0.481441
C1    C     C_R   0.045310 0.794769 0.497559 0.981286
C2    C     C_R   0.937808 0.485397 0.317041 0.958889
C3    C     C_R   0.090638 0.535254 0.789963 -0.198426
C4    C     C_R   0.909363 0.464749 0.210037 -0.198422
C5    C     C_R   0.066503 0.680913 0.946831 -0.186592
C6    C     C_R   0.933501 0.319098 0.053167 -0.186594
C7    C     C_R   0.011817 0.649564 0.847912 0.238924
C8    C     C_R   0.988183 0.350441 0.152087 0.238926
C9    C     C_R   0.217667 0.452071 0.832527 0.126943
C10   C     C_R   0.782339 0.547938 0.167473 0.126943
C11   C     C_R   0.300311 0.512141 0.922092 0.044265
C12   C     C_R   0.954689 0.205231 0.502441 0.981285
C13   C     C_R   0.699696 0.487874 0.077906 0.044264
C14   C     C_R   0.212895 0.616003 0.983639 0.055646
C15   C     C_R   0.787111 0.384012 0.016359 0.055644
C16   C     C_R   0.467405 0.476075 0.951458 0.098387
C17   C     C_R   0.532604 0.523944 0.048539 0.098387
C18   C     C_R   0.424640 0.597224 0.114927 -0.106256
C19   C     C_R   0.575369 0.402797 0.885070 -0.106249
C20   C     C_R   0.271720 0.651337 0.081328 -0.153155
C21   C     C_R   0.728288 0.348682 0.918669 -0.153154
C22   C     C_2   0.068819 0.958593 0.496147 -0.296967
C23   C     C_2   0.931181 0.041407 0.503853 -0.296967
C24   C     C_R   0.062192 0.514603 0.682959 0.958887
H1    H     H_    0.198090 0.718528 0.132204 0.183339
H2    H     H_    0.513007 0.626600 0.572998 0.210097
H3    H     H_    0.801918 0.281492 0.867793 0.183336
H4    H     H_    0.001304 0.763033 0.992986 0.203860
H5    H     H_    0.998698 0.236977 0.007012 0.203860
H6    H     H_    0.456594 0.613845 0.193279 0.197072
H7    H     H_    0.543414 0.386177 0.806718 0.197072
H8    H     H_    0.198344 0.010436 0.488800 0.188108
H9    H     H_    0.801656 0.989564 0.511200 0.188109
H10   H     H_    0.486993 0.373400 0.427002 0.210097
N1    N     N_2   0.440860 0.456490 0.474790 -0.154902
N2    N     N_2   0.559140 0.543510 0.525210 -0.154903
O1    O     O_R   0.891570 0.738930 0.506190 -0.590984
O2    O     O_R   0.108430 0.261070 0.493810 -0.590984
O3    O     O_R   0.174650 0.711050 0.490030 -0.629286
O4    O     O_R   0.825350 0.288950 0.509970 -0.629285
O5    O     O_R   0.909850 0.521900 0.644940 -0.586522
O6    O     O_R   0.090150 0.478100 0.355060 -0.586521
O7    O     O_R   0.192930 0.494020 0.628780 -0.597934
O8    O     O_R   0.807070 0.505980 0.371220 -0.597935
Zn1   Zn    Zn3+2 0.810990 0.518620 0.510790 1.007778
Zn2   Zn    Zn3+2 0.189010 0.481380 0.489210 1.007778

loop_
_geom_bond_atom_site_label_1
_geom_bond_atom_site_label_2
_ccdc_geom_bond_type
O4    Zn1   S    
C21   H3    S    
C11   C14   A    
C2    C4    S    
O3    Zn2   S    
Br1   C10   S    
C6    H5    S    
C12   O4    A    
C16   C19   A    
O5    Zn1   S    
C6    C15   A    
C4    C8    A    
C12   C23   S    
C9    C11   A    
C1    O3    A    
H2    N2    S    
C24   O7    A    
C18   H6    S    
C17   C18   A    
Br4   C7    S    
C3    C7    A    
C5    C7    A    
C10   C13   A    
C22   C23   D    
H10   N1    S    
C6    C8    A    
O2    Zn2   S    
C14   C20   A    
O1    Zn1   S    
O8    Zn1   S    
C13   C15   A    
C23   H9    S    
O6    Zn2   S    
O7    Zn2   S    
C19   H7    S    
C19   C21   A    
C11   C16   A    
C15   C21   A    
C18   C20   A    
C24   O5    A    
N2    Zn1   S    
C12   O2    A    
C5    C14   A    
C3    C9    A    
N1    Zn2   S    
C16   C17   A    
C22   H8    S    
N1    N2    D    
Br2   C9    S    
C1    O1    A    
C20   H1    S    
C4    C10   A    
Br3   C8    S    
C2    O6    A    
C5    H4    S    
C13   C17   A    
C3    C24   S    
C1    C22   S    
C2    O8    A    
