data_mof_unit_6457.cif
_audit_creation_date              2012-10-26T19:58:22-0400
_audit_creation_method            fapswitch 2.2
_symmetry_space_group_name_H-M    P1
_symmetry_Int_Tables_number       1
_space_group_crystal_system       triclinic
_cell_length_a                    7.46938
_cell_length_b                    8.690666
_cell_length_c                    13.419493
_cell_angle_alpha                 94.822015
_cell_angle_beta                  77.701645
_cell_angle_gamma                 103.038605
_cell_volume                      828.584118083

loop_
_atom_site_label
_atom_site_type_symbol
_atom_type_description
_atom_site_fract_x
_atom_site_fract_y
_atom_site_fract_z
_atom_type_partial_charge
C1    C     C_R   0.545307 0.800102 0.503054 0.534171
C2    C     C_R   0.335391 0.485467 0.806349 -0.055409
C3    C     C_2   0.569526 0.968211 0.506971 -0.162361
C4    C     C_R   0.399302 0.495220 0.694423 0.527897
C5    C     C_2   0.437019 0.032644 0.486219 -0.159900
C6    C     C_R   0.456526 0.200119 0.494548 0.540380
C7    C     C_R   0.600653 0.509656 0.306153 0.534008
C8    C     C_R   0.871137 0.673135 0.055247 -0.109935
C9    C     C_R   0.659693 0.532037 0.196261 0.013424
C10   C     C_R   0.154451 0.399708 0.845186 -0.111817
C11   C     C_R   0.101547 0.360868 0.947666 0.272644
C12   C     C_R   0.414645 0.492931 0.975307 -0.019012
C13   C     C_R   0.230649 0.405653 0.011857 -0.109060
C14   C     C_3   0.006692 0.778114 0.606430 -0.010082
C15   C     C_3   0.905057 0.119918 0.962248 -0.126379
C16   C     C_R   0.459696 0.544329 0.873817 0.011637
C17   C     C_R   0.554835 0.533832 0.036192 0.047992
C18   C     C_R   0.730988 0.632998 0.996827 0.069114
C19   C     C_R   0.762523 0.696540 0.901321 -0.133634
C20   C     C_R   0.626068 0.656671 0.842541 -0.094747
C21   C     C_R   0.525485 0.480737 0.135363 -0.109085
C22   C     C_R   0.835303 0.623536 0.154902 -0.116639
Cu1   Cu    Cu3+1 0.321300 0.483160 0.488710 1.003062
Cu2   Cu    Cu3+1 0.678700 0.516840 0.511290 0.981498
H1    H     H_    0.940643 0.663708 0.201117 0.120901
H2    H     H_    0.696013 0.039191 0.528763 0.126061
H3    H     H_    0.869096 0.797019 0.647732 0.110278
H4    H     H_    0.033851 0.821051 0.527760 0.119603
H5    H     H_    0.114045 0.851312 0.646377 0.088814
H6    H     H_    0.006710 0.071483 0.993606 0.107910
H7    H     H_    0.923856 0.095765 0.878317 0.101821
H8    H     H_    0.762032 0.056381 0.997312 0.147854
H9    H     H_    0.314012 0.962205 0.461459 0.111367
H10   H     H_    0.995368 0.392065 0.414302 0.194323
H11   H     H_    0.891908 0.779339 0.872528 0.090941
H12   H     H_    0.005909 0.747961 0.025136 0.096968
H13   H     H_    0.396551 0.402992 0.168852 0.106823
H14   H     H_    0.055112 0.358505 0.795512 0.154871
H15   H     H_    0.180494 0.372595 0.090098 0.118823
H16   H     H_    0.648046 0.718447 0.773563 0.121559
N1    N     N_2   0.947230 0.542220 0.528320 0.045037
N2    N     N_2   0.052770 0.457780 0.471680 -0.192249
O1    O     O_R   0.383920 0.714220 0.492660 -0.471124
O2    O     O_3   0.920616 0.282668 0.986939 -0.555173
O3    O     O_R   0.685730 0.742660 0.511730 -0.537150
O4    O     O_R   0.275440 0.478800 0.636790 -0.447379
O5    O     O_R   0.577250 0.507240 0.655860 -0.487022
O6    O     O_R   0.314270 0.257340 0.488270 -0.510651
O7    O     O_R   0.616080 0.285780 0.507340 -0.510977
O8    O     O_R   0.422750 0.492760 0.344140 -0.517180
O9    O     O_R   0.724560 0.521200 0.363210 -0.525653
O10   O     O_3   0.017186 0.618900 0.607578 -0.427162

loop_
_geom_bond_atom_site_label_1
_geom_bond_atom_site_label_2
_ccdc_geom_bond_type
C12   C17   A    
C8    C22   A    
Cu1   Cu2   S    
C15   H7    S    
C14   H3    S    
C2    C16   A    
N1    N2    D    
N1    O10   S    
C2    C4    S    
C19   C20   A    
H10   N2    S    
C16   C20   A    
C10   H14   S    
C9    C21   A    
Cu2   O9    S    
C17   C18   A    
C7    O9    A    
C15   H8    S    
Cu1   O4    S    
C4    O4    A    
Cu2   N1    S    
C11   C13   A    
C1    O3    A    
Cu1   N2    S    
C6    O6    A    
Cu2   O3    S    
C14   O10   S    
C21   H13   S    
C15   O2    S    
C6    O7    A    
C5    C6    S    
C20   H16   S    
C17   C21   A    
C9    C22   A    
C13   H15   S    
C10   C11   A    
C14   H5    S    
C2    C10   A    
C3    C5    D    
C11   O2    S    
Cu1   O1    S    
C12   C13   A    
C15   H6    S    
C18   C19   A    
C8    H12   S    
Cu2   O7    S    
C7    C9    S    
C4    O5    A    
Cu1   O8    S    
C19   H11   S    
Cu1   O6    S    
C14   H4    S    
Cu2   O5    S    
C1    O1    A    
C3    H2    S    
C8    C18   A    
C12   C16   A    
C7    O8    A    
C1    C3    S    
C22   H1    S    
C5    H9    S    
