data_mof_unit_57405.cif
_audit_creation_date              2012-12-10T16:32:38-0500
_audit_creation_method            fapswitch 2.2
_symmetry_space_group_name_H-M    P1
_symmetry_Int_Tables_number       1
_space_group_crystal_system       triclinic
_cell_length_a                    16.956927
_cell_length_b                    16.956954
_cell_length_c                    16.956935
_cell_angle_alpha                 65.511345
_cell_angle_beta                  65.511403
_cell_angle_gamma                 65.511248
_cell_volume                      3860.7298378

loop_
_atom_site_label
_atom_site_type_symbol
_atom_type_description
_atom_site_fract_x
_atom_site_fract_y
_atom_site_fract_z
_atom_type_partial_charge
C1    C     C_R   0.590061 0.034412 0.590764 0.070897
C2    C     C_R   0.821787 0.564457 0.032713 0.902206
C3    C     C_R   0.435543 0.967289 0.178212 0.902209
C4    C     C_R   0.564457 0.032711 0.821787 0.902208
C5    C     C_R   0.564610 0.821763 0.032337 0.902108
C6    C     C_R   0.435390 0.178236 0.967663 0.902109
C7    C     C_R   0.032336 0.564611 0.821764 0.902109
C8    C     C_R   0.967664 0.435389 0.178236 0.902109
C9    C     C_R   0.821764 0.032336 0.564610 0.902109
C10   C     C_R   0.178236 0.967664 0.435390 0.902109
C11   C     C_R   0.543258 0.017434 0.544371 0.115966
C12   C     C_R   0.409939 0.965588 0.409236 0.070897
C13   C     C_R   0.456742 0.982566 0.455629 0.115966
C14   C     C_R   0.017436 0.544371 0.543257 0.115974
C15   C     C_R   0.982564 0.455629 0.456743 0.115974
C16   C     C_R   0.544371 0.543256 0.017437 0.115970
C17   C     C_R   0.455629 0.456744 0.982563 0.115970
C18   C     C_R   0.552447 0.060070 0.451452 -0.182613
C19   C     C_R   0.447553 0.939930 0.548548 -0.182613
C20   C     C_R   0.060044 0.451442 0.552476 -0.182612
C21   C     C_R   0.939956 0.548557 0.447524 -0.182612
C22   C     C_R   0.451446 0.552462 0.060057 -0.182615
C23   C     C_R   0.034415 0.590765 0.590059 0.070904
C24   C     C_R   0.548554 0.447538 0.939942 -0.182615
C25   C     C_R   0.509630 0.043013 0.407684 -0.178700
C26   C     C_R   0.490370 0.956987 0.592316 -0.178700
C27   C     C_R   0.407678 0.509646 0.042997 -0.178696
C28   C     C_R   0.592322 0.490354 0.957003 -0.178696
C29   C     C_R   0.042985 0.407675 0.509661 -0.178697
C30   C     C_R   0.957015 0.592325 0.490339 -0.178697
C31   C     C_R   0.548963 0.038949 0.679987 -0.202123
C32   C     C_R   0.451037 0.961051 0.320013 -0.202123
C33   C     C_R   0.038959 0.679986 0.548960 -0.202120
C34   C     C_R   0.965585 0.409235 0.409940 0.070904
C35   C     C_R   0.961041 0.320014 0.451040 -0.202120
C36   C     C_R   0.679985 0.548960 0.038957 -0.202121
C37   C     C_R   0.320014 0.451039 0.961043 -0.202122
C38   C     C_R   0.320414 0.961752 0.450546 -0.203005
C39   C     C_R   0.679586 0.038248 0.549454 -0.203005
C40   C     C_R   0.450545 0.320414 0.961753 -0.203006
C41   C     C_R   0.549455 0.679586 0.038247 -0.203006
C42   C     C_R   0.961758 0.450543 0.320413 -0.203009
C43   C     C_R   0.038242 0.549457 0.679587 -0.203009
C44   C     C_R   0.597258 0.047007 0.725698 -0.054537
C45   C     C_R   0.590763 0.590059 0.034416 0.070900
C46   C     C_R   0.402742 0.952993 0.274302 -0.054537
C47   C     C_R   0.047013 0.725697 0.597256 -0.054539
C48   C     C_R   0.952987 0.274303 0.402743 -0.054539
C49   C     C_R   0.725697 0.597257 0.047012 -0.054539
C50   C     C_R   0.274303 0.402743 0.952988 -0.054538
C51   C     C_R   0.274434 0.953339 0.402614 -0.054776
C52   C     C_R   0.725566 0.046661 0.597386 -0.054777
C53   C     C_R   0.402614 0.274434 0.953338 -0.054776
C54   C     C_R   0.597386 0.725566 0.046662 -0.054776
C55   C     C_R   0.953340 0.402613 0.274433 -0.054775
C56   C     C_R   0.409237 0.409941 0.965584 0.070901
C57   C     C_R   0.046659 0.597387 0.725567 -0.054775
C58   C     C_R   0.682242 0.057021 0.682259 -0.264131
C59   C     C_R   0.317758 0.942978 0.317741 -0.264131
C60   C     C_R   0.057024 0.682258 0.682241 -0.264128
C61   C     C_R   0.942976 0.317741 0.317758 -0.264128
C62   C     C_R   0.682258 0.682241 0.057025 -0.264130
C63   C     C_R   0.317742 0.317759 0.942975 -0.264130
C64   C     C_R   0.967286 0.178213 0.435544 0.902206
C65   C     C_R   0.032714 0.821787 0.564456 0.902205
C66   C     C_R   0.178213 0.435543 0.967287 0.902207
H1    H     H_    0.483353 0.921423 0.663505 0.133324
H2    H     H_    0.412772 0.591822 0.107681 0.131777
H3    H     H_    0.892342 0.587235 0.408152 0.131773
H4    H     H_    0.107658 0.412765 0.591848 0.131773
H5    H     H_    0.480900 0.032997 0.714737 0.149930
H6    H     H_    0.519100 0.967002 0.285263 0.149930
H7    H     H_    0.033015 0.714733 0.480894 0.149923
H8    H     H_    0.966985 0.285267 0.519106 0.149923
H9    H     H_    0.714734 0.480896 0.033009 0.149926
H10   H     H_    0.285266 0.519104 0.966990 0.149926
H11   H     H_    0.285076 0.970932 0.517374 0.151254
H12   H     H_    0.516647 0.078577 0.336495 0.133324
H13   H     H_    0.714924 0.029068 0.482626 0.151254
H14   H     H_    0.517371 0.285075 0.970936 0.151251
H15   H     H_    0.482629 0.714925 0.029064 0.151251
H16   H     H_    0.970945 0.517366 0.285072 0.151251
H17   H     H_    0.029055 0.482634 0.714928 0.151251
H18   H     H_    0.718220 0.063732 0.718123 0.179020
H19   H     H_    0.281780 0.936268 0.281877 0.179020
H20   H     H_    0.063735 0.718122 0.718220 0.179019
H21   H     H_    0.936265 0.281877 0.281780 0.179019
H22   H     H_    0.718122 0.718219 0.063735 0.179020
H23   H     H_    0.921470 0.663522 0.483298 0.133315
H24   H     H_    0.281878 0.281781 0.936264 0.179020
H25   H     H_    0.078529 0.336478 0.516702 0.133315
H26   H     H_    0.663516 0.483324 0.921449 0.133318
H27   H     H_    0.336484 0.516676 0.078551 0.133318
H28   H     H_    0.408204 0.892296 0.587217 0.131781
H29   H     H_    0.591796 0.107704 0.412783 0.131781
H30   H     H_    0.587228 0.408178 0.892319 0.131777
O1    O     O_R   0.982940 0.138950 0.510160 -0.638312
O2    O     O_R   0.982940 0.510160 0.138950 -0.638066
O3    O     O_R   0.861050 0.017060 0.489840 -0.638064
O4    O     O_R   0.138950 0.982940 0.510160 -0.638064
O5    O     O_R   0.867700 0.025880 0.612340 -0.630514
O6    O     O_R   0.132300 0.974120 0.387660 -0.630514
O7    O     O_R   0.025880 0.612340 0.867700 -0.630514
O8    O     O_R   0.974120 0.387660 0.132300 -0.630514
O9    O     O_R   0.612340 0.867700 0.025880 -0.630512
O10   O     O_R   0.387660 0.132300 0.974120 -0.630513
O11   O     O_R   0.387660 0.974120 0.132300 -0.630721
O12   O     O_R   0.017060 0.861050 0.489840 -0.638312
O13   O     O_R   0.612340 0.025880 0.867700 -0.630720
O14   O     O_R   0.132300 0.387660 0.974120 -0.630719
O15   O     O_R   0.867700 0.612340 0.025880 -0.630719
O16   O     O_R   0.974120 0.132300 0.387660 -0.630719
O17   O     O_R   0.025880 0.867700 0.612340 -0.630719
O18   O     O_R   0.138950 0.510160 0.982940 -0.638313
O19   O     O_R   0.861050 0.489840 0.017060 -0.638313
O20   O     O_R   0.510160 0.982940 0.138950 -0.638313
O21   O     O_R   0.489840 0.017060 0.861050 -0.638314
O22   O     O_R   0.489840 0.861050 0.017060 -0.638065
O23   O     O_R   0.510160 0.138950 0.982940 -0.638065
O24   O     O_R   0.017060 0.489840 0.861050 -0.638066
Zn1   Zn    Zn3+2 0.004880 0.004880 0.583590 0.941014
Zn2   Zn    Zn3+2 0.995120 0.995120 0.416410 0.941014
Zn3   Zn    Zn3+2 0.004880 0.583590 0.004880 0.941013
Zn4   Zn    Zn3+2 0.995120 0.416410 0.995120 0.941013
Zn5   Zn    Zn3+2 0.583590 0.004880 0.004880 0.941014
Zn6   Zn    Zn3+2 0.416410 0.995120 0.995120 0.941014

loop_
_geom_bond_atom_site_label_1
_geom_bond_atom_site_label_2
_ccdc_geom_bond_type
C16   C28   A    
C4    O13   A    
C11   C18   A    
C50   C63   A    
C46   C59   A    
C43   H17   S    
C34   C42   A    
O7    Zn3   S    
C35   H8    S    
C5    O9    A    
C18   C25   A    
C26   H1    S    
C2    C49   S    
C34   C35   A    
C3    O20   A    
C24   H30   S    
C48   C64   S    
C35   C48   A    
C1    C31   A    
C23   C43   A    
O4    Zn1   S    
C19   C26   A    
C8    O2    A    
O1    Zn1   S    
C61   H21   S    
O14   Zn4   S    
C47   C60   A    
C37   C56   A    
C44   C58   A    
C23   C33   A    
C42   H16   S    
C40   H14   S    
C49   C62   A    
C66   O18   A    
O21   Zn6   S    
C15   C34   S    
C31   H5    S    
C39   C52   A    
C9    O3    A    
C7    O7    A    
C12   C32   A    
C18   H29   S    
C20   H4    S    
C9    C52   S    
C32   C46   A    
C14   C30   A    
C30   H23   S    
C10   C51   S    
C8    C55   S    
C15   C29   A    
C20   C29   A    
O2    Zn3   S    
C2    O15   A    
C17   C24   A    
C31   C44   A    
C13   C19   A    
O15   Zn3   S    
C25   H12   S    
C17   C27   A    
C14   C20   A    
C5    C54   S    
C10   O6    A    
C32   H6    S    
C60   H20   S    
C57   C60   A    
C38   C51   A    
C4    C44   S    
C11   C26   A    
C3    O11   A    
C62   H22   S    
O5    Zn1   S    
C21   H3    S    
C39   H13   S    
C14   C23   S    
C59   H19   S    
O16   Zn2   S    
C36   H9    S    
C58   H18   S    
C42   C55   A    
C8    O8    A    
C2    O19   A    
C1    C39   A    
C41   H15   S    
C6    O10   A    
C36   C45   A    
C28   H26   S    
C40   C56   A    
C66   O14   A    
C10   O4    A    
C50   C66   S    
C17   C56   S    
C22   H2    S    
C19   H28   S    
C52   C58   A    
O3    Zn2   S    
O18   Zn3   S    
O23   Zn5   S    
C33   H7    S    
C64   O1    A    
C37   H10   S    
O20   Zn5   S    
C33   C47   A    
C4    O21   A    
C27   H27   S    
C51   C59   A    
C6    C53   S    
C6    O23   A    
C29   H25   S    
O13   Zn5   S    
C16   C22   A    
O19   Zn4   S    
C65   O12   A    
C65   O17   A    
C7    O24   A    
C24   C28   A    
O11   Zn6   S    
O12   Zn2   S    
C13   C25   A    
C16   C45   S    
O8    Zn4   S    
C38   H11   S    
C54   C62   A    
C21   C30   A    
O10   Zn6   S    
C3    C46   S    
O9    Zn5   S    
C5    O22   A    
C22   C27   A    
C37   C50   A    
C53   C63   A    
C48   C61   A    
C55   C61   A    
C63   H24   S    
C47   C65   S    
C12   C38   A    
C41   C54   A    
C64   O16   A    
C43   C57   A    
C15   C21   A    
O17   Zn1   S    
C12   C13   S    
C9    O5    A    
C40   C53   A    
C41   C45   A    
C1    C11   S    
O22   Zn6   S    
O6    Zn2   S    
C7    C57   S    
C36   C49   A    
O24   Zn4   S    
