data_mof_unit_6267.cif
_audit_creation_date              2012-12-10T17:18:53-0500
_audit_creation_method            fapswitch 2.2
_symmetry_space_group_name_H-M    P1
_symmetry_Int_Tables_number       1
_space_group_crystal_system       triclinic
_cell_length_a                    10.198629
_cell_length_b                    10.728408
_cell_length_c                    13.614617
_cell_angle_alpha                 92.09565
_cell_angle_beta                  99.559083
_cell_angle_gamma                 96.423082
_cell_volume                      1457.42614723

loop_
_atom_site_label
_atom_site_type_symbol
_atom_type_description
_atom_site_fract_x
_atom_site_fract_y
_atom_site_fract_z
_atom_type_partial_charge
C1    C     C_R   0.055380 0.733504 0.497179 0.863427
C2    C     C_2   0.029325 0.072098 0.549664 -0.189126
C3    C     C_2   0.430781 0.511644 0.508380 -0.079110
C4    C     C_2   0.569218 0.488329 0.491648 -0.072468
C5    C     C_R   0.092662 0.512567 0.685707 0.866506
C6    C     C_R   0.907323 0.487376 0.314293 0.901800
C7    C     C_R   0.141725 0.521849 0.792609 -0.042514
C8    C     C_R   0.858140 0.477688 0.207389 -0.050054
C9    C     C_R   0.132670 0.593029 0.961035 -0.156961
C10   C     C_R   0.867124 0.406004 0.039053 -0.156383
C11   C     C_R   0.073987 0.576840 0.860770 -0.166464
C12   C     C_R   0.947839 0.267177 0.510200 0.858834
C13   C     C_R   0.925925 0.422627 0.139284 -0.159700
C14   C     C_R   0.265147 0.481177 0.824994 -0.222659
C15   C     C_R   0.734499 0.517905 0.174972 -0.215940
C16   C     C_R   0.333154 0.509628 0.922002 0.069280
C17   C     C_R   0.666418 0.488989 0.078039 0.069044
C18   C     C_R   0.262728 0.560732 0.992691 0.063658
C19   C     C_R   0.736908 0.437918 0.007389 0.066231
C20   C     C_R   0.469025 0.488519 0.949556 0.009462
C21   C     C_R   0.530469 0.509808 0.050502 0.009060
C22   C     C_R   0.453133 0.548006 0.121337 -0.238006
C23   C     C_R   0.546339 0.450151 0.878752 -0.243208
C24   C     C_R   0.323356 0.576872 0.092979 0.352169
C25   C     C_R   0.676203 0.421481 0.907126 0.352128
C26   C     C_2   0.093183 0.868202 0.507576 0.215148
C27   C     C_2   0.922534 0.135145 0.528395 0.228202
C28   C     C_2   0.014924 0.937297 0.551450 -0.200523
Cl1   Cl    Cl    0.240045 0.630652 0.187249 -0.600948
Cl2   Cl    Cl    0.759620 0.367779 0.812886 -0.620222
Cl3   Cl    Cl    0.755570 0.063358 0.516711 -0.527705
Cl4   Cl    Cl    0.233352 0.934330 0.458216 -0.515718
H1    H     H_    0.692946 0.571757 0.227774 0.165895
H2    H     H_    0.930051 0.893353 0.581681 0.206794
H3    H     H_    0.578512 0.414026 0.437883 0.174470
H4    H     H_    0.421485 0.585926 0.562162 0.171571
H5    H     H_    0.664856 0.623463 0.589604 0.184145
H6    H     H_    0.335152 0.376561 0.410380 0.190120
H7    H     H_    0.306600 0.427407 0.772089 0.161809
H8    H     H_    0.023140 0.391861 0.163394 0.189291
H9    H     H_    0.976907 0.607891 0.836673 0.187053
H10   H     H_    0.077032 0.633869 0.012502 0.204509
H11   H     H_    0.922818 0.365162 0.987624 0.203823
H12   H     H_    0.489447 0.555273 0.200459 0.180340
H13   H     H_    0.509986 0.442620 0.799641 0.179118
H14   H     H_    0.130676 0.119523 0.557048 0.207758
N1    N     N_2   0.322180 0.446120 0.460900 -0.169740
N2    N     N_2   0.677820 0.553880 0.539100 -0.169489
O1    O     O_R   0.935190 0.693030 0.507870 -0.630719
O2    O     O_R   0.064810 0.306970 0.492130 -0.632563
O3    O     O_R   0.142080 0.658430 0.482770 -0.546633
O4    O     O_R   0.857920 0.341570 0.517230 -0.547311
O5    O     O_R   0.969700 0.527180 0.651960 -0.584056
O6    O     O_R   0.030300 0.472820 0.348040 -0.573282
O7    O     O_R   0.176600 0.492580 0.626860 -0.630769
O8    O     O_R   0.823400 0.507420 0.373140 -0.621313
Zn1   Zn    Zn3+2 0.861850 0.523100 0.516760 1.015718
Zn2   Zn    Zn3+2 0.138150 0.476900 0.483240 1.016219

loop_
_geom_bond_atom_site_label_1
_geom_bond_atom_site_label_2
_ccdc_geom_bond_type
C6    C8    S    
C5    C7    S    
C26   Cl4   S    
C2    C27   D    
C23   H13   S    
C9    C11   A    
C26   C28   D    
C6    O8    A    
C20   C23   A    
C10   C19   A    
C16   C20   A    
C20   C21   A    
C9    H10   S    
C4    H3    S    
C28   H2    S    
N2    Zn1   S    
O3    Zn2   S    
C21   C22   A    
C2    H14   S    
N1    Zn2   S    
C7    C11   A    
C1    O3    A    
H6    N1    S    
C8    C13   A    
C3    H4    S    
C6    O6    A    
C18   C24   A    
C5    O5    A    
C17   C19   A    
C15   H1    S    
C11   H9    S    
C8    C15   A    
C22   C24   A    
C23   C25   A    
O6    Zn2   S    
C1    C26   S    
C19   C25   A    
C14   C16   A    
O4    Zn1   S    
C12   C27   S    
C27   Cl3   S    
C3    C4    S    
O2    Zn2   S    
C9    C18   A    
O1    Zn1   S    
O8    Zn1   S    
C16   C18   A    
C4    N2    D    
O7    Zn2   S    
C3    N1    D    
C25   Cl2   S    
C15   C17   A    
O5    Zn1   S    
C24   Cl1   S    
C13   H8    S    
C2    C28   S    
C12   O4    A    
C10   H11   S    
C1    O1    A    
C5    O7    A    
C7    C14   A    
C22   H12   S    
C14   H7    S    
C12   O2    A    
H5    N2    S    
C10   C13   A    
C17   C21   A    
