data_mof_unit_44098.cif
_audit_creation_date              2012-10-26T19:20:38-0400
_audit_creation_method            fapswitch 2.2
_symmetry_space_group_name_H-M    P1
_symmetry_Int_Tables_number       1
_space_group_crystal_system       triclinic
_cell_length_a                    10.699751
_cell_length_b                    11.072659
_cell_length_c                    9.841155
_cell_angle_alpha                 112.307469
_cell_angle_beta                  97.188258
_cell_angle_gamma                 91.904909
_cell_volume                      1066.0440969

loop_
_atom_site_label
_atom_site_type_symbol
_atom_type_description
_atom_site_fract_x
_atom_site_fract_y
_atom_site_fract_z
_atom_type_partial_charge
Br1   Br    Br    0.036239 0.214173 0.903393 -0.298869
Br2   Br    Br    0.973466 0.789936 0.095806 -0.324101
Br3   Br    Br    0.832483 0.803151 0.774531 -0.326315
Br4   Br    Br    0.170068 0.193286 0.224067 -0.351680
Br5   Br    Br    0.533176 0.003605 0.805096 -0.320160
Br6   Br    Br    0.472711 0.996842 0.195242 -0.314562
C1    C     C_R   0.491205 0.253346 0.438961 0.574189
C2    C     C_R   0.738993 0.517101 0.501754 0.587894
C3    C     C_R   0.132736 0.501862 0.767956 0.262417
C4    C     C_R   0.870058 0.495012 0.232868 0.252946
C5    C     C_R   0.097847 0.583038 0.902845 -0.041382
C6    C     C_R   0.908357 0.417367 0.097054 -0.112689
C7    C     C_R   0.004737 0.668856 0.906280 0.154910
C8    C     C_R   0.000951 0.330950 0.093073 0.192576
C9    C     C_R   0.935481 0.663226 0.772625 0.191902
C10   C     C_R   0.067343 0.333482 0.226627 0.192400
C11   C     C_R   0.960249 0.569594 0.635837 -0.050958
C12   C     C_R   0.508378 0.746657 0.561052 0.589970
C13   C     C_R   0.040563 0.424879 0.363446 -0.052946
C14   C     C_R   0.073652 0.508406 0.633548 -0.032425
C15   C     C_R   0.926752 0.485101 0.365471 0.031225
C16   C     C_R   0.877463 0.538014 0.501184 0.046005
C17   C     C_R   0.123284 0.457449 0.497982 -0.016491
C18   C     C_2   0.487472 0.112356 0.401929 0.164763
C19   C     C_2   0.511025 0.887633 0.598064 0.165673
C20   C     C_2   0.496424 0.069212 0.512805 -0.096438
C21   C     C_2   0.496774 0.930516 0.486987 -0.089241
C22   C     C_2   0.501379 0.518002 0.082254 0.161444
C23   C     C_2   0.497458 0.482750 0.917820 0.174571
C24   C     C_R   0.261336 0.481636 0.497923 0.559492
Cu1   Cu    Cu3+1 0.521920 0.521810 0.644910 1.068982
Cu2   Cu    Cu3+1 0.478080 0.478190 0.355090 1.086586
H1    H     H_    0.144882 0.580533 0.005716 0.176675
H2    H     H_    0.354507 0.286768 0.099382 0.413603
H3    H     H_    0.863936 0.421757 0.994079 0.140866
H4    H     H_    0.485054 0.860310 0.372970 0.181520
H5    H     H_    0.504064 0.139213 0.626593 0.177775
H6    H     H_    0.444315 0.392820 0.840873 0.192597
H7    H     H_    0.554226 0.608045 0.159360 0.176045
H8    H     H_    0.208674 0.340318 0.670224 0.346889
H9    H     H_    0.770838 0.594897 0.141364 0.354188
H10   H     H_    0.644655 0.713641 0.900206 0.417162
N1    N     N_2   0.445130 0.445420 0.137360 -0.101325
N2    N     N_2   0.554870 0.554580 0.862640 -0.113900
O1    O     O_R   0.511700 0.332340 0.577400 -0.553737
O2    O     O_3   0.788492 0.590429 0.240524 -0.652921
O3    O     O_3   0.614076 0.668860 0.960757 -0.600290
O4    O     O_3   0.383765 0.332392 0.039006 -0.559469
O5    O     O_R   0.488300 0.667660 0.422600 -0.541287
O6    O     O_R   0.474680 0.295500 0.332650 -0.456228
O7    O     O_R   0.525320 0.704500 0.667350 -0.450550
O8    O     O_R   0.338170 0.518410 0.622370 -0.477475
O9    O     O_R   0.661830 0.481590 0.377630 -0.458675
O10   O     O_R   0.301150 0.481570 0.377630 -0.486621
O11   O     O_R   0.698850 0.518430 0.622370 -0.500583
O12   O     O_3   0.215454 0.409853 0.771154 -0.653949

loop_
_geom_bond_atom_site_label_1
_geom_bond_atom_site_label_2
_ccdc_geom_bond_type
C2    O9    A    
Br4   C10   S    
C2    C16   S    
H9    O2    S    
N2    O3    S    
C20   H5    S    
C4    O2    S    
C21   H4    S    
C19   C21   D    
C3    C5    A    
N1    O4    S    
C3    C14   A    
C13   C17   A    
Cu1   Cu2   S    
C14   C17   A    
Cu1   O8    S    
Br6   C18   S    
C23   H6    S    
C23   N2    D    
C3    O12   S    
C15   C16   A    
C6    H3    S    
C24   O10   A    
Cu2   O6    S    
C20   C21   S    
C12   C19   S    
C4    C6    A    
C10   C13   A    
Br5   C19   S    
C1    O1    A    
C2    O11   A    
Cu2   O10   S    
C22   C23   S    
C13   C15   A    
Cu2   N1    S    
C6    C8    A    
C12   O7    A    
H10   O3    S    
C7    C9    A    
C4    C15   A    
C8    C10   A    
Cu2   O5    S    
C5    C7    A    
H2    O4    S    
Cu1   N2    S    
C1    C18   S    
C17   C24   S    
Cu2   O9    S    
C5    H1    S    
C11   C14   A    
Br3   C9    S    
C12   O5    A    
Cu1   O1    S    
Cu1   O7    S    
C9    C11   A    
Br2   C7    S    
C24   O8    A    
Br1   C8    S    
C22   N1    D    
C22   H7    S    
Cu1   O11   S    
C11   C16   A    
C1    O6    A    
C18   C20   D    
H8    O12   S    
