data_mof_unit_38049.cif
_audit_creation_date              2012-12-10T21:00:48-0500
_audit_creation_method            fapswitch 2.2
_symmetry_space_group_name_H-M    P1
_symmetry_Int_Tables_number       1
_space_group_crystal_system       triclinic
_cell_length_a                    18.102694
_cell_length_b                    18.19319
_cell_length_c                    18.354119
_cell_angle_alpha                 119.816801
_cell_angle_beta                  89.937116
_cell_angle_gamma                 120.001217
_cell_volume                      4288.39506684

loop_
_atom_site_label
_atom_site_type_symbol
_atom_type_description
_atom_site_fract_x
_atom_site_fract_y
_atom_site_fract_z
_atom_type_partial_charge
C1    C     C_R   0.111157 0.220058 0.609934 0.501366
C2    C     C_3   0.450034 0.896277 0.947548 0.022094
C3    C     C_2   0.515959 0.655895 0.245581 0.297715
C4    C     C_2   0.148600 0.848113 0.867307 0.283765
C5    C     C_2   0.851400 0.151886 0.132693 0.283765
C6    C     C_2   0.895825 0.520028 0.832540 0.269178
C7    C     C_2   0.104175 0.479971 0.167459 0.269180
C8    C     C_2   0.836753 0.299697 0.397363 0.292888
C9    C     C_2   0.163247 0.700302 0.602636 0.292888
C10   C     C_3   0.446039 0.031093 0.018950 0.206050
C11   C     C_3   0.553960 0.968907 0.981050 0.206050
C12   C     C_3   0.447154 0.526148 0.483239 -0.126306
C13   C     C_3   0.552846 0.473852 0.516761 -0.126301
C14   C     C_3   0.445921 0.430106 0.413788 -0.118967
C15   C     C_3   0.554079 0.569894 0.586212 -0.118963
C16   C     C_3   0.550189 0.498864 0.448283 0.038818
C17   C     C_3   0.449811 0.501136 0.551717 0.038819
C18   C     C_3   0.550990 0.592542 0.516438 0.243220
C19   C     C_R   0.888843 0.779942 0.390066 0.501366
C20   C     C_3   0.449010 0.407458 0.483562 0.243223
C21   C     C_R   0.169787 0.186502 0.830124 -0.033966
C22   C     C_R   0.830213 0.813499 0.169876 -0.033969
C23   C     C_R   0.392815 0.780823 0.888201 0.553703
C24   C     C_R   0.607185 0.219177 0.111799 0.553703
C25   C     C_R   0.146317 0.138647 0.737722 0.025558
C26   C     C_R   0.853682 0.861353 0.262278 0.025558
C27   C     C_R   0.059036 0.097396 0.689543 -0.020976
C28   C     C_R   0.940963 0.902604 0.310457 -0.020976
C29   C     C_R   0.996179 0.100216 0.733468 -0.097937
C30   C     C_3   0.922763 0.406417 0.451076 -0.001093
C31   C     C_R   0.003820 0.899783 0.266532 -0.097936
C32   C     C_R   0.019043 0.145655 0.825279 0.071564
C33   C     C_R   0.980956 0.854344 0.174721 0.071565
C34   C     C_R   0.106972 0.190943 0.874418 0.224410
C35   C     C_R   0.893027 0.809058 0.125582 0.224409
C36   C     C_R   0.975606 0.943255 0.536611 -0.138357
C37   C     C_R   0.024394 0.056745 0.463389 -0.138357
C38   C     C_R   0.944866 0.892321 0.444545 0.017183
C39   C     C_R   0.055134 0.107678 0.555455 0.017183
C40   C     C_R   0.969258 0.949876 0.407302 -0.047115
C41   C     C_3   0.077237 0.593583 0.548924 -0.001093
C42   C     C_R   0.030742 0.050124 0.592698 -0.047115
C43   C     C_R   0.603650 0.473419 0.730498 -0.057091
C44   C     C_R   0.396351 0.526580 0.269502 -0.057088
C45   C     C_R   0.551685 0.452919 0.784415 -0.020206
C46   C     C_R   0.448316 0.547079 0.215585 -0.020210
C47   C     C_R   0.110636 0.500519 0.889467 0.506611
C48   C     C_R   0.889364 0.499481 0.110533 0.506610
C49   C     C_R   0.568139 0.536328 0.869010 -0.046952
C50   C     C_R   0.431860 0.463671 0.130990 -0.046957
C51   C     C_R   0.632124 0.639682 0.896797 0.276678
C52   C     C_3   0.446943 0.966068 0.925434 0.203691
C53   C     C_R   0.367874 0.360317 0.103201 0.276683
C54   C     C_R   0.686087 0.659704 0.845511 0.315887
C55   C     C_R   0.313911 0.340295 0.154486 0.315890
C56   C     C_R   0.672837 0.577160 0.762021 -0.046390
C57   C     C_R   0.327162 0.422839 0.237978 -0.046392
C58   C     C_R   0.583032 0.514478 0.990639 0.256460
C59   C     C_R   0.416968 0.485523 0.009362 0.256458
C60   C     C_R   0.550705 0.499019 0.054896 0.043910
C61   C     C_R   0.449295 0.500982 0.945104 0.043912
C62   C     C_R   0.467582 0.482965 0.064343 -0.046470
C63   C     C_3   0.553057 0.033932 0.074566 0.203691
C64   C     C_R   0.532418 0.517035 0.935657 -0.046463
C65   C     C_R   0.165508 0.801322 0.968066 -0.139433
C66   C     C_R   0.834492 0.198677 0.031934 -0.139433
C67   C     C_R   0.135970 0.734238 0.994148 -0.074836
C68   C     C_R   0.864029 0.265762 0.005852 -0.074837
C69   C     C_R   0.049260 0.641542 0.949141 -0.038229
C70   C     C_R   0.950739 0.358457 0.050859 -0.038229
C71   C     C_R   0.392494 0.500123 0.608070 0.550250
C72   C     C_R   0.607505 0.499877 0.391930 0.550249
C73   C     C_R   0.988812 0.618154 0.879382 0.062915
C74   C     C_3   0.551581 0.038527 0.957348 -0.144801
C75   C     C_R   0.011188 0.381845 0.120617 0.062915
C76   C     C_R   0.018094 0.688732 0.855045 0.299961
C77   C     C_R   0.981906 0.311267 0.144954 0.299960
C78   C     C_R   0.108735 0.778593 0.897299 0.006332
C79   C     C_R   0.891265 0.221407 0.102700 0.006332
C80   C     C_R   0.971550 0.565463 0.027949 -0.140790
C81   C     C_R   0.028449 0.434537 0.972050 -0.140790
C82   C     C_R   0.945722 0.498026 0.053887 0.021079
C83   C     C_R   0.054277 0.501974 0.946113 0.021080
C84   C     C_R   0.974787 0.431747 0.025759 -0.049060
C85   C     C_3   0.448418 0.961473 0.042652 -0.144801
C86   C     C_R   0.025213 0.568252 0.974241 -0.049060
C87   C     C_R   0.393855 0.499259 0.887883 0.555279
C88   C     C_R   0.606145 0.500741 0.112117 0.555276
C89   C     C_R   0.109280 0.500447 0.607902 0.548613
C90   C     C_R   0.890720 0.499553 0.392098 0.548612
C91   C     C_3   0.016681 0.429314 0.448564 -0.110387
C92   C     C_3   0.983319 0.570686 0.551436 -0.110386
C93   C     C_3   0.042054 0.523203 0.446305 -0.150243
C94   C     C_3   0.957946 0.476797 0.553695 -0.150242
C95   C     C_3   0.947899 0.498994 0.448847 0.045341
C96   C     C_3   0.549966 0.103723 0.052451 0.022094
C97   C     C_3   0.052101 0.501006 0.551153 0.045340
C98   C     C_2   0.213033 0.132402 0.692448 0.238554
C99   C     C_2   0.786966 0.867599 0.307553 0.238552
C100  C     C_2   0.950820 0.145218 0.869924 0.259501
C101  C     C_2   0.049179 0.854781 0.130075 0.259501
C102  C     C_2   0.728980 0.598921 0.706333 0.226659
C103  C     C_2   0.271019 0.401076 0.293666 0.226656
C104  C     C_2   0.589981 0.386364 0.643531 0.212292
C105  C     C_2   0.410022 0.613635 0.356470 0.212309
C106  C     C_2   0.484044 0.344102 0.754420 0.297705
H1    H     H_    0.076146 0.542446 0.401929 0.160488
H2    H     H_    0.969757 0.629173 0.593577 0.184392
H3    H     H_    0.234342 0.870095 0.001811 0.167897
H4    H     H_    0.765657 0.129905 0.998189 0.167897
H5    H     H_    0.182215 0.752675 0.047752 0.155529
H6    H     H_    0.817784 0.247325 0.952248 0.155528
H7    H     H_    0.949793 0.616567 0.049253 0.161753
H8    H     H_    0.050207 0.383433 0.950747 0.161753
H9    H     H_    0.593081 0.068943 0.921984 0.136624
H10   H     H_    0.406919 0.931056 0.078016 0.136624
H11   H     H_    0.403712 0.371126 0.342638 0.194233
H12   H     H_    0.923854 0.457554 0.598070 0.160490
H13   H     H_    0.596288 0.628874 0.657362 0.194234
H14   H     H_    0.404585 0.549813 0.472863 0.141336
H15   H     H_    0.595414 0.450186 0.527137 0.141343
H16   H     H_    0.194236 0.268345 0.989727 0.358196
H17   H     H_    0.805764 0.731660 0.010274 0.358193
H18   H     H_    0.197317 0.099754 0.621938 0.116935
H19   H     H_    0.802683 0.900248 0.378063 0.116937
H20   H     H_    0.967880 0.178338 0.940512 0.158021
H21   H     H_    0.032119 0.821662 0.059488 0.158022
H22   H     H_    0.741831 0.543670 0.659921 0.130181
H23   H     H_    0.237139 0.220452 0.868034 0.185598
H24   H     H_    0.258167 0.456327 0.340077 0.130180
H25   H     H_    0.647197 0.385047 0.627711 0.134464
H26   H     H_    0.352806 0.614949 0.372294 0.134455
H27   H     H_    0.435073 0.287108 0.688014 0.185998
H28   H     H_    0.564939 0.712884 0.311982 0.185994
H29   H     H_    0.601239 0.702313 0.003020 0.338100
H30   H     H_    0.398758 0.297686 0.996977 0.338103
H31   H     H_    0.808411 0.765917 0.868011 0.363090
H32   H     H_    0.191587 0.234083 0.131988 0.363090
H33   H     H_    0.678525 0.530937 0.933865 0.336602
H34   H     H_    0.762861 0.779550 0.131967 0.185595
H35   H     H_    0.321481 0.469075 0.066142 0.336608
H36   H     H_    0.209835 0.925660 0.911794 0.166461
H37   H     H_    0.790165 0.074339 0.088206 0.166461
H38   H     H_    0.875573 0.464288 0.848602 0.106623
H39   H     H_    0.124427 0.535713 0.151399 0.106622
H40   H     H_    0.970600 0.734694 0.805342 0.357708
H41   H     H_    0.029400 0.265305 0.194657 0.357708
H42   H     H_    0.828804 0.240936 0.404902 0.120547
H43   H     H_    0.171195 0.759064 0.595097 0.120546
H44   H     H_    0.404325 0.991429 0.850767 0.334822
H45   H     H_    0.929004 0.066746 0.695447 0.175173
H46   H     H_    0.595675 0.008571 0.149233 0.334823
H47   H     H_    0.397933 0.100530 0.010183 0.350669
H48   H     H_    0.602067 0.899470 0.989817 0.350670
H49   H     H_    0.592554 0.734565 0.579102 0.353749
H50   H     H_    0.407442 0.265434 0.420894 0.353749
H51   H     H_    0.070995 0.933252 0.304553 0.175172
H52   H     H_    0.957307 0.899899 0.565777 0.168018
H53   H     H_    0.042692 0.100101 0.434223 0.168017
H54   H     H_    0.030243 0.370827 0.406423 0.184391
O1    O     O_3   0.251620 0.500000 0.748430 -0.471903
O2    O     O_R   0.570330 0.268390 0.136490 -0.516710
O3    O     O_R   0.134680 0.268390 0.572240 -0.539617
O4    O     O_R   0.865320 0.731610 0.427760 -0.539617
O5    O     O_R   0.306670 0.731630 0.863510 -0.510650
O6    O     O_R   0.693330 0.268370 0.136490 -0.510650
O7    O     O_R   0.135450 0.439270 0.865360 -0.537177
O8    O     O_R   0.864550 0.560730 0.134640 -0.537176
O9    O     O_R   0.429670 0.560710 0.692610 -0.545633
O10   O     O_R   0.570330 0.439290 0.307390 -0.545634
O11   O     O_R   0.308540 0.439240 0.865360 -0.481872
O12   O     O_3   0.748380 0.500000 0.251570 -0.471903
O13   O     O_R   0.691460 0.560760 0.134640 -0.481873
O14   O     O_R   0.133580 0.439310 0.571150 -0.550849
O15   O     O_R   0.866420 0.560690 0.428850 -0.550848
O16   O     O_R   0.430770 0.560690 0.864590 -0.559479
O17   O     O_R   0.569230 0.439310 0.135410 -0.559478
O18   O     O_R   0.133580 0.560760 0.692610 -0.493342
O19   O     O_R   0.866420 0.439240 0.307390 -0.493343
O20   O     O_3   0.129880 0.238539 0.965243 -0.711372
O21   O     O_3   0.870119 0.761463 0.034757 -0.711376
O22   O     O_2   0.286454 0.162821 0.733335 -0.471884
O23   O     O_R   0.134680 0.560740 0.864590 -0.551761
O24   O     O_2   0.713545 0.837178 0.266665 -0.471890
O25   O     O_2   0.874479 0.107201 0.828384 -0.510588
O26   O     O_2   0.125519 0.892796 0.171616 -0.510590
O27   O     O_2   0.759930 0.678001 0.709791 -0.472734
O28   O     O_2   0.240070 0.321997 0.290208 -0.472735
O29   O     O_2   0.514936 0.316455 0.587965 -0.488643
O30   O     O_2   0.485068 0.683548 0.412033 -0.488642
O31   O     O_2   0.483528 0.316489 0.803036 -0.452637
O32   O     O_2   0.516467 0.683513 0.196971 -0.452634
O33   O     O_3   0.649344 0.724439 0.977426 -0.648981
O34   O     O_R   0.865320 0.439260 0.135410 -0.551761
O35   O     O_3   0.350652 0.275560 0.022571 -0.648980
O36   O     O_3   0.754106 0.762042 0.881555 -0.587029
O37   O     O_3   0.245891 0.237957 0.118442 -0.587029
O38   O     O_3   0.662617 0.522500 0.981869 -0.655741
O39   O     O_3   0.337384 0.477501 0.018131 -0.655744
O40   O     O_2   0.116776 0.818725 0.791918 -0.476884
O41   O     O_2   0.883225 0.181275 0.208081 -0.476884
O42   O     O_2   0.840208 0.499526 0.775397 -0.472600
O43   O     O_2   0.159794 0.500470 0.224598 -0.472597
O44   O     O_3   0.957403 0.668079 0.790319 -0.629818
O45   O     O_R   0.306670 0.439270 0.571150 -0.498808
O46   O     O_3   0.042597 0.331920 0.209679 -0.629818
O47   O     O_2   0.775609 0.278171 0.345309 -0.424987
O48   O     O_2   0.224391 0.721829 0.654691 -0.424988
O49   O     O_3   0.389076 0.928921 0.847002 -0.617035
O50   O     O_3   0.610924 0.071079 0.152998 -0.617035
O51   O     O_3   0.388304 0.062994 0.037921 -0.655416
O52   O     O_3   0.611696 0.937006 0.962079 -0.655416
O53   O     O_3   0.606827 0.690041 0.532020 -0.615030
O54   O     O_3   0.393173 0.309959 0.467980 -0.615029
O55   O     O_R   0.693330 0.560730 0.428850 -0.498808
O56   O     O_R   0.135450 0.268370 0.694460 -0.549298
O57   O     O_R   0.864550 0.731630 0.305540 -0.549298
O58   O     O_R   0.429670 0.731610 0.863510 -0.516710
Zn1   Zn    Zn3+2 0.207400 0.586780 0.791530 0.990240
Zn2   Zn    Zn3+2 0.792600 0.413220 0.208470 0.990240
Zn3   Zn    Zn3+2 0.208510 0.413230 0.792630 0.966458
Zn4   Zn    Zn3+2 0.791490 0.586770 0.207370 0.966457
Zn5   Zn    Zn3+2 0.383150 0.586740 0.791530 0.987214
Zn6   Zn    Zn3+2 0.616850 0.413260 0.208470 0.987211
Zn7   Zn    Zn3+2 0.207400 0.413250 0.618010 0.983443
Zn8   Zn    Zn3+2 0.792600 0.586750 0.381990 0.983443

loop_
_geom_bond_atom_site_label_1
_geom_bond_atom_site_label_2
_ccdc_geom_bond_type
C15   C18   S    
C66   C68   A    
C10   C85   S    
C43   C104  S    
O16   Zn5   S    
O4    Zn8   S    
O19   Zn2   S    
H41   O46   S    
O1    Zn5   S    
C34   O20   S    
C43   C56   A    
C16   C72   S    
C10   C52   S    
C60   C88   S    
H33   O38   S    
C90   C95   S    
C99   H19   S    
O9    Zn5   S    
C44   C105  S    
H16   O20   S    
C22   C35   A    
C9    H43   S    
O15   Zn8   S    
C21   C25   A    
C33   C101  S    
C89   O14   A    
O12   Zn6   S    
C38   C40   A    
O14   Zn7   S    
C76   C78   A    
C6    O42   D    
C37   C40   A    
C52   C74   S    
H29   O33   S    
C24   C96   S    
C5    O41   D    
C5    H37   S    
C27   C29   A    
C28   C40   S    
C58   C60   A    
C11   C63   S    
C22   H34   S    
C17   C20   S    
C47   O7    A    
C2    C85   S    
C60   C62   A    
C68   H6    S    
H49   O53   S    
C39   C42   A    
O56   Zn3   S    
O7    Zn3   S    
C7    O43   D    
C61   C87   S    
C3    H28   S    
C81   C83   A    
C12   H14   S    
O12   Zn8   S    
C92   H2    S    
C106  H27   S    
C41   C93   S    
C59   O39   S    
C65   C67   A    
C104  H25   S    
O1    Zn3   S    
C12   C17   S    
H48   O52   S    
C31   C33   A    
C69   C73   A    
C19   O57   A    
C14   C16   S    
C47   C83   S    
C5    C79   S    
C70   C84   S    
C4    O40   D    
O12   Zn2   S    
C36   H52   S    
C26   C99   S    
C77   C79   A    
C21   H23   S    
C23   O58   A    
C93   C95   S    
C49   C64   S    
C23   O5    A    
C63   C85   S    
C66   C79   A    
C8    H42   S    
C106  O31   D    
O13   Zn4   S    
O11   Zn3   S    
C44   C46   A    
C105  H26   S    
O1    Zn7   S    
C53   C55   A    
C58   C64   A    
C57   C103  S    
C54   C56   A    
C59   C61   A    
C50   C53   A    
C54   O36   S    
C72   O10   A    
C101  H21   S    
H44   O49   S    
C74   C96   S    
O18   Zn1   S    
O58   Zn5   S    
H30   O35   S    
C80   C82   A    
C51   O33   S    
O8    Zn4   S    
C29   H45   S    
H47   O51   S    
O5    Zn1   S    
C30   C94   S    
C7    C75   S    
C21   C34   A    
C94   C97   S    
C49   C51   A    
C63   C96   S    
C9    O48   D    
C92   C95   S    
C91   C97   S    
C88   O13   A    
C32   C100  S    
C89   C97   S    
C67   C69   A    
C32   C34   A    
C98   O22   D    
C8    O47   D    
C98   H18   S    
C28   C31   A    
C4    C78   S    
C30   C95   S    
C87   O16   A    
C19   C38   S    
C14   C20   S    
C11   O52   S    
C91   C93   S    
C13   H15   S    
C41   C92   S    
C10   O51   S    
C48   O8    A    
C13   C15   S    
C10   C96   S    
C44   C57   A    
C14   H11   S    
C87   O11   A    
C83   C86   A    
C1    O56   A    
C92   C94   S    
C45   C49   A    
C99   O24   D    
C89   O18   A    
C66   H4    S    
H40   O44   S    
O45   Zn7   S    
C43   C45   A    
C65   H3    S    
C91   H54   S    
C31   H51   S    
C2    C52   S    
O10   Zn6   S    
C47   O23   A    
O2    Zn6   S    
C71   O9    A    
C17   C71   S    
C82   C84   A    
C55   C57   A    
H50   O54   S    
C52   O49   S    
C53   O35   S    
C73   C76   A    
C100  H20   S    
C13   C16   S    
C18   O53   S    
C35   O21   S    
C63   O50   S    
C6    H38   S    
C101  O26   D    
O6    Zn2   S    
C2    C23   S    
C81   C84   A    
C45   C106  S    
C6    C73   S    
C48   C82   S    
C67   H5    S    
O57   Zn4   S    
C15   C17   S    
H46   O50   S    
C90   O19   A    
C58   O38   S    
C59   C62   A    
O23   Zn1   S    
C65   C78   A    
C13   C20   S    
C48   O34   A    
C26   C28   A    
C105  O30   D    
C85   H10   S    
C24   O2    A    
C103  O28   D    
C12   C14   S    
C30   C91   S    
C11   C74   S    
C36   C42   A    
O34   Zn2   S    
C76   O44   S    
C9    C41   S    
C25   C27   A    
C46   C50   A    
C3    C46   S    
C80   C86   A    
C102  O27   D    
C51   C54   A    
C8    C30   S    
O55   Zn8   S    
O1    Zn1   S    
C100  O25   D    
C56   C102  S    
C29   C32   A    
C37   C39   A    
C77   O46   S    
C93   H1    S    
C61   C64   A    
C4    H36   S    
C94   H12   S    
C27   C42   S    
C37   H53   S    
C55   O37   S    
C3    O32   D    
C50   C62   S    
C74   H9    S    
C90   O15   A    
C36   C38   A    
C33   C35   A    
C88   O17   A    
C15   H13   S    
C41   C97   S    
C19   O4    A    
O17   Zn6   S    
C24   O6    A    
C103  H24   S    
H31   O36   S    
O12   Zn4   S    
C1    C39   S    
H32   O37   S    
C25   C98   S    
C71   O45   A    
C72   O55   A    
C80   H7    S    
C1    O3    A    
C16   C18   S    
C22   C26   A    
C75   C77   A    
C12   C18   S    
C70   C75   A    
C68   C70   A    
H17   O21   S    
C2    C11   S    
H35   O39   S    
O3    Zn7   S    
C102  H22   S    
C104  O29   D    
C69   C86   S    
C20   O54   S    
C7    H39   S    
C81   H8    S    
