data_mof_unit_23342.cif
_audit_creation_date              2012-12-10T17:10:14-0500
_audit_creation_method            fapswitch 2.2
_symmetry_space_group_name_H-M    P1
_symmetry_Int_Tables_number       1
_space_group_crystal_system       triclinic
_cell_length_a                    15.659789
_cell_length_b                    10.370157
_cell_length_c                    10.214606
_cell_angle_alpha                 92.365944
_cell_angle_beta                  91.516939
_cell_angle_gamma                 91.453489
_cell_volume                      1656.21922751

loop_
_atom_site_label
_atom_site_type_symbol
_atom_type_description
_atom_site_fract_x
_atom_site_fract_y
_atom_site_fract_z
_atom_type_partial_charge
C1    C     C_R   0.499892 0.260634 0.497338 0.925575
C2    C     C_2   0.435851 0.856454 0.503443 -0.103950
C3    C     C_2   0.435088 0.065686 0.405454 -0.203675
C4    C     C_R   0.338383 0.498459 0.498362 0.867935
C5    C     C_2   0.492743 0.122609 0.489240 -0.359085
C6    C     C_2   0.533090 0.590672 0.933054 0.052709
C7    C     C_2   0.555644 0.558736 0.073030 0.190363
C8    C     C_R   0.480175 0.732593 0.500797 0.883283
C9    C     C_R   0.661613 0.500668 0.501599 0.910826
C10   C     C_3   0.971304 0.401059 0.571010 -0.197068
C11   C     C_3   0.022894 0.386753 0.444143 -0.190792
C12   C     C_3   0.082907 0.497010 0.496883 0.104178
C13   C     C_1   0.249356 0.496442 0.494833 -0.201057
C14   C     C_1   0.750728 0.501807 0.505086 -0.211746
C15   C     C_3   0.032581 0.511547 0.623399 0.103601
C16   C     C_3   0.540637 0.727464 0.886745 -0.325366
C17   C     C_3   0.568020 0.836125 0.987949 -0.427270
C18   C     C_3   0.532490 0.965888 0.950355 -0.901744
C19   C     C_3   0.645289 0.592888 0.123689 -0.380269
C20   C     C_3   0.699712 0.471784 0.133048 -0.307405
C21   C     C_3   0.730115 0.423528 0.999104 -0.897792
C22   C     C_3   0.431186 0.422193 0.079933 -0.286267
C23   C     C_3   0.977531 0.613545 0.557824 0.102369
C24   C     C_3   0.356816 0.370684 0.158213 -0.281094
C25   C     C_3   0.300724 0.274213 0.074726 -1.015609
C26   C     C_3   0.067825 0.699793 0.344845 -0.428450
C27   C     C_3   0.000175 0.782688 0.280773 -0.346850
C28   C     C_3   0.040512 0.873533 0.184647 -0.882826
C29   C     C_3   0.942202 0.737581 0.620132 -0.426540
C30   C     C_3   0.012868 0.835198 0.666388 -0.353169
C31   C     C_3   0.975183 0.956026 0.729797 -0.897313
C32   C     C_3   0.076216 0.514051 0.759435 -0.415648
C33   C     C_3   0.011532 0.521603 0.869215 -0.349594
C34   C     C_3   0.917275 0.502817 0.504964 0.119217
C35   C     C_3   0.055357 0.506625 0.002528 -0.892080
C36   C     C_3   0.399068 0.866872 0.259535 -0.396983
C37   C     C_3   0.308622 0.807343 0.260113 -0.339649
C38   C     C_3   0.280969 0.755200 0.123265 -0.893639
C39   C     C_3   0.392518 0.901218 0.629454 -0.423518
C40   C     C_3   0.296799 0.924598 0.606379 -0.331271
C41   C     C_3   0.253415 0.958219 0.735009 -0.909644
C42   C     C_3   0.028214 0.597889 0.430777 0.110638
C43   C     C_3   0.966897 0.487725 0.377725 -0.203574
C44   C     C_1   0.173918 0.495480 0.494127 -0.090849
C45   C     C_1   0.826224 0.502587 0.506234 -0.086225
C46   C     C_2   0.426322 0.925161 0.393741 0.127779
H1    H     H_    0.043865 0.294642 0.397662 0.146745
H2    H     H_    0.515350 0.408923 0.875193 0.165658
H3    H     H_    0.674753 0.395655 0.932951 0.267390
H4    H     H_    0.769371 0.499451 0.953618 0.257615
H5    H     H_    0.769952 0.337531 0.011179 0.244470
H6    H     H_    0.756855 0.495852 0.197136 0.208496
H7    H     H_    0.663194 0.392076 0.177250 0.247426
H8    H     H_    0.678622 0.657469 0.057017 0.177337
H9    H     H_    0.642977 0.647961 0.218690 0.200730
H10   H     H_    0.275291 0.320072 0.985844 0.277587
H11   H     H_    0.337801 0.188454 0.044657 0.267750
H12   H     H_    0.532603 0.068083 0.554443 0.136534
H13   H     H_    0.245926 0.241175 0.132755 0.263902
H14   H     H_    0.379963 0.318336 0.242933 0.265227
H15   H     H_    0.314723 0.451426 0.185750 0.247636
H16   H     H_    0.397158 0.479667 0.006678 0.178116
H17   H     H_    0.460079 0.333969 0.036940 0.171901
H18   H     H_    0.945408 0.320827 0.628157 0.139436
H19   H     H_    0.936161 0.477428 0.278618 0.132062
H20   H     H_    0.090116 0.937198 0.235614 0.259666
H21   H     H_    0.069988 0.817397 0.103469 0.266543
H22   H     H_    0.990562 0.934754 0.142198 0.247138
H23   H     H_    0.554485 0.991195 0.851900 0.262093
H24   H     H_    0.951278 0.719856 0.227003 0.219658
H25   H     H_    0.967980 0.841421 0.357092 0.223182
H26   H     H_    0.114226 0.761751 0.404479 0.186214
H27   H     H_    0.103730 0.648359 0.267334 0.212616
H28   H     H_    0.932821 0.003485 0.658431 0.260274
H29   H     H_    0.938026 0.930654 0.816684 0.262264
H30   H     H_    0.027501 0.025288 0.762196 0.248673
H31   H     H_    0.056086 0.791841 0.739127 0.227523
H32   H     H_    0.051120 0.864122 0.582144 0.224504
H33   H     H_    0.899321 0.781932 0.547362 0.195499
H34   H     H_    0.461494 0.961921 0.949379 0.257575
H35   H     H_    0.902627 0.711749 0.704222 0.197371
H36   H     H_    0.083771 0.409834 0.007758 0.265410
H37   H     H_    0.106316 0.582023 0.019773 0.258348
H38   H     H_    0.007814 0.517394 0.080433 0.249234
H39   H     H_    0.980197 0.616332 0.870004 0.225268
H40   H     H_    0.961552 0.444078 0.853519 0.223013
H41   H     H_    0.112891 0.424146 0.767145 0.212185
H42   H     H_    0.122394 0.597103 0.769631 0.194781
H43   H     H_    0.278424 0.834980 0.054088 0.259257
H44   H     H_    0.326231 0.682085 0.087007 0.263055
H45   H     H_    0.555253 0.042569 0.023046 0.257037
H46   H     H_    0.216621 0.709100 0.126652 0.242351
H47   H     H_    0.306433 0.727189 0.328778 0.229207
H48   H     H_    0.262996 0.881575 0.293194 0.210712
H49   H     H_    0.399729 0.943553 0.186477 0.196525
H50   H     H_    0.443491 0.794465 0.222761 0.229425
H51   H     H_    0.256709 0.876100 0.801278 0.257889
H52   H     H_    0.284693 0.045180 0.784393 0.269984
H53   H     H_    0.185258 0.978763 0.714783 0.252741
H54   H     H_    0.287911 0.005426 0.539718 0.231475
H55   H     H_    0.265050 0.836250 0.560265 0.206267
H56   H     H_    0.546174 0.814979 0.086658 0.227283
H57   H     H_    0.396085 0.825760 0.701973 0.214093
H58   H     H_    0.424406 0.989110 0.675088 0.215757
H59   H     H_    0.396885 0.122431 0.340141 0.151311
H60   H     H_    0.638749 0.847071 0.992546 0.216364
H61   H     H_    0.586733 0.729359 0.806181 0.225089
H62   H     H_    0.476142 0.748804 0.849244 0.217813
N1    N     N_2   0.500900 0.501330 0.852150 -0.241497
N2    N     N_2   0.500930 0.501360 0.147810 -0.102622
O1    O     O_R   0.499990 0.319060 0.613040 -0.609476
O2    O     O_R   0.500010 0.319100 0.386900 -0.616907
O3    O     O_R   0.376760 0.499970 0.613050 -0.598213
O4    O     O_R   0.376790 0.500010 0.386910 -0.646899
O5    O     O_R   0.499990 0.680900 0.613100 -0.636108
O6    O     O_R   0.500010 0.680940 0.386960 -0.622089
O7    O     O_R   0.623210 0.499990 0.613090 -0.602655
O8    O     O_R   0.623240 0.500030 0.386950 -0.625136
Zn1   Zn    Zn3+2 0.499980 0.499970 0.650990 0.909022
Zn2   Zn    Zn3+2 0.500020 0.500030 0.349010 0.903432

loop_
_geom_bond_atom_site_label_1
_geom_bond_atom_site_label_2
_ccdc_geom_bond_type
C24   H15   S    
C26   H26   S    
C11   H1    S    
C19   C20   S    
C25   H10   S    
C17   H56   S    
C21   H3    S    
C39   H58   S    
C3    H59   S    
C38   H43   S    
C26   C42   S    
C26   C27   S    
C37   C38   S    
C23   C42   S    
C8    O6    A    
C5    H12   S    
C1    C5    S    
C18   H45   S    
C23   C29   S    
C4    O4    A    
C36   C37   S    
C28   H22   S    
C10   C15   S    
O7    Zn1   S    
C1    O2    A    
C30   C31   S    
C32   H42   S    
C38   H46   S    
C26   H27   S    
C9    O7    A    
O1    Zn1   S    
C4    C13   S    
C33   H39   S    
C12   C42   S    
C16   H61   S    
C40   H55   S    
O3    Zn1   S    
C30   H31   S    
C2    C39   S    
C16   C17   S    
C22   N2    S    
C41   H53   S    
C36   C46   S    
C8    O5    A    
C43   H19   S    
C18   H23   S    
C15   C23   S    
H2    N1    S    
C22   H17   S    
C9    O8    A    
C25   H11   S    
C21   H4    S    
C35   H36   S    
C14   C45   T    
C10   H18   S    
C4    O3    A    
C15   C32   S    
C28   H21   S    
C24   C25   S    
N2    Zn2   S    
C39   C40   S    
O2    Zn2   S    
C35   H37   S    
C31   H28   S    
C32   H41   S    
C2    C46   D    
O6    Zn2   S    
C28   H20   S    
C9    C14   S    
C29   H35   S    
C29   C30   S    
C22   H16   S    
C36   H50   S    
C31   H29   S    
C29   H33   S    
C12   C15   S    
C24   H14   S    
C23   C34   S    
C17   C18   S    
C37   H47   S    
C10   C34   S    
C34   C45   S    
C11   C43   S    
C27   H24   S    
C19   H8    S    
C40   C41   S    
C7    C19   S    
C6    N1    D    
C22   C24   S    
C42   C43   S    
C21   H5    S    
C27   H25   S    
N1    Zn1   S    
C19   H9    S    
C2    C8    S    
C34   C43   S    
C20   H7    S    
C3    C5    D    
C40   H54   S    
C35   H38   S    
C39   H57   S    
C6    C7    S    
C38   H44   S    
C3    C46   S    
O5    Zn1   S    
C7    N2    D    
C20   H6    S    
C32   C33   S    
C12   C44   S    
C17   H60   S    
C1    O1    A    
C36   H49   S    
C31   H30   S    
C33   C35   S    
C37   H48   S    
C41   H51   S    
C13   C44   T    
O8    Zn2   S    
C10   C11   S    
C16   H62   S    
C6    C16   S    
C30   H32   S    
C20   C21   S    
C18   H34   S    
C27   C28   S    
C41   H52   S    
C25   H13   S    
C33   H40   S    
O4    Zn2   S    
C11   C12   S    
