data_mof_unit_8685.cif
_audit_creation_date              2012-12-10T18:03:17-0500
_audit_creation_method            fapswitch 2.2
_symmetry_space_group_name_H-M    P1
_symmetry_Int_Tables_number       1
_space_group_crystal_system       triclinic
_cell_length_a                    10.925198
_cell_length_b                    9.528461
_cell_length_c                    15.132216
_cell_angle_alpha                 90.01627
_cell_angle_beta                  90.222932
_cell_angle_gamma                 89.793901
_cell_volume                      1575.24640152

loop_
_atom_site_label
_atom_site_type_symbol
_atom_type_description
_atom_site_fract_x
_atom_site_fract_y
_atom_site_fract_z
_atom_type_partial_charge
C1    C     C_R   0.261679 0.500310 0.499718 0.915036
C2    C     C_R   0.737615 0.499863 0.499948 0.972051
C3    C     C_R   0.500048 0.499981 0.329961 0.802520
C4    C     C_R   0.500303 0.499996 0.670041 0.814422
C5    C     C_R   0.460526 0.074301 0.427816 0.084069
C6    C     C_R   0.540556 0.925584 0.571901 0.026847
C7    C     C_R   0.539766 0.074053 0.572113 0.063701
C8    C     C_R   0.460168 0.925876 0.427914 0.066382
C9    C     C_R   0.060848 0.372861 0.501187 0.224450
C10   C     C_R   0.935668 0.621747 0.474494 0.285424
C11   C     C_R   0.937555 0.378738 0.523850 0.316876
C12   C     C_R   0.059534 0.628774 0.496820 0.288361
C13   C     C_R   0.465113 0.620168 0.095029 -0.150211
C14   C     C_R   0.465487 0.379740 0.904710 -0.153744
C15   C     C_R   0.539340 0.619591 0.904771 -0.151706
C16   C     C_R   0.539098 0.379761 0.095530 -0.154899
C17   C     C_R   0.465200 0.620515 0.186869 -0.175647
C18   C     C_R   0.465712 0.379485 0.812869 -0.171812
C19   C     C_R   0.537798 0.620015 0.812928 -0.152428
C20   C     C_R   0.537418 0.379444 0.187363 -0.154085
C21   C     C_R   0.500810 0.499954 0.233509 -0.009385
C22   C     C_R   0.501214 0.499878 0.766501 -0.005117
C23   C     C_R   0.502422 0.499922 0.048595 0.102261
C24   C     C_R   0.502584 0.499691 0.951427 0.102430
C25   C     C_R   0.871048 0.500003 0.499480 -0.384667
C26   C     C_R   0.126965 0.500873 0.499303 -0.396510
Cu1   Cu    Cu3+1 0.500000 0.640660 0.500000 1.040407
Cu2   Cu    Cu3+1 0.500000 0.359340 0.500000 1.054400
H1    H     H_    0.434306 0.713338 0.060418 0.134885
H2    H     H_    0.434688 0.286764 0.939087 0.134582
H3    H     H_    0.570522 0.712536 0.939210 0.132915
H4    H     H_    0.570372 0.286542 0.061329 0.133441
H5    H     H_    0.435711 0.714334 0.221295 0.147021
H6    H     H_    0.436367 0.285895 0.778206 0.152481
H7    H     H_    0.566757 0.713611 0.778321 0.142924
H8    H     H_    0.566333 0.285640 0.222208 0.151871
N1    N     N_R   0.500000 0.852070 0.500000 -0.167780
N2    N     N_R   0.500000 0.147930 0.500000 -0.169142
O1    O     O_R   0.319640 0.618740 0.499990 -0.525383
O2    O     O_R   0.680360 0.381260 0.500010 -0.529681
O3    O     O_R   0.680360 0.618740 0.500010 -0.532172
O4    O     O_R   0.319640 0.381260 0.499990 -0.516686
O5    O     O_R   0.499990 0.618780 0.371460 -0.598475
O6    O     O_R   0.500010 0.381220 0.628540 -0.594966
O7    O     O_R   0.500010 0.618780 0.628540 -0.601706
O8    O     O_R   0.499990 0.381220 0.371460 -0.600725
H9    H     H_    0.428741 0.129390 0.369717 0.155318
H10   H     H_    0.574252 0.870287 0.629426 0.121307
H11   H     H_    0.572395 0.129037 0.629952 0.128575
H12   H     H_    0.427107 0.870836 0.370186 0.124429
S1    S     S_3+6 0.118893 0.211351 0.459210 0.116003
O9    O     O_2   0.194134 0.139961 0.529459 -0.197200
O10   O     O_2   0.016085 0.116373 0.431816 -0.142278
O11   O     O_3   0.206447 0.241179 0.370024 -0.542024
H13   H     H_    0.154053 0.297107 0.329598 0.332892
S2    S     S_3+6 0.871727 0.751862 0.402951 0.083565
O12   O     O_2   0.803242 0.859508 0.456140 -0.207990
O13   O     O_2   0.971245 0.823277 0.351722 -0.208191
O14   O     O_3   0.775045 0.675428 0.330898 -0.560183
H14   H     H_    0.731614 0.754169 0.301547 0.364947
S3    S     S_3+6 0.877187 0.246682 0.594430 0.077653
O15   O     O_2   0.810613 0.138776 0.540396 -0.210392
O16   O     O_2   0.979279 0.176473 0.644745 -0.218184
O17   O     O_3   0.779904 0.319926 0.667150 -0.568145
H15   H     H_    0.755933 0.242440 0.707040 0.356289
S4    S     S_3+6 0.118224 0.793179 0.533097 0.122841
O18   O     O_2   0.188470 0.859226 0.458884 -0.225378
O19   O     O_2   0.015308 0.888853 0.559875 -0.139106
O20   O     O_3   0.210498 0.770871 0.621368 -0.529918
H16   H     H_    0.253715 0.861455 0.628316 0.372340

loop_
_geom_bond_atom_site_label_1
_geom_bond_atom_site_label_2
_ccdc_geom_bond_type
S3    O17   S    
S4    O19   D    
C23   C24   S    
C15   H3    S    
C6    C7    A    
C8    H12   S    
C7    H11   S    
C16   H4    S    
C4    C22   S    
C9    C11   A    
C14   C18   A    
C3    O8    A    
C9    S1    S    
S2    O14   S    
C13   C17   A    
C16   C20   A    
S1    O11   S    
C3    O5    A    
O17   H15   S    
Cu1   O7    S    
S4    O18   D    
C6    N1    A    
C14   H2    S    
O14   H14   S    
C17   H5    S    
C19   H7    S    
C5    N2    A    
C20   C21   A    
C15   C19   A    
C5    H9    S    
Cu2   O8    S    
C2    C25   S    
S3    O15   D    
C6    H10   S    
Cu1   N1    S    
C10   C12   A    
C10   C25   A    
Cu2   O4    S    
C15   C24   A    
C7    N2    A    
S2    O13   D    
C9    C26   A    
C16   C23   A    
C4    O7    A    
C18   H6    S    
C1    C26   S    
O20   H16   S    
C3    C21   S    
S4    O20   S    
C8    N1    A    
C1    O1    A    
C2    O3    A    
Cu1   O1    S    
S1    O9    D    
C20   H8    S    
C11   C25   A    
C2    O2    A    
C1    O4    A    
C19   C22   A    
C10   S2    S    
S2    O12   D    
C13   C23   A    
C5    C8    A    
C14   C24   A    
Cu1   Cu2   S    
S3    O16   D    
Cu1   O5    S    
Cu2   O2    S    
O11   H13   S    
C4    O6    A    
S1    O10   D    
Cu2   N2    S    
C18   C22   A    
C12   S4    S    
Cu2   O6    S    
C17   C21   A    
C13   H1    S    
C12   C26   A    
Cu1   O3    S    
C11   S3    S    
