data_mof_unit_6283.cif
_audit_creation_date              2012-12-11T17:12:48-0500
_audit_creation_method            fapswitch 2.2
_symmetry_space_group_name_H-M    P1
_symmetry_Int_Tables_number       1
_space_group_crystal_system       triclinic
_cell_length_a                    17.225875
_cell_length_b                    6.888772
_cell_length_c                    14.378533
_cell_angle_alpha                 90.007618
_cell_angle_beta                  110.138363
_cell_angle_gamma                 89.991418
_cell_volume                      1601.91819279

loop_
_atom_site_label
_atom_site_type_symbol
_atom_type_description
_atom_site_fract_x
_atom_site_fract_y
_atom_site_fract_z
_atom_type_partial_charge
O1    O     O_R   0.314130 0.635770 0.168990 -0.538354
O2    O     O_R   0.685870 0.364230 0.831010 -0.527538
O3    O     O_R   0.185870 0.135770 0.331010 -0.538608
O4    O     O_R   0.814130 0.864230 0.668990 -0.528080
O5    O     O_R   0.146800 0.302460 0.139760 -0.531052
O6    O     O_R   0.853200 0.697540 0.860240 -0.523838
O7    O     O_R   0.353200 0.802460 0.360240 -0.531077
O8    O     O_R   0.646800 0.197540 0.639760 -0.524015
C1    C     C_R   0.114032 0.475837 0.112784 0.759079
C2    C     C_R   0.885968 0.524172 0.887215 0.765471
C3    C     C_R   0.385969 0.975831 0.387215 0.759644
C4    C     C_R   0.614032 0.024177 0.612785 0.766470
O9    O     O_R   0.311100 0.305780 0.157130 -0.534019
O10   O     O_R   0.688900 0.694220 0.842870 -0.534997
O11   O     O_R   0.188900 0.805780 0.342870 -0.534149
O12   O     O_R   0.811100 0.194220 0.657130 -0.535351
O13   O     O_R   0.351340 0.139640 0.348510 -0.538761
O14   O     O_R   0.648660 0.860360 0.651490 -0.546910
O15   O     O_R   0.148660 0.639640 0.151490 -0.538624
O16   O     O_R   0.851340 0.360360 0.848510 -0.546811
C5    C     C_R   0.333354 0.474603 0.136831 0.861660
C6    C     C_R   0.666371 0.525609 0.863140 0.846183
C7    C     C_R   0.166624 0.974640 0.363145 0.861691
C8    C     C_R   0.833640 0.025569 0.636890 0.846857
C9    C     C_1   0.533584 0.008947 0.533056 -0.056439
C10   C     C_1   0.466410 0.991093 0.466958 -0.056199
C11   C     C_1   0.966416 0.508940 0.966943 -0.056350
C12   C     C_1   0.033591 0.491103 0.033042 -0.056216
O17   O     O_3   0.263010 0.470920 0.312770 -0.373995
O18   O     O_3   0.736990 0.529080 0.687230 -0.371396
O19   O     O_3   0.236990 0.970920 0.187230 -0.373729
O20   O     O_3   0.763010 0.029080 0.812770 -0.370713
V1    V     V_3+5 0.247590 0.194450 0.238360 1.632027
V2    V     V_3+5 0.752410 0.805550 0.761640 1.650605
V3    V     V_3+5 0.252410 0.694450 0.261640 1.631798
V4    V     V_3+5 0.747590 0.305550 0.738360 1.650054
C13   C     C_R   0.116410 0.983782 0.427900 -0.298610
C14   C     C_R   0.883991 0.020244 0.571797 -0.286387
C15   C     C_R   0.383545 0.483577 0.072052 -0.298553
C16   C     C_R   0.615999 0.520527 0.928234 -0.285645
C17   C     C_R   0.899662 0.105503 0.414798 0.473619
C18   C     C_R   0.107037 0.959811 0.592446 0.476497
C19   C     C_R   0.599646 0.609781 0.084406 0.473099
C20   C     C_R   0.393201 0.455486 0.907780 0.476397
C21   C     C_R   0.851348 0.097131 0.475867 0.273559
C22   C     C_R   0.154479 0.960027 0.530199 0.269326
C23   C     C_R   0.648132 0.600450 0.023572 0.274173
C24   C     C_R   0.345693 0.456352 0.969949 0.269578
C25   C     C_R   0.966958 0.958318 0.609244 0.372925
C26   C     C_R   0.030937 0.018943 0.386945 0.369002
C27   C     C_R   0.533358 0.456120 0.891190 0.373413
C28   C     C_R   0.468799 0.521564 0.112786 0.369647
C29   C     C_R   0.019350 0.982767 0.551801 -0.194335
C30   C     C_R   0.982704 0.035897 0.449686 -0.186357
C31   C     C_R   0.480751 0.481154 0.948326 -0.193987
C32   C     C_R   0.517002 0.537737 0.049989 -0.185500
Cl1   Cl    Cl    0.985988 0.006891 0.255871 -0.514483
Cl2   Cl    Cl    0.998935 0.831062 0.723564 -0.534519
Cl3   Cl    Cl    0.513761 0.513613 0.243947 -0.514575
Cl4   Cl    Cl    0.502109 0.325338 0.777908 -0.534581
Cl5   Cl    Cl    0.263275 0.929962 0.580684 -0.467315
Cl6   Cl    Cl    0.747233 0.178317 0.430213 -0.454035
Cl7   Cl    Cl    0.237078 0.422877 0.919597 -0.466681
Cl8   Cl    Cl    0.751869 0.684274 0.068888 -0.453045
Cl9   Cl    Cl    0.857223 0.236423 0.302455 -0.352661
Cl10  Cl    Cl    0.162903 0.963666 0.721543 -0.330186
Cl11  Cl    Cl    0.641155 0.744918 0.195541 -0.353190
Cl12  Cl    Cl    0.337403 0.455051 0.778644 -0.330908

loop_
_geom_bond_atom_site_label_1
_geom_bond_atom_site_label_2
_ccdc_geom_bond_type
C2    C11   S    
O10   V2    S    
C16   C23   A    
C8    C14   S    
C31   C32   A    
O19   V1    S    
O2    C6    A    
C28   Cl3   S    
C16   C27   A    
O17   V3    S    
O3    C7    A    
C19   C32   A    
C5    C15   S    
O18   V4    S    
C4    C9    S    
O8    C4    A    
C6    C16   S    
O10   C6    A    
O11   C7    A    
C15   C28   A    
C9    C10   T    
O9    C5    A    
O12   C8    A    
C14   C25   A    
O15   V3    S    
C29   C30   A    
O12   V4    S    
O1    C5    A    
C13   C26   A    
O14   V2    S    
C20   C31   A    
O7    V3    S    
O5    C1    A    
C26   C30   A    
C28   C32   A    
C25   C29   A    
O20   V4    S    
O19   V3    S    
O11   V3    S    
O7    C3    A    
C27   C31   A    
O5    V1    S    
C18   C29   A    
C18   C22   A    
O4    C8    A    
O4    V2    S    
C17   C30   A    
C20   Cl12  S    
O6    C2    A    
O18   V2    S    
C22   Cl5   S    
O2    V4    S    
O16   V4    S    
O17   V1    S    
C21   Cl6   S    
C11   C12   T    
C20   C24   A    
O1    V3    S    
C19   Cl11  S    
O9    V1    S    
O8    V4    S    
C4    O14   A    
C23   Cl8   S    
C18   Cl10  S    
C17   C21   A    
O3    V1    S    
C3    O13   A    
C14   C21   A    
C17   Cl9   S    
C27   Cl4   S    
C3    C10   S    
O13   V1    S    
C13   C22   A    
C7    C13   S    
C26   Cl1   S    
C19   C23   A    
C1    O15   A    
C25   Cl2   S    
O6    V2    S    
C1    C12   S    
C2    O16   A    
C15   C24   A    
C24   Cl7   S    
O20   V2    S    
