data_mof_unit_9364.cif
_audit_creation_date              2012-12-11T17:00:23-0500
_audit_creation_method            fapswitch 2.2
_symmetry_space_group_name_H-M    P1
_symmetry_Int_Tables_number       1
_space_group_crystal_system       triclinic
_cell_length_a                    6.958162
_cell_length_b                    13.651506
_cell_length_c                    20.235261
_cell_angle_alpha                 103.056669
_cell_angle_beta                  90.038665
_cell_angle_gamma                 90.469138
_cell_volume                      1872.37327896

loop_
_atom_site_label
_atom_site_type_symbol
_atom_type_description
_atom_site_fract_x
_atom_site_fract_y
_atom_site_fract_z
_atom_type_partial_charge
O1    O     O_R   0.506770 0.599700 0.449550 -0.543440
O2    O     O_R   0.179980 0.595740 0.587960 -0.512443
O3    O     O_R   0.004580 0.400300 0.550450 -0.541302
C1    C     C_R   0.348530 0.618225 0.614869 0.762957
O4    O     O_R   0.177380 0.611700 0.452380 -0.540227
O5    O     O_R   0.001970 0.416370 0.413900 -0.504308
C2    C     C_R   0.346574 0.637979 0.435486 0.732046
O6    O     O_R   0.509390 0.583630 0.586100 -0.548612
O7    O     O_3   0.337530 0.435890 0.487530 -0.365569
V1    V     V_3+5 0.064660 0.511890 0.502310 1.621388
O8    O     O_R   0.671950 0.404260 0.412040 -0.543338
C3    C     C_R   0.840549 0.383816 0.384387 0.767212
O9    O     O_R   0.674540 0.388300 0.547620 -0.550878
C4    C     C_R   0.843300 0.361588 0.563915 0.771594
V2    V     V_3+5 0.564030 0.488110 0.497690 1.558851
O10   O     O_3   0.841030 0.564110 0.512470 -0.373200
C5    C     C_R   0.887458 0.111322 0.608730 0.000456
H1    H     H_    0.873984 0.163395 0.516092 0.137719
H2    H     H_    0.899001 0.986021 0.693793 0.195275
C6    C     C_R   0.852315 0.285080 0.603745 -0.125578
C7    C     C_R   0.826368 0.316733 0.931487 -0.076593
C8    C     C_R   0.791358 0.389560 0.895006 -0.138468
C9    C     C_R   0.793365 0.365225 0.824490 -0.057922
C10   C     C_R   0.839089 0.267146 0.787435 0.025789
C11   C     C_R   0.860681 0.190528 0.824570 -0.049908
C12   C     C_R   0.854663 0.241649 0.714768 -0.039513
C13   C     C_R   0.875760 0.138675 0.680534 -0.066077
C14   C     C_R   0.885964 0.064840 0.718374 -0.207018
C15   C     C_R   0.879315 0.089617 0.788515 0.541036
C16   C     C_R   0.855705 0.314489 0.674498 0.544422
C17   C     C_R   0.868706 0.184386 0.571082 -0.303951
C18   C     C_R   0.857222 0.216542 0.896868 -0.128814
H3    H     H_    0.749296 0.424532 0.801003 0.200567
H4    H     H_    0.758080 0.465838 0.921347 0.157755
C19   C     C_R   0.707999 0.184214 0.226691 0.111800
C20   C     C_R   0.864707 0.186009 0.183429 -0.176224
C21   C     C_R   0.016982 0.252812 0.208006 -0.239500
H5    H     H_    0.137108 0.259283 0.175361 0.155784
C22   C     C_R   0.009307 0.317365 0.272948 0.718321
C23   C     C_R   0.851870 0.314549 0.316345 -0.278918
C24   C     C_R   0.703631 0.246014 0.292161 -0.067879
C25   C     C_3   0.498891 0.271398 0.285372 0.529118
C26   C     C_3   0.502858 0.206614 0.214256 -0.391737
H6    H     H_    0.478500 0.352789 0.288163 0.148868
H7    H     H_    0.488005 0.250570 0.174489 0.136767
H8    H     H_    0.405598 0.140440 0.207777 0.242741
C27   C     C_R   0.489755 0.673870 0.731969 0.000299
C28   C     C_R   0.352211 0.685024 0.683755 -0.179364
C29   C     C_R   0.205104 0.755886 0.705411 0.602676
C30   C     C_R   0.204930 0.816567 0.771727 -0.254541
H9    H     H_    0.094345 0.872097 0.785534 0.213825
C31   C     C_R   0.354281 0.811256 0.817638 -0.161847
C32   C     C_R   0.492218 0.736315 0.796884 0.083815
C33   C     C_3   0.706207 0.743429 0.797950 -0.237898
C34   C     C_3   0.703610 0.674629 0.727239 -0.380999
H10   H     H_    0.761328 0.820507 0.799631 0.195982
H11   H     H_    0.764831 0.598810 0.724081 0.229104
H12   H     H_    0.753118 0.712259 0.687046 0.241644
C35   C     C_R   0.504806 0.875926 0.387123 -0.144678
H13   H     H_    0.575040 0.993889 0.302774 0.170690
H14   H     H_    0.574599 0.946723 0.410405 0.127861
C36   C     C_R   0.362341 0.717907 0.397724 -0.159551
C37   C     C_R   0.312610 0.684926 0.071088 -0.163083
C38   C     C_R   0.306269 0.609501 0.107245 -0.172948
C39   C     C_R   0.333001 0.631992 0.177253 0.646915
C40   C     C_R   0.360382 0.732737 0.213851 -0.129425
C41   C     C_R   0.393341 0.807700 0.176028 -0.112730
C42   C     C_R   0.374408 0.759776 0.286382 0.048990
C43   C     C_R   0.463560 0.852599 0.317488 0.023526
C44   C     C_R   0.509265 0.922238 0.279086 -0.214194
C45   C     C_R   0.469134 0.902062 0.210152 0.580804
C46   C     C_R   0.300319 0.699854 0.329701 -0.056712
C47   C     C_R   0.462409 0.807193 0.426601 -0.052583
C48   C     C_R   0.357460 0.784466 0.104797 -0.125553
H15   H     H_    0.285325 0.531749 0.080737 0.161877
O11   O     O_R   0.203450 0.916320 0.913910 -0.527736
O12   O     O_R   0.535520 0.888300 0.047620 -0.518295
O13   O     O_R   0.710860 0.083650 0.086100 -0.514878
C49   C     C_R   0.366727 0.862598 0.065108 0.828452
O14   O     O_R   0.532860 0.904250 0.912040 -0.542445
O15   O     O_R   0.708190 0.099710 0.949550 -0.537522
C50   C     C_R   0.364133 0.882236 0.884937 0.745151
O16   O     O_R   0.206120 0.900260 0.050460 -0.549773
O17   O     O_3   0.375280 0.064080 0.012470 -0.384028
V3    V     V_3+5 0.648180 0.988110 0.997690 1.568945
O18   O     O_R   0.038220 0.111740 0.952370 -0.540188
C51   C     C_R   0.869198 0.139126 0.936617 0.817325
O19   O     O_R   0.040880 0.095790 0.087940 -0.557716
C52   C     C_R   0.872229 0.118421 0.114809 0.773924
V4    V     V_3+5 0.148800 0.011950 0.002300 1.520510
O20   O     O_3   0.871820 0.935920 0.987530 -0.368586
F1    F     F_    0.147281 0.388843 0.290880 -0.665573
F2    F     F_    0.383544 0.231537 0.328668 -0.657220
F3    F     F_    0.069954 0.772473 0.660937 -0.692526
C53   C     C_1   0.789023 0.696687 0.850037 0.390410
N1    N     N_1   0.853708 0.660022 0.891189 -0.338902
C54   C     C_1   0.510718 0.832121 0.497966 0.336465
N2    N     N_1   0.547598 0.851603 0.555250 -0.322792
C55   C     C_1   0.134706 0.634749 0.309722 0.453032
N3    N     N_1   0.000745 0.583980 0.294014 -0.279982
C56   C     C_1   0.288343 0.656997 0.998256 0.320387
N4    N     N_1   0.270115 0.634598 0.939919 -0.332407
F4    F     F_    0.355908 0.553085 0.206938 -0.669255
F5    F     F_    0.521146 0.973192 0.176694 -0.720178
C57   C     C_1   0.926800 0.009604 0.572116 0.349633
N5    N     N_1   0.960084 0.928506 0.542745 -0.305512
F6    F     F_    0.876523 0.414242 0.701704 -0.743489
C58   C     C_1   0.821622 0.345665 0.004794 0.263760
N6    N     N_1   0.817854 0.368728 0.063446 -0.335440
F7    F     F_    0.884452 0.012307 0.820241 -0.734503

loop_
_geom_bond_atom_site_label_1
_geom_bond_atom_site_label_2
_ccdc_geom_bond_type
C20   C52   S    
C40   C42   A    
C45   F5    S    
C56   N4    T    
C16   F6    S    
C25   F2    S    
C24   C25   S    
C53   N1    T    
C37   C56   S    
C54   N2    T    
V3    O20   S    
C6    C16   A    
C32   C33   S    
C47   C54   S    
C12   C13   A    
C21   H5    S    
O17   V4    S    
C14   C15   A    
C10   C12   A    
O5    C3    A    
V2    O10   S    
C58   N6    T    
O8    V2    S    
C19   C20   A    
C42   C43   A    
C9    H3    S    
C30   C31   A    
C9    C10   A    
C36   C47   A    
C44   C45   A    
O1    V2    S    
C29   F3    S    
C19   C26   S    
O7    V1    S    
C35   C47   A    
C1    O6    A    
C27   C32   A    
C11   C18   A    
C40   C41   A    
O12   V3    S    
O9    C4    A    
C25   H6    S    
O12   C49   A    
O13   C52   A    
C11   C15   A    
C8    H4    S    
C7    C18   A    
C33   H10   S    
C35   H14   S    
C5    C13   A    
C4    C6    S    
C15   F7    S    
C10   C11   A    
O14   C50   A    
O18   V4    S    
O11   C50   A    
C22   C23   A    
O4    C2    A    
O18   C51   A    
C18   C51   S    
C3    C23   S    
O2    C1    A    
C2    C36   S    
O14   V3    S    
C5    C57   S    
C27   C28   A    
H13   C44   S    
C42   C46   A    
C30   H9    S    
C36   C46   A    
C41   C48   A    
O17   V3    S    
C31   C50   S    
H2    C14   S    
C26   H7    S    
C33   C53   S    
O15   C51   A    
O3    C4    A    
C35   C43   A    
O13   V3    S    
C23   C24   A    
O19   V4    S    
C12   C16   A    
O6    V2    S    
C48   C49   S    
C34   H11   S    
C5    C17   A    
C25   C26   S    
C39   F4    S    
O2    V1    S    
C22   F1    S    
C31   C32   A    
C27   C34   S    
C1    C28   S    
O16   V4    S    
C33   C34   S    
C20   C21   A    
O1    C2    A    
O5    V1    S    
O8    C3    A    
C37   C48   A    
C57   N5    T    
C55   N3    T    
C38   C39   A    
O9    V2    S    
O7    V2    S    
O4    V1    S    
C21   C22   A    
O3    V1    S    
V1    O10   S    
C49   O16   A    
V4    O20   S    
C28   C29   A    
C38   H15   S    
C41   C45   A    
C39   C40   A    
C43   C44   A    
C19   C24   A    
C26   H8    S    
C7    C58   S    
C37   C38   A    
O19   C52   A    
C29   C30   A    
C34   H12   S    
C13   C14   A    
C8    C9    A    
H1    C17   S    
C7    C8    A    
C6    C17   A    
O15   V3    S    
O11   V4    S    
C46   C55   S    
