data_mof_unit_49414.cif
_audit_creation_date              2012-12-11T18:13:12-0500
_audit_creation_method            fapswitch 2.2
_symmetry_space_group_name_H-M    P1
_symmetry_Int_Tables_number       1
_space_group_crystal_system       triclinic
_cell_length_a                    8.177096
_cell_length_b                    12.657282
_cell_length_c                    18.696225
_cell_angle_alpha                 99.451663
_cell_angle_beta                  91.124803
_cell_angle_gamma                 98.58507
_cell_volume                      1885.465007

loop_
_atom_site_label
_atom_site_type_symbol
_atom_type_description
_atom_site_fract_x
_atom_site_fract_y
_atom_site_fract_z
_atom_type_partial_charge
Ba1   Ba    Ba6+2 0.852780 0.548340 0.465070 1.637507
Ba2   Ba    Ba6+2 0.337060 0.451750 0.534940 1.634202
C1    C     C_3   0.598632 0.904332 0.253275 -0.400860
C2    C     C_3   0.640263 0.820999 0.297873 0.349709
C3    C     C_3   0.459939 0.275263 0.313824 0.310069
C4    C     C_3   0.433400 0.237694 0.232353 -0.401826
C5    C     C_3   0.061553 0.238899 0.735448 0.368022
C6    C     C_3   0.081195 0.215297 0.812084 -0.365544
C7    C     C_3   0.558507 0.178575 0.702168 0.346480
C8    C     C_3   0.612594 0.100530 0.748344 -0.417147
C9    C     C_R   0.992858 0.448820 0.048251 0.008197
C10   C     C_R   0.891653 0.395102 0.095530 0.033728
C11   C     C_R   0.728610 0.348400 0.072526 -0.083168
C12   C     C_3   0.139630 0.763214 0.264439 0.354419
C13   C     C_R   0.666881 0.354068 0.003215 -0.089454
C14   C     C_R   0.767894 0.404904 0.954989 0.031873
C15   C     C_R   0.931417 0.452776 0.977434 0.015850
C16   C     C_R   0.708298 0.406606 0.884428 -0.110360
C17   C     C_R   0.811184 0.452536 0.834179 -0.043339
C18   C     C_R   0.974415 0.503776 0.857083 -0.004829
C19   C     C_R   0.033458 0.503932 0.929093 -0.006556
C20   C     C_R   0.757360 0.446504 0.761145 -0.005568
C21   C     C_R   0.866388 0.487294 0.711931 -0.298094
C22   C     C_R   0.023964 0.543980 0.734001 0.045387
C23   C     C_3   0.160700 0.799382 0.190599 -0.276576
C24   C     C_R   0.079042 0.554090 0.808143 -0.044884
C25   C     C_R   0.155727 0.497150 0.071344 -0.007066
C26   C     C_R   0.215426 0.496255 0.143093 -0.005104
C27   C     C_R   0.110912 0.445766 0.191965 -0.045178
C28   C     C_R   0.953284 0.390063 0.165389 -0.040816
C29   C     C_R   0.236363 0.610226 0.834795 -0.041081
C30   C     C_R   0.297680 0.605650 0.904801 0.035065
C31   C     C_R   0.196218 0.552403 0.952220 0.007946
C32   C     C_R   0.257784 0.548231 0.022987 0.014420
C33   C     C_R   0.460982 0.651803 0.927675 -0.086349
C34   C     C_3   0.235479 0.787408 0.619426 0.279206
C35   C     C_R   0.523014 0.645488 0.996803 -0.090257
C36   C     C_R   0.421909 0.594987 0.045144 0.031091
C37   C     C_R   0.379427 0.546186 0.165716 -0.049461
C38   C     C_R   0.482214 0.592041 0.115410 -0.110417
C39   C     C_R   0.434216 0.550774 0.238487 -0.005089
C40   C     C_R   0.326059 0.508659 0.287541 -0.293464
C41   C     C_R   0.166822 0.454642 0.265868 0.045292
C42   C     C_R   0.764846 0.182484 0.528613 -0.278144
C43   C     C_R   0.428418 0.807096 0.469337 -0.285594
C44   C     C_R   0.402259 0.984247 0.444061 -0.106158
C45   C     C_3   0.252217 0.910072 0.635568 -0.350227
C46   C     C_R   0.337500 0.875714 0.440094 -0.011301
C47   C     C_R   0.577866 0.847968 0.508801 0.067886
C48   C     C_R   0.642594 0.960129 0.516447 -0.059586
C49   C     C_R   0.554097 0.028239 0.482198 -0.061924
C50   C     C_R   0.617781 0.139330 0.488527 0.045660
C51   C     C_R   0.856589 0.116245 0.559473 -0.014414
C52   C     C_R   0.793583 0.006395 0.555852 -0.094729
C53   C     C_3   0.962843 0.212223 0.381292 0.277168
C54   C     C_3   0.960430 0.090598 0.366389 -0.341174
C55   C     C_3   0.729626 0.707913 0.683021 0.314252
C56   C     C_3   0.752338 0.746725 0.764535 -0.404652
H1    H     H_    0.731191 0.861361 0.342525 0.076208
H2    H     H_    0.341814 0.941929 0.682000 0.113827
H3    H     H_    0.296933 0.945231 0.587842 0.082199
H4    H     H_    0.130330 0.934581 0.649366 0.142949
H5    H     H_    0.839122 0.229948 0.395962 -0.000121
H6    H     H_    0.053388 0.246667 0.427090 0.082863
H7    H     H_    0.872588 0.053815 0.320290 0.114162
H8    H     H_    0.920988 0.055055 0.414628 0.088236
H9    H     H_    0.085794 0.072269 0.352700 0.135134
H10   H     H_    0.846353 0.683722 0.662174 0.013066
H11   H     H_    0.628757 0.637408 0.672610 0.065871
H12   H     H_    0.542677 0.968319 0.287830 0.096494
H13   H     H_    0.859314 0.813177 0.776568 0.128657
H14   H     H_    0.775185 0.679412 0.792647 0.058170
H15   H     H_    0.638966 0.777150 0.785565 0.118419
H16   H     H_    0.525106 0.788613 0.322465 -0.056811
H17   H     H_    0.510416 0.863931 0.207840 0.117273
H18   H     H_    0.343220 0.299005 0.335670 0.018461
H19   H     H_    0.559996 0.346386 0.323659 0.059535
H20   H     H_    0.328735 0.169564 0.220865 0.129007
H21   H     H_    0.404620 0.305235 0.205663 0.056615
H22   H     H_    0.547218 0.210088 0.209573 0.119051
H23   H     H_    0.711757 0.941694 0.229581 0.142347
H24   H     H_    0.230719 0.743999 0.155627 0.039337
H25   H     H_    0.142242 0.316354 0.731832 0.094203
H26   H     H_    0.930693 0.247749 0.725365 -0.075741
H27   H     H_    0.212965 0.211731 0.825339 0.150173
H28   H     H_    0.039531 0.280113 0.851635 0.070180
H29   H     H_    0.005546 0.136488 0.816863 0.111880
H30   H     H_    0.669231 0.213402 0.675494 -0.053157
H31   H     H_    0.468136 0.132937 0.658808 0.078650
H32   H     H_    0.705741 0.145136 0.790867 0.114134
H33   H     H_    0.667983 0.036201 0.713812 0.095385
H34   H     H_    0.048692 0.687533 0.259087 0.083756
H35   H     H_    0.504900 0.062633 0.775380 0.130521
H36   H     H_    0.648153 0.308063 0.108362 0.062001
H37   H     H_    0.540405 0.317471 0.987015 0.071286
H38   H     H_    0.824848 0.479139 0.655724 0.070229
H39   H     H_    0.582045 0.369651 0.869042 0.107636
H40   H     H_    0.874448 0.344669 0.199049 0.097027
H41   H     H_    0.315534 0.655111 0.800985 0.096552
H42   H     H_    0.541654 0.691810 0.891776 0.064047
H43   H     H_    0.649980 0.681028 0.012630 0.099460
H44   H     H_    0.609133 0.627504 0.130473 0.125644
H45   H     H_    0.261317 0.745107 0.281938 -0.083937
H46   H     H_    0.368711 0.514867 0.343438 0.071540
H47   H     H_    0.329262 0.033425 0.418884 0.099550
H48   H     H_    0.865912 0.958745 0.582733 0.104068
H49   H     H_    0.813481 0.267615 0.532083 0.064144
H50   H     H_    0.377334 0.722280 0.465232 0.071393
H51   H     H_    0.231216 0.882716 0.197776 0.087878
H52   H     H_    0.356411 0.763850 0.604836 0.007620
H53   H     H_    0.143635 0.757534 0.573398 0.075801
O1    O     O_2   0.873090 0.425890 0.325140 -0.465867
O2    O     O_3   0.689892 0.793213 0.650538 -0.642756
O3    O     O_3   0.086314 0.845809 0.314245 -0.602286
O4    O     O_2   0.316610 0.574140 0.674900 -0.469160
O5    O     O_3   0.067290 0.565720 0.585630 -0.496458
O6    O     O_3   0.530210 0.372990 0.631200 -0.465325
O7    O     O_3   0.185960 0.747015 0.682041 -0.639045
O8    O     O_3   0.611340 0.366290 0.463630 -0.477054
O9    O     O_3   0.108550 0.314140 0.595200 -0.484627
O10   O     O_2   0.197212 0.121285 0.552476 -0.482545
O11   O     O_3   0.107481 0.153477 0.685921 -0.597959
O12   O     O_3   0.122420 0.434370 0.414380 -0.495768
O13   O     O_3   0.578370 0.633800 0.536380 -0.488658
O14   O     O_2   0.341510 0.231850 0.465510 -0.468517
O15   O     O_3   0.504079 0.189959 0.345490 -0.650652
O16   O     O_2   0.415991 0.453052 0.756843 -0.497559
O17   O     O_3   0.481183 0.255992 0.746417 -0.596162
O18   O     O_3   0.659500 0.627100 0.368810 -0.474102
O19   O     O_2   0.775276 0.545477 0.243942 -0.494375
O20   O     O_3   0.003941 0.253078 0.317938 -0.640065
O21   O     O_3   0.711101 0.741640 0.252494 -0.582226
O22   O     O_2   0.848200 0.768190 0.534530 -0.473719
O23   O     O_3   0.081160 0.685950 0.404810 -0.481103
O24   O     O_2   0.998810 0.879146 0.448896 -0.488062
P1    P     P_3+3 0.041040 0.394770 0.336330 0.972674
P2    P     P_3+3 0.672880 0.754030 0.556100 0.969528
P3    P     P_3+3 0.126363 0.823694 0.402606 0.954094
P4    P     P_3+3 0.148670 0.605320 0.663680 0.971367
P5    P     P_3+3 0.066361 0.175098 0.597665 0.950824
P6    P     P_3+3 0.644078 0.613966 0.274866 0.956369
P7    P     P_3+3 0.522214 0.230223 0.439761 0.934154
P8    P     P_3+3 0.546727 0.384637 0.725062 0.950525
C57   C     C_1   0.001267 0.798692 0.153181 0.340417
N1    N     N_1   0.876391 0.798504 0.122957 -0.301815

loop_
_geom_bond_atom_site_label_1
_geom_bond_atom_site_label_2
_ccdc_geom_bond_type
O24   P3    D    
C5    H25   S    
C53   C54   S    
O22   P2    D    
C47   P2    S    
O12   P1    S    
C51   P5    S    
C39   C40   A    
C17   C18   A    
C45   H4    S    
O6    P8    S    
C12   H45   S    
C5    C6    S    
C37   C39   A    
C51   C52   A    
C48   C52   A    
Ba2   P4    S    
O10   P5    D    
C26   C27   A    
C33   C35   A    
C22   C24   A    
C6    H27   S    
Ba1   O18   S    
C7    H30   S    
C13   H37   S    
C3    C4    S    
C56   H13   S    
C42   H49   S    
O18   P6    S    
C54   H7    S    
C44   H47   S    
C21   H38   S    
C34   C45   S    
Ba1   Ba2   S    
Ba1   O8    S    
O19   P6    D    
C45   H2    S    
Ba2   O5    S    
C42   C51   A    
C14   C15   A    
C53   H5    S    
C20   P8    S    
C1    H23   S    
C21   C22   A    
O9    P5    S    
C16   H39   S    
C29   H41   S    
Ba1   P1    S    
C1    H17   S    
C7    C8    S    
C2    H16   S    
C43   H50   S    
C23   H51   S    
O5    P4    S    
C42   C50   A    
C5    H26   S    
C24   C29   A    
C22   P4    S    
C36   C38   A    
C27   C41   A    
O1    P1    D    
Ba1   O22   S    
C4    H21   S    
Ba2   O6    S    
C48   C49   A    
C25   C32   A    
C44   C46   A    
C7    O17   S    
C52   H48   S    
C49   C50   A    
C30   C33   A    
O13   P2    S    
C17   C20   A    
C2    O21   S    
O20   P1    S    
C7    H31   S    
C37   C38   A    
Ba2   O9    S    
C16   C17   A    
C55   O2    S    
C26   C37   A    
Ba2   O12   S    
C38   H44   S    
C44   C49   A    
O15   P7    S    
C50   P7    S    
C1    C2    S    
C3    O15   S    
Ba1   O12   S    
C39   P6    S    
C35   C36   A    
Ba2   O4    S    
C4    H22   S    
C29   C30   A    
C9    C25   A    
O14   P7    D    
Ba2   O8    S    
C53   H6    S    
C1    H12   S    
C34   H53   S    
C31   C32   A    
O16   P8    D    
C10   C11   A    
C12   H34   S    
Ba1   O5    S    
O4    P4    D    
C8    H33   S    
C53   O20   S    
C11   C13   A    
C34   H52   S    
C23   H24   S    
O2    P2    S    
C23   C57   S    
C40   C41   A    
C5    O11   S    
C3    H19   S    
O7    P4    S    
Ba1   O23   S    
Ba1   P2    S    
C43   C46   A    
O21   P6    S    
C9    C15   A    
C10   C28   A    
C32   C36   A    
C57   N1    T    
C40   H46   S    
C45   H3    S    
C9    C10   A    
Ba2   O13   S    
O23   P3    S    
C54   H9    S    
C28   H40   S    
C8    H35   S    
C46   P3    S    
C11   H36   S    
C6    H29   S    
C30   C31   A    
C3    H18   S    
Ba1   O13   S    
O11   P5    S    
Ba1   O1    S    
C12   O3    S    
C35   H43   S    
C56   H14   S    
C55   C56   S    
C18   C24   A    
C54   H8    S    
C33   H42   S    
C2    H1    S    
C43   C47   A    
C6    H28   S    
O3    P3    S    
C12   C23   S    
C41   P1    S    
O17   P8    S    
C15   C19   A    
C4    H20   S    
C27   C28   A    
Ba2   O14   S    
C19   C31   A    
C18   C19   A    
C8    H32   S    
C14   C16   A    
C47   C48   A    
C25   C26   A    
O8    P7    S    
C20   C21   A    
C34   O7    S    
C55   H10   S    
C55   H11   S    
C13   C14   A    
C56   H15   S    
