data_mof_unit_8033.cif
_audit_creation_date              2013-03-05T16:32:07-0500
_audit_creation_method            fapswitch 2.2
_symmetry_space_group_name_H-M    P1
_symmetry_Int_Tables_number       1
_space_group_crystal_system       triclinic
_cell_length_a                    10.741905
_cell_length_b                    10.81023
_cell_length_c                    9.571276
_cell_angle_alpha                 89.811674
_cell_angle_beta                  89.818903
_cell_angle_gamma                 90.431573
_cell_volume                      1111.39697725

loop_
_atom_site_label
_atom_site_type_symbol
_atom_site_description
_atom_site_fract_x
_atom_site_fract_y
_atom_site_fract_z
_atom_type_partial_charge
O1    O     O_R   0.500000 0.319640 0.618810 -0.526332
O2    O     O_R   0.500010 0.319680 0.381230 -0.573533
C1    C     C_R   0.497074 0.262495 0.500242 0.832040
O3    O     O_R   0.317690 0.499960 0.618790 -0.563656
O4    O     O_R   0.317700 0.500000 0.381210 -0.600948
C2    C     C_R   0.260009 0.501340 0.500270 0.737548
Cu1   Cu    Cu3+1 0.499990 0.499980 0.640670 0.977863
Cu2   Cu    Cu3+1 0.500010 0.500020 0.359330 0.985792
O5    O     O_R   0.499990 0.680320 0.618770 -0.583093
O6    O     O_R   0.500000 0.680360 0.381190 -0.541175
O7    O     O_R   0.682300 0.500000 0.618790 -0.599712
O8    O     O_R   0.682310 0.500040 0.381210 -0.544817
C3    C     C_R   0.496220 0.737654 0.499556 0.805596
C4    C     C_R   0.740247 0.501663 0.500165 0.741652
C5    C     C_3   0.071542 0.511227 0.652534 -0.345230
H1    H     H_    0.107009 0.596918 0.703575 0.169783
H2    H     H_    0.103892 0.431346 0.715368 0.174285
C6    C     C_3   0.929150 0.511964 0.652576 -0.375423
H3    H     H_    0.894144 0.432997 0.716950 0.187290
H4    H     H_    0.897479 0.599742 0.700887 0.168069
H5    H     H_    0.109690 0.702428 0.463364 0.131087
H6    H     H_    0.896785 0.703177 0.468159 0.135866
C7    C     C_3   0.073487 0.615084 0.416975 -0.374041
C8    C     C_3   0.071498 0.382128 0.433807 -0.384092
C9    C     C_3   0.122205 0.502501 0.500881 0.148264
H7    H     H_    0.105224 0.374282 0.324092 0.185941
H8    H     H_    0.106163 0.300106 0.492140 0.146046
C10   C     C_3   0.878549 0.502810 0.501166 0.135702
C11   C     C_3   0.929730 0.616188 0.418834 -0.361778
C12   C     C_3   0.927954 0.381800 0.435324 -0.341723
H9    H     H_    0.893279 0.300553 0.496145 0.139148
H10   H     H_    0.893115 0.371215 0.327033 0.244031
H11   H     H_    0.106942 0.611165 0.306886 0.193238
H12   H     H_    0.894497 0.616353 0.310331 0.211406
C13   C     C_R   0.488988 0.063108 0.625431 0.136793
C14   C     C_R   0.482486 0.129593 0.500784 -0.167051
C15   C     C_R   0.455658 0.066170 0.376631 -0.306094
H13   H     H_    0.442614 0.115950 0.279545 0.178644
C16   C     C_R   0.452449 0.936826 0.374935 0.416783
C17   C     C_R   0.480873 0.870863 0.498853 -0.203327
C18   C     C_R   0.488460 0.935927 0.624409 0.047716
C19   C     C_3   0.582476 0.928756 0.738817 -0.459393
C20   C     C_3   0.583296 0.069202 0.739600 -0.407106
H14   H     H_    0.542778 0.887552 0.835942 0.208479
H15   H     H_    0.672113 0.888417 0.703465 0.188313
H16   H     H_    0.544579 0.108974 0.837291 0.226916
H17   H     H_    0.673293 0.110490 0.704473 0.186543
C21   C     C_R   0.568404 0.584846 0.072352 0.188304
N1    N     N_R   0.500800 0.500930 0.147930 -0.184649
C22   C     C_R   0.426516 0.420511 0.075716 -0.155694
H18   H     H_    0.372398 0.355108 0.136295 0.145457
C23   C     C_R   0.425393 0.419312 0.924826 0.562642
N2    N     N_R   0.500800 0.500890 0.852020 -0.206754
C24   C     C_R   0.563184 0.589415 0.925652 0.095823
C25   C     C_3   0.698367 0.617107 0.913021 -0.506720
C26   C     C_3   0.707570 0.601961 0.069859 0.161297
H19   H     H_    0.748122 0.544118 0.855636 0.239618
H20   H     H_    0.717009 0.713104 0.876498 0.155646
H21   H     H_    0.739963 0.686105 0.125878 0.081761
O9    O     O_3   0.435105 0.876914 0.249047 -0.560964
C27   C     C_3   0.305994 0.866176 0.224688 0.083966
H22   H     H_    0.262705 0.959057 0.214823 0.131068
H23   H     H_    0.259334 0.813820 0.310779 0.122592
C28   C     C_3   0.284571 0.796237 0.089126 -0.780311
H24   H     H_    0.321438 0.700926 0.098291 0.245503
H25   H     H_    0.183281 0.790651 0.066933 0.198506
H26   H     H_    0.332099 0.844698 0.001168 0.241662
O10   O     O_3   0.359438 0.332159 0.846556 -0.557198
C29   C     C_3   0.254361 0.279263 0.914125 0.028679
H27   H     H_    0.181741 0.263984 0.833785 0.170001
H28   H     H_    0.210500 0.340570 0.993135 0.128377
C30   C     C_3   0.285715 0.152227 0.973780 -0.848793
H29   H     H_    0.366409 0.157676 0.045400 0.240930
H30   H     H_    0.203987 0.114597 0.031632 0.212550
H31   H     H_    0.308999 0.087836 0.887515 0.253755
N3    N     N_R   0.779760 0.490758 0.102894 0.127185
O11   O     O_R   0.899954 0.494672 0.085840 -0.435590
O12   O     O_R   0.725803 0.383272 0.118159 -0.360955

loop_
_geom_bond_atom_site_label_1
_geom_bond_atom_site_label_2
_geom_bond_distance
_ccdc_geom_bond_type
C5    C6    1.529643 S    
C25   C26   1.513132 S    
C26   N3    1.469532 S    
H6    C11   1.113233 S    
C29   C30   1.525911 S    
C18   C19   1.494201 S    
C13   C14   1.392983 A    
C8    H8    1.113372 S    
C21   C26   1.505032 S    
Cu1   Cu2   2.692780 S    
N2    C24   1.363569 A    
C21   C24   1.406118 A    
C7    C11   1.544398 S    
C10   C11   1.551196 S    
N3    O12   1.302161 A    
C30   H31   1.110816 S    
C12   H9    1.113272 S    
O7    C4    1.293108 A    
C5    C9    1.551980 S    
C2    C9    1.480416 S    
C5    H1    1.113894 S    
Cu1   O5    1.960069 S    
C6    H3    1.113550 S    
C27   H23   1.113813 S    
O5    C3    1.297596 A    
C3    C17   1.450647 S    
O10   C29   1.415101 S    
C7    H11   1.113257 S    
C22   C23   1.444402 A    
C13   C20   1.493708 S    
C23   O10   1.395968 S    
C29   H27   1.108953 S    
C19   H14   1.111911 S    
O3    Cu1   1.970072 S    
H5    C7    1.112756 S    
C29   H28   1.113024 S    
C28   H26   1.110942 S    
C6    C10   1.552579 S    
N3    O11   1.301227 A    
C30   H30   1.110349 S    
C16   C17   1.417196 A    
C11   H12   1.106451 S    
O9    C27   1.411072 S    
O1    C1    1.294223 A    
C19   H15   1.112208 S    
C28   H25   1.110478 S    
C27   C28   1.521117 S    
Cu1   O7    1.968863 S    
C15   H13   1.082298 S    
Cu2   O8    1.970071 S    
C22   H18   1.078426 S    
C8    C9    1.548918 S    
O3    C2    1.294382 A    
C17   C18   1.396721 A    
O8    C4    1.299375 A    
C25   H19   1.103284 S    
C19   C20   1.518258 S    
Cu1   N2    2.022992 S    
C23   N2    1.378786 A    
C5    H2    1.109303 S    
C24   C25   1.484921 S    
C21   N1    1.362352 A    
O1    Cu1   1.961397 S    
Cu2   O6    1.961397 S    
O2    Cu2   1.960067 S    
C8    H7    1.113471 S    
C30   H29   1.108138 S    
O6    C3    1.293622 A    
O4    Cu2   1.968862 S    
C26   H21   1.111569 S    
C28   H24   1.109900 S    
C10   C12   1.550407 S    
O2    C1    1.294423 A    
C15   C16   1.398552 A    
C12   H10   1.109067 S    
O4    C2    1.295618 A    
C1    C14   1.444041 S    
C16   O9    1.382281 S    
C6    H4    1.112075 S    
C7    C9    1.551083 S    
C27   H22   1.113544 S    
C13   C18   1.374893 A    
C20   H16   1.111293 S    
C8    C12   1.541936 S    
C14   C15   1.403470 A    
N1    C22   1.366457 A    
C25   H20   1.110522 S    
C4    C10   1.485653 S    
C20   H17   1.112332 S    
Cu2   N1    2.023351 S    
