data_mof_unit_22233.cif
_audit_creation_date              2012-12-11T20:41:12-0500
_audit_creation_method            fapswitch 2.2
_symmetry_space_group_name_H-M    P1
_symmetry_Int_Tables_number       1
_space_group_crystal_system       triclinic
_cell_length_a                    8.241646
_cell_length_b                    18.9271
_cell_length_c                    26.961618
_cell_angle_alpha                 97.491048
_cell_angle_beta                  92.433859
_cell_angle_gamma                 86.441148
_cell_volume                      4159.30713008

loop_
_atom_site_label
_atom_site_type_symbol
_atom_type_description
_atom_site_fract_x
_atom_site_fract_y
_atom_site_fract_z
_atom_type_partial_charge
Ba1   Ba    Ba6+2 0.852670 0.466460 0.522850 1.659056
Ba2   Ba    Ba6+2 0.337150 0.533490 0.477140 1.646759
C1    C     C_3   0.572404 0.224339 0.665027 -0.358032
C2    C     C_3   0.575165 0.294500 0.643304 0.370350
C3    C     C_3   0.511979 0.642659 0.631062 0.299986
C4    C     C_3   0.482681 0.670620 0.685666 -0.365443
C5    C     C_3   0.972487 0.697900 0.349587 0.276695
C6    C     C_3   0.924357 0.731499 0.302462 -0.338414
C7    C     C_3   0.458381 0.712828 0.344803 0.472538
C8    C     C_3   0.378331 0.739355 0.298092 -0.303430
C9    C     C_R   0.995540 0.436624 0.175874 0.588277
C10   C     C_R   0.912742 0.560868 0.180471 0.589102
C11   C     C_2   0.738043 0.515056 0.270099 -0.071005
C12   C     C_3   0.115886 0.268333 0.650645 0.317972
C13   C     C_3   0.695111 0.510042 0.323951 -0.050945
C14   C     C_1   0.981801 0.485147 0.341843 0.036578
C15   C     C_2   0.021391 0.482724 0.294264 -0.096816
C16   C     C_2   0.893532 0.499770 0.255356 0.214206
C17   C     C_R   0.016592 0.498048 0.102094 -0.079433
C18   C     C_R   0.035830 0.435199 0.125100 -0.034178
C19   C     C_R   0.089482 0.371711 0.096264 -0.059486
C20   C     C_R   0.953090 0.561103 0.129941 -0.032019
C21   C     C_2   0.844677 0.517207 0.357989 -0.271544
C22   C     C_2   0.347901 0.481541 0.641288 -0.277997
C23   C     C_3   0.038955 0.248433 0.696771 -0.345575
C24   C     C_R   0.186365 0.435953 0.974438 -0.000062
C25   C     C_R   0.057520 0.557477 0.975166 0.027091
C26   C     C_R   0.139151 0.496056 0.949153 0.032073
C27   C     C_R   0.291850 0.381143 0.948982 0.120678
C28   C     C_R   0.321777 0.380907 0.898271 -0.033671
C29   C     C_R   0.263188 0.436657 0.871823 -0.070805
C30   C     C_R   0.176192 0.495428 0.897596 -0.081268
C31   C     C_R   0.127646 0.553967 0.871916 -0.024882
C32   C     C_R   0.167445 0.553092 0.821181 0.588291
C33   C     C_R   0.297253 0.436189 0.820634 0.594933
C34   C     C_3   0.184083 0.319122 0.417346 0.306449
C35   C     C_2   0.451104 0.481412 0.729541 -0.079111
C36   C     C_3   0.495730 0.487851 0.676224 -0.070836
C37   C     C_1   0.209170 0.512572 0.657169 0.051068
C38   C     C_2   0.168161 0.512798 0.704460 -0.087002
C39   C     C_2   0.294595 0.495052 0.743735 0.206824
C40   C     C_R   0.129439 0.434477 0.023939 0.018957
C41   C     C_R   0.059048 0.497623 0.051000 0.054132
C42   C     C_R   0.028067 0.559969 0.027251 0.020311
C43   C     C_R   0.131179 0.371147 0.046575 -0.111223
C44   C     C_R   0.931272 0.623242 0.106718 -0.062721
C45   C     C_3   0.205216 0.238523 0.404384 -0.363888
C46   C     C_R   0.007250 0.614511 0.947907 -0.099844
C47   C     C_R   0.041723 0.612731 0.897613 -0.061374
C48   C     C_R   0.967321 0.622764 0.056608 -0.101962
C49   C     C_2   0.411134 0.301484 0.521949 -0.247769
C50   C     C_3   0.327135 0.254731 0.552852 -0.068412
C51   C     C_2   0.365770 0.175948 0.538423 -0.123010
C52   C     C_2   0.496069 0.152803 0.510496 -0.067968
C53   C     C_2   0.586624 0.207083 0.488477 -0.124600
C54   C     C_1   0.533441 0.275433 0.493583 0.071832
C55   C     C_R   0.657239 0.934804 0.497304 0.469553
C56   C     C_3   0.012458 0.684310 0.586924 0.303953
C57   C     C_R   0.551582 0.075411 0.504204 0.463216
C58   C     C_R   0.619881 0.809359 0.514853 -0.109644
C59   C     C_R   0.668613 0.736624 0.510625 0.047220
C60   C     C_R   0.909033 0.758519 0.468660 0.014656
C61   C     C_R   0.860922 0.831569 0.471566 -0.137864
C62   C     C_R   0.713499 0.857802 0.494229 -0.057137
C63   C     C_R   0.808844 0.711538 0.485988 -0.281246
C64   C     C_3   0.006002 0.764635 0.602507 -0.378429
C65   C     C_3   0.682512 0.364347 0.369541 0.302772
C66   C     C_3   0.712938 0.331825 0.315805 -0.365662
H1    H     H_    0.633225 0.283229 0.606411 0.061654
H2    H     H_    0.295136 0.224860 0.374601 0.126448
H3    H     H_    0.249010 0.213699 0.437857 0.077192
H4    H     H_    0.888536 0.667318 0.576872 0.007729
H5    H     H_    0.091387 0.671287 0.554272 0.059830
H6    H     H_    0.924449 0.779035 0.634464 0.136374
H7    H     H_    0.959360 0.793294 0.571129 0.063383
H8    H     H_    0.129917 0.782027 0.613876 0.124913
H9    H     H_    0.799420 0.381506 0.387380 0.020043
H10   H     H_    0.592696 0.410459 0.369865 0.027482
H11   H     H_    0.698356 0.202025 0.670986 0.128564
H12   H     H_    0.792863 0.282322 0.315577 0.142431
H13   H     H_    0.774025 0.369335 0.295542 0.079745
H14   H     H_    0.448321 0.316968 0.639146 -0.085611
H15   H     H_    0.506471 0.184998 0.638800 0.065870
H16   H     H_    0.394596 0.625887 0.613104 0.029806
H17   H     H_    0.601792 0.596247 0.629049 0.031274
H18   H     H_    0.400273 0.719574 0.688067 0.141175
H19   H     H_    0.424865 0.630296 0.704280 0.073286
H20   H     H_    0.599930 0.683444 0.705636 0.124033
H21   H     H_    0.510689 0.233048 0.701331 0.135094
H22   H     H_    0.126675 0.255406 0.729224 0.095974
H23   H     H_    0.022532 0.642430 0.338769 0.057415
H24   H     H_    0.860374 0.696572 0.370913 0.006373
H25   H     H_    0.817314 0.705736 0.283496 0.170208
H26   H     H_    0.891929 0.789330 0.312209 0.109967
H27   H     H_    0.025964 0.724644 0.276291 0.125002
H28   H     H_    0.362832 0.693789 0.366502 0.129101
H29   H     H_    0.471110 0.759088 0.275365 0.110443
H30   H     H_    0.286336 0.783505 0.308747 0.115085
H31   H     H_    0.141031 0.326029 0.657534 0.026105
H32   H     H_    0.317887 0.694940 0.274955 0.104230
H33   H     H_    0.145649 0.468777 0.283337 0.114145
H34   H     H_    0.097064 0.321587 0.111813 0.122632
H35   H     H_    0.547178 0.471553 0.757021 0.103823
H36   H     H_    0.399936 0.337858 0.880135 0.133925
H37   H     H_    0.158013 0.319590 0.025868 0.078633
H38   H     H_    0.641880 0.525652 0.242811 0.091432
H39   H     H_    0.884999 0.672926 0.127262 0.118416
H40   H     H_    0.937301 0.661122 0.964177 0.069439
H41   H     H_    0.231286 0.235296 0.645592 -0.024647
H42   H     H_    0.000481 0.658163 0.878827 0.121866
H43   H     H_    0.044341 0.527680 0.715288 0.130805
H44   H     H_    0.949445 0.673261 0.042198 0.069709
H45   H     H_    0.355824 0.453155 0.603719 0.066598
H46   H     H_    0.297994 0.138937 0.555797 0.099450
H47   H     H_    0.694396 0.189945 0.467302 0.112750
H48   H     H_    0.510280 0.827778 0.534520 0.101439
H49   H     H_    0.937418 0.867186 0.456185 0.108768
H50   H     H_    0.384465 0.358619 0.529486 0.066075
H51   H     H_    0.928746 0.283440 0.705805 0.165408
H52   H     H_    0.844920 0.655197 0.482740 0.057803
H53   H     H_    0.006202 0.191854 0.690315 0.112840
H54   H     H_    0.303122 0.340469 0.429083 0.004500
H55   H     H_    0.099486 0.331429 0.448543 0.088481
N1    N     N_R   0.935189 0.499177 0.203138 -0.424428
N2    N     N_R   0.251310 0.494476 0.795835 -0.422624
N3    N     N_R   0.515859 0.958462 0.519640 -0.241495
N4    N     N_R   0.464518 0.027007 0.523082 -0.243405
N5    N     N_R   0.692770 0.051852 0.481515 -0.236890
N6    N     N_R   0.744359 0.983054 0.478087 -0.239356
O1    O     O_2   0.914730 0.537460 0.618690 -0.462253
O2    O     O_3   0.618706 0.312675 0.394157 -0.634922
O3    O     O_3   0.011398 0.253946 0.608387 -0.571384
O4    O     O_2   0.274960 0.462520 0.381280 -0.469054
O5    O     O_3   0.042980 0.462530 0.441480 -0.494304
O6    O     O_3   0.523340 0.590550 0.413420 -0.468495
O7    O     O_3   0.122249 0.348453 0.374976 -0.628994
O8    O     O_3   0.635780 0.584660 0.526290 -0.474898
O9    O     O_3   0.116060 0.626590 0.438450 -0.484268
O10   O     O_2   0.251305 0.752575 0.463683 -0.474293
O11   O     O_3   0.091604 0.738124 0.377108 -0.614815
O12   O     O_3   0.146720 0.537410 0.558510 -0.491479
O13   O     O_3   0.553920 0.415280 0.473710 -0.489478
O14   O     O_2   0.383540 0.672140 0.526840 -0.464895
O15   O     O_3   0.573358 0.697289 0.608312 -0.641729
O16   O     O_2   0.362002 0.562171 0.325363 -0.517612
O17   O     O_3   0.579352 0.659317 0.329925 -0.638715
O18   O     O_2   0.012524 0.381922 0.195601 -0.594760
O19   O     O_2   0.367132 0.383551 0.798094 -0.599265
O20   O     O_2   0.858174 0.615819 0.204349 -0.615998
O21   O     O_2   0.129731 0.605221 0.799900 -0.600769
O22   O     O_3   0.666360 0.409390 0.586570 -0.482008
O23   O     O_2   0.830872 0.449939 0.671332 -0.476447
O24   O     O_3   0.074059 0.651103 0.627525 -0.629952
O25   O     O_3   0.665336 0.341824 0.675950 -0.584262
O26   O     O_2   0.806150 0.327840 0.473120 -0.459612
O27   O     O_3   0.073640 0.373350 0.561550 -0.474009
O28   O     O_2   0.010042 0.246710 0.510575 -0.477994
P1    P     P_3+3 0.084800 0.558370 0.611580 0.998791
P2    P     P_3+3 0.628800 0.338360 0.458800 0.987444
P3    P     P_3+3 0.105301 0.280617 0.557386 0.967302
P4    P     P_3+3 0.104900 0.441570 0.388420 0.991545
P5    P     P_3+3 0.095555 0.719628 0.438971 0.953852
P6    P     P_3+3 0.663270 0.423547 0.652228 0.991254
P7    P     P_3+3 0.567620 0.673928 0.543377 0.952508
P8    P     P_3+3 0.534452 0.577218 0.348075 0.944945
H56   H     H_    0.086922 0.216570 0.391058 0.133486
H57   H     H_    0.595754 0.318667 0.295912 0.121895
N7    N     N_3   0.531840 0.772028 0.376182 -0.489479
H58   H     H_    0.582406 0.752475 0.408197 0.169306
H59   H     H_    0.627788 0.789000 0.357396 0.170387
N8    N     N_3   0.393559 0.331893 0.974358 -0.508163
H60   H     H_    0.421354 0.352858 0.011314 0.188258
H61   H     H_    0.339571 0.283000 0.971823 0.175251
H62   H     H_    0.840767 0.549273 0.394468 0.070551

loop_
_geom_bond_atom_site_label_1
_geom_bond_atom_site_label_2
_ccdc_geom_bond_type
C25   C46   A    
C50   P3    S    
C12   H41   S    
C2    O25   S    
C53   C54   D    
C66   H12   S    
N3    N4    A    
Ba1   O27   S    
C59   P7    S    
C9    N1    Am   
C65   H9    S    
O13   P2    S    
N8    H60   S    
C1    H11   S    
N5    N6    A    
C49   H50   S    
O1    P1    D    
C32   O21   D    
C12   H31   S    
C21   H62   S    
C12   O3    S    
C51   C52   D    
C50   C51   S    
N8    H61   S    
C23   H22   S    
Ba2   O5    S    
C11   C16   D    
C66   H13   S    
Ba1   P2    S    
C55   N6    A    
Ba1   P1    S    
C35   C36   S    
Ba1   Ba2   S    
C54   P2    S    
C28   C29   A    
C61   H49   S    
C5    H24   S    
O11   P5    S    
C64   H6    S    
C10   C20   A    
C7    O17   S    
C22   C37   D    
C4    H20   S    
C34   C45   S    
Ba1   O26   S    
C49   C54   D    
O24   P1    S    
C33   N2    Am   
C15   H33   S    
Ba1   O13   S    
C25   C42   A    
C56   C64   S    
C17   C18   A    
C43   H37   S    
C14   C15   D    
C22   C36   S    
O2    P2    S    
C7    C8    S    
C57   N4    A    
O7    P4    S    
C3    H17   S    
N7    H59   S    
C5    H23   S    
C22   H45   S    
O15   P7    S    
Ba2   O14   S    
C6    H27   S    
C34   O7    S    
Ba2   P4    S    
C2    H1    S    
C17   C41   A    
C31   C32   A    
C38   H43   S    
C19   C43   A    
C52   C57   S    
C7    N7    S    
C9    C18   A    
Ba2   O4    S    
O26   P2    D    
C49   C50   S    
Ba2   O9    S    
C39   N2    S    
O25   P6    S    
C5    C6    S    
C34   H55   S    
C6    H26   S    
Ba1   O1    S    
C37   C38   D    
C35   H35   S    
C3    H16   S    
C3    O15   S    
O16   P8    D    
C57   N5    A    
C60   P5    S    
C4    H19   S    
C65   C66   S    
C58   C59   A    
C40   C43   A    
C8    H29   S    
C34   H54   S    
C41   C42   A    
C45   H2    S    
C27   C28   A    
C56   O24   S    
C56   H4    S    
O12   P1    S    
C29   C30   A    
C10   N1    Am   
C26   C30   A    
C64   H8    S    
C44   H39   S    
C17   C20   A    
C60   C61   A    
C48   H44   S    
C15   C16   S    
O6    P8    S    
O9    P5    S    
O3    P3    S    
C27   N8    S    
C8    H32   S    
C7    H28   S    
C45   H3    S    
C46   H40   S    
C19   H34   S    
N7    H58   S    
C20   C44   A    
O17   P8    S    
O28   P3    D    
O22   P6    S    
C11   C13   S    
C37   P1    S    
C1    H15   S    
Ba2   O13   S    
C29   C33   A    
C58   H48   S    
C40   C41   A    
C1    C2    S    
O14   P7    D    
C55   N3    A    
Ba1   O8    S    
C51   H46   S    
C24   C40   A    
C55   C62   S    
C42   C48   A    
C45   H56   S    
C52   C53   S    
C36   P6    S    
C60   C63   A    
Ba2   O8    S    
C10   O20   D    
O10   P5    D    
C65   O2    S    
C6    H25   S    
Ba2   O6    S    
C11   H38   S    
O4    P4    D    
O8    P7    S    
O27   P3    S    
C14   P4    S    
C14   C21   D    
C8    H30   S    
C44   C48   A    
C24   C26   A    
C23   H51   S    
C4    H18   S    
O5    P4    S    
C58   C62   A    
C1    H21   S    
C30   C31   A    
C9    O18   D    
C3    C4    S    
C53   H47   S    
C32   N2    Am   
C46   C47   A    
C64   H7    S    
C13   C21   S    
C63   H52   S    
Ba1   O22   S    
C33   O19   D    
C12   C23   S    
C35   C39   D    
O23   P6    D    
Ba1   O12   S    
C65   H10   S    
C61   C62   A    
C66   H57   S    
C59   C63   A    
C5    O11   S    
C2    H14   S    
C18   C19   A    
C24   C27   A    
C31   C47   A    
C28   H36   S    
C25   C26   A    
Ba2   O12   S    
C13   P8    S    
C38   C39   S    
C23   H53   S    
Ba1   O5    S    
C56   H5    S    
C16   N1    S    
C47   H42   S    
