data_mof_unit_40575.cif
_audit_creation_date              2012-12-10T18:58:13-0500
_audit_creation_method            fapswitch 2.2
_symmetry_space_group_name_H-M    P1
_symmetry_Int_Tables_number       1
_space_group_crystal_system       triclinic
_cell_length_a                    11.167042
_cell_length_b                    10.838838
_cell_length_c                    9.557429
_cell_angle_alpha                 90.514724
_cell_angle_beta                  102.56758
_cell_angle_gamma                 89.726362
_cell_volume                      1129.0423938

loop_
_atom_site_label
_atom_site_type_symbol
_atom_type_description
_atom_site_fract_x
_atom_site_fract_y
_atom_site_fract_z
_atom_type_partial_charge
C1    C     C_R   0.492173 0.262761 0.497397 0.862789
C2    C     C_R   0.470649 0.130489 0.491461 -0.305544
C3    C     C_R   0.437780 0.063990 0.360073 0.317055
C4    C     C_R   0.444285 0.934454 0.360993 0.407011
C5    C     C_R   0.479165 0.871226 0.493295 -0.267072
C6    C     C_R   0.485453 0.938623 0.619472 -0.101792
C7    C     C_3   0.573532 0.932981 0.761288 -0.371431
C8    C     C_3   0.570949 0.073388 0.760945 0.778450
C9    C     C_R   0.606669 0.486393 0.100712 0.197023
C10   C     C_R   0.393451 0.505219 0.047116 -0.061275
C11   C     C_R   0.393316 0.505045 0.898984 -0.092957
C12   C     C_R   0.262941 0.502721 0.441849 0.775447
C13   C     C_R   0.606695 0.486088 0.953191 0.119371
C14   C     C_3   0.715819 0.569636 0.977954 0.090337
C15   C     C_3   0.716248 0.567996 0.137783 0.154610
C16   C     C_R   0.497179 0.737950 0.499183 0.827430
C17   C     C_R   0.736403 0.503017 0.558367 0.815922
C18   C     C_2   0.127881 0.497368 0.409260 0.130402
C19   C     C_2   0.066692 0.525748 0.513726 0.316574
C20   C     C_2   0.868587 0.527433 0.592211 0.189432
C21   C     C_2   0.939713 0.478412 0.508431 0.274317
C22   C     C_R   0.481587 0.065329 0.618747 -0.035704
Cu1   Cu    Cu3+1 0.499990 0.499980 0.640670 0.983933
Cu2   Cu    Cu3+1 0.500010 0.500020 0.359330 1.020785
H1    H     H_    0.307392 0.512794 0.079495 0.145853
H2    H     H_    0.306557 0.511107 0.823537 0.202917
H3    H     H_    0.797196 0.525072 0.950459 0.132452
H4    H     H_    0.794832 0.517725 0.204787 0.126195
H5    H     H_    0.529364 0.893520 0.844200 0.209246
H6    H     H_    0.663385 0.891847 0.753878 0.186697
N1    N     N_R   0.500780 0.500930 0.148120 -0.149701
N2    N     N_R   0.500790 0.500890 0.852210 -0.180852
O1    O     O_R   0.500000 0.319640 0.618810 -0.575917
O2    O     O_R   0.500010 0.319680 0.381230 -0.555563
O3    O     O_R   0.320680 0.500000 0.575130 -0.566165
O4    O     O_R   0.320690 0.500040 0.337550 -0.612447
O5    O     O_R   0.499990 0.680320 0.618770 -0.565276
O6    O     O_R   0.500000 0.680360 0.381190 -0.511862
O7    O     O_R   0.679310 0.499960 0.662450 -0.570934
O8    O     O_R   0.679320 0.500000 0.424870 -0.546202
O9    O     O_3   0.892884 0.380371 0.419963 -0.744151
H7    H     H_    0.960893 0.321293 0.420298 0.353773
O10   O     O_3   0.684476 0.128240 0.757225 -0.726299
H8    H     H_    0.713911 0.092760 0.674537 0.297532
O11   O     O_3   0.690490 0.685824 0.913809 -0.707367
H9    H     H_    0.611456 0.715636 0.932933 0.366041
O12   O     O_3   0.686012 0.682435 0.193834 -0.503465
C23   C     C_3   0.794236 0.749948 0.246542 0.096559
H10   H     H_    0.840688 0.772704 0.158158 0.161270
H11   H     H_    0.858131 0.697097 0.330266 0.095164
C24   C     C_3   0.762088 0.869743 0.313996 -0.705675
H12   H     H_    0.720553 0.849474 0.406739 0.225420
H13   H     H_    0.696109 0.924125 0.233972 0.287383
H14   H     H_    0.846455 0.925116 0.352263 0.178761
O13   O     O_3   0.124594 0.597008 0.630655 -0.567324
C25   C     C_3   0.101908 0.724419 0.602003 0.109435
H15   H     H_    0.076111 0.767729 0.697028 0.206403
H16   H     H_    0.025639 0.744006 0.508409 0.103193
C26   C     C_3   0.217148 0.788338 0.581373 -0.847715
H17   H     H_    0.241168 0.754929 0.481116 0.198129
H18   H     H_    0.201278 0.889482 0.572957 0.210980
H19   H     H_    0.293590 0.769783 0.674492 0.281095
O14   O     O_3   0.917590 0.604633 0.705800 -0.772640
H20   H     H_    0.850070 0.643821 0.742425 0.346531
O15   O     O_3   0.068598 0.440983 0.282489 -0.589516
C27   C     C_3   0.060825 0.522774 0.166588 0.056800
H21   H     H_    0.140797 0.585414 0.176812 0.126729
H22   H     H_    0.978484 0.582004 0.157163 0.118143
C28   C     C_3   0.050416 0.447227 0.029557 -0.737897
H23   H     H_    0.965890 0.390394 0.009747 0.249682
H24   H     H_    0.047954 0.509557 0.937641 0.248874
H25   H     H_    0.130530 0.384377 0.039209 0.243042
O16   O     O_3   0.403559 0.121201 0.229120 -0.664490
H26   H     H_    0.349300 0.191363 0.240912 0.328256
O17   O     O_3   0.427193 0.872612 0.230923 -0.506436
C29   C     C_3   0.300957 0.847697 0.180786 0.127011
H27   H     H_    0.240575 0.924973 0.201733 0.127839
H28   H     H_    0.276442 0.763110 0.232893 0.108485
C30   C     C_3   0.275270 0.826011 0.019466 -0.743211
H29   H     H_    0.289737 0.912729 0.964407 0.266998
H30   H     H_    0.337896 0.754258 0.992651 0.247737
H31   H     H_    0.178943 0.795373 0.980341 0.185763
O18   O     O_3   0.518594 0.121994 0.870501 -0.681442
H32   H     H_    0.517550 0.212922 0.860139 0.351046

loop_
_geom_bond_atom_site_label_1
_geom_bond_atom_site_label_2
_ccdc_geom_bond_type
C27   H22   S    
O13   C25   S    
O9    H7    S    
C7    H5    S    
C8    O18   S    
O16   H26   S    
C13   N2    A    
C8    O10   S    
C15   O12   S    
O10   H8    S    
C1    O1    A    
C7    C8    S    
O11   H9    S    
C18   O15   S    
Cu2   O4    S    
C19   C21   S    
C29   H28   S    
C1    C2    S    
C5    C6    A    
C27   C28   S    
C6    C22   A    
C17   C20   S    
C25   H15   S    
C18   C19   D    
C17   O7    A    
C28   H24   S    
C9    C13   A    
C4    O17   S    
C10   N1    A    
C23   C24   S    
O18   H32   S    
Cu1   O1    S    
C2    C22   A    
Cu2   O6    S    
Cu1   Cu2   S    
C29   C30   S    
C14   H3    S    
C12   O4    A    
C16   O5    A    
C23   H11   S    
C27   H21   S    
C26   H17   S    
C7    H6    S    
C13   C14   S    
C1    O2    A    
C14   O11   S    
C26   H18   S    
C24   H12   S    
C29   H27   S    
C30   H30   S    
C11   H2    S    
Cu1   O5    S    
Cu2   O2    S    
C30   H29   S    
C24   H13   S    
C17   O8    A    
C28   H25   S    
O17   C29   S    
C8    C22   S    
O12   C23   S    
C12   O3    A    
C21   O9    S    
C10   H1    S    
C23   H10   S    
C11   N2    A    
Cu1   O3    S    
C3    C4    A    
C19   O13   S    
C26   H19   S    
C4    C5    A    
C30   H31   S    
C6    C7    S    
C25   C26   S    
C24   H14   S    
Cu1   N2    S    
C20   O14   S    
C2    C3    A    
C9    C15   S    
Cu2   N1    S    
C5    C16   S    
C15   H4    S    
Cu1   O7    S    
Cu2   O8    S    
C25   H16   S    
C28   H23   S    
C3    O16   S    
C10   C11   A    
C9    N1    A    
O14   H20   S    
C20   C21   D    
O15   C27   S    
C12   C18   S    
C14   C15   S    
C16   O6    A    
