data_mof_unit_27271.cif
_audit_creation_date              2012-12-10T17:19:25-0500
_audit_creation_method            fapswitch 2.2
_symmetry_space_group_name_H-M    P1
_symmetry_Int_Tables_number       1
_space_group_crystal_system       triclinic
_cell_length_a                    15.003047
_cell_length_b                    10.825284
_cell_length_c                    9.662328
_cell_angle_alpha                 90.834849
_cell_angle_beta                  90.293739
_cell_angle_gamma                 96.839768
_cell_volume                      1557.90933346

loop_
_atom_site_label
_atom_site_type_symbol
_atom_type_description
_atom_site_fract_x
_atom_site_fract_y
_atom_site_fract_z
_atom_type_partial_charge
C1    C     C_R   0.504804 0.262896 0.499735 0.833040
C2    C     C_R   0.915646 0.602629 0.526383 0.092430
C3    C     C_R   0.934041 0.266462 0.438873 0.376098
C4    C     C_R   0.027794 0.269429 0.440203 -0.272607
C5    C     C_R   0.084042 0.379373 0.469159 0.083282
C6    C     C_R   0.046032 0.490070 0.498011 0.012655
C7    C     C_R   0.102373 0.601616 0.527519 0.063996
C8    C     C_R   0.065654 0.711736 0.555540 -0.167453
C9    C     C_R   0.973171 0.713652 0.555028 0.148889
C10   C     C_R   0.177951 0.380797 0.469714 0.105902
C11   C     C_R   0.232542 0.493054 0.498876 -0.081814
C12   C     C_R   0.329206 0.497685 0.499678 0.781680
C13   C     C_R   0.195177 0.602032 0.528258 -0.254964
C14   C     C_R   0.557083 0.119375 0.747686 0.126505
C15   C     C_R   0.532289 0.067607 0.876883 0.095616
C16   C     C_R   0.473021 0.958316 0.881360 -0.246932
C17   C     C_R   0.449170 0.889412 0.759386 0.394674
C18   C     C_R   0.480838 0.937185 0.630481 -0.033381
C19   C     C_R   0.517005 0.063090 0.625374 -0.001202
C20   C     C_R   0.506700 0.127595 0.500295 -0.116755
C21   C     C_R   0.476927 0.060456 0.380430 -0.149814
C22   C     C_R   0.461454 0.931602 0.380406 0.177279
C23   C     C_R   0.488887 0.735181 0.501031 0.849007
C24   C     C_R   0.472782 0.867575 0.504567 -0.140854
C25   C     C_R   0.607190 0.698580 0.146158 0.413866
C26   C     C_R   0.632617 0.810319 0.078860 0.292839
C27   C     C_R   0.630920 0.810543 0.937538 -0.413948
C28   C     C_R   0.604291 0.701882 0.863172 0.186753
C29   C     C_R   0.551762 0.597155 0.927018 0.124185
C30   C     C_R   0.552247 0.596582 0.076970 -0.017058
C31   C     C_R   0.447419 0.413436 0.071767 0.248649
C32   C     C_R   0.448613 0.412917 0.924174 -0.133386
C33   C     C_R   0.670561 0.498721 0.500062 0.899491
C34   C     C_R   0.822796 0.602331 0.525956 -0.313477
C35   C     C_R   0.766493 0.493361 0.499408 -0.058788
C36   C     C_R   0.800329 0.381099 0.468460 0.101733
C37   C     C_R   0.894776 0.377296 0.467780 0.045774
C38   C     C_R   0.952032 0.489710 0.497537 -0.056977
Cu1   Cu    Cu3+1 0.499990 0.499990 0.640660 0.984747
Cu2   Cu    Cu3+1 0.500010 0.500010 0.359340 0.999684
H1    H     H_    0.792888 0.687138 0.544450 0.136474
H2    H     H_    0.449380 0.923513 0.980587 0.174371
H3    H     H_    0.663416 0.891111 0.884395 0.167575
H4    H     H_    0.406412 0.341219 0.867391 0.143532
H5    H     H_    0.056653 0.184297 0.417985 0.181580
H6    H     H_    0.238811 0.687441 0.550678 0.164142
H7    H     H_    0.109084 0.797226 0.577855 0.163961
H8    H     H_    0.463450 0.108015 0.286152 0.188478
N1    N     N_R   0.500860 0.501210 0.147910 -0.159149
N2    N     N_R   0.500890 0.501290 0.852040 -0.177008
O1    O     O_R   0.499990 0.319640 0.618810 -0.580660
O2    O     O_R   0.500000 0.319660 0.381240 -0.567548
O3    O     O_R   0.370250 0.499960 0.618800 -0.557503
O4    O     O_R   0.370260 0.499980 0.381230 -0.575793
O5    O     O_R   0.500000 0.680340 0.618760 -0.518573
O6    O     O_R   0.500010 0.680360 0.381190 -0.552545
O7    O     O_R   0.629740 0.500020 0.618770 -0.561969
O8    O     O_R   0.629750 0.500040 0.381200 -0.509258
N3    N     N_3   0.628831 0.219340 0.738841 -0.568449
H9    H     H_    0.615395 0.292242 0.804642 0.247450
H10   H     H_    0.687761 0.187042 0.773867 0.198680
N4    N     N_3   0.565079 0.125823 0.004248 -0.565801
H11   H     H_    0.544531 0.214406 0.009557 0.213682
H12   H     H_    0.635111 0.137439 0.002125 0.213626
O9    O     O_3   0.388271 0.783155 0.762943 -0.718447
H13   H     H_    0.373647 0.762889 0.860622 0.318086
N5    N     N_3   0.422959 0.870277 0.257929 -0.598638
H14   H     H_    0.369561 0.804323 0.285461 0.218462
H15   H     H_    0.471420 0.826168 0.206829 0.249678
N6    N     N_3   0.387791 0.322622 0.141848 -0.547823
H16   H     H_    0.322292 0.333813 0.111500 0.197477
H17   H     H_    0.400480 0.234354 0.107977 0.195775
O10   O     O_3   0.644135 0.687997 0.274216 -0.679243
H18   H     H_    0.698376 0.748558 0.289890 0.340309
O11   O     O_3   0.669516 0.913558 0.154575 -0.718850
H19   H     H_    0.699062 0.976614 0.091152 0.332670
N7    N     N_3   0.651190 0.694557 0.736759 -0.497991
H20   H     H_    0.649981 0.776574 0.680908 0.200412
H21   H     H_    0.718464 0.688212 0.761535 0.194140
N8    N     N_3   0.736626 0.274096 0.438214 -0.575686
H22   H     H_    0.746567 0.241997 0.337594 0.275515
H23   H     H_    0.743412 0.205046 0.510624 0.278031
O12   O     O_3   0.881010 0.155749 0.409556 -0.758638
H24   H     H_    0.919245 0.088481 0.392552 0.329376
N9    N     N_3   0.217267 0.268134 0.442990 -0.610438
H25   H     H_    0.258468 0.281043 0.356317 0.237531
H26   H     H_    0.257128 0.250971 0.528049 0.213131
N10   N     N_3   0.939752 0.829914 0.584358 -0.597080
H27   H     H_    0.901893 0.853150 0.499527 0.224721
H28   H     H_    0.898506 0.819630 0.671333 0.218862

loop_
_geom_bond_atom_site_label_1
_geom_bond_atom_site_label_2
_ccdc_geom_bond_type
Cu1   O1    S    
C10   N9    S    
C33   O8    A    
O10   H18   S    
C35   C36   A    
C13   H6    S    
C7    C8    A    
N7    H20   S    
C14   N3    S    
C26   C27   A    
C29   C30   A    
C18   C24   A    
C36   C37   A    
C37   C38   A    
C34   C35   A    
C9    N10   S    
N9    H25   S    
C5    C6    A    
C16   C17   A    
Cu2   N1    S    
Cu1   O7    S    
C18   C19   A    
N4    H12   S    
C31   N6    S    
Cu1   O5    S    
O12   H24   S    
C8    C9    A    
Cu2   O6    S    
C23   C24   S    
C6    C38   A    
N6    H16   S    
C12   O3    A    
C4    H5    S    
C21   H8    S    
C2    C34   A    
N9    H26   S    
N3    H9    S    
C21   C22   A    
C34   H1    S    
C31   N1    A    
C26   O11   S    
C29   N2    A    
N7    H21   S    
N3    H10   S    
Cu2   O8    S    
N5    H14   S    
C23   O6    A    
N8    H23   S    
C36   N8    S    
Cu1   Cu2   S    
N8    H22   S    
C25   C26   A    
Cu2   O2    S    
N5    H15   S    
O11   H19   S    
N4    H11   S    
C2    C38   A    
C31   C32   A    
C17   C18   A    
C32   H4    S    
N10   H27   S    
C28   N7    S    
C1    O1    A    
C32   N2    A    
C30   N1    A    
N10   H28   S    
Cu2   O4    S    
C3    O12   S    
C22   C24   A    
C3    C4    A    
C16   H2    S    
C25   C30   A    
C28   C29   A    
C1    C20   S    
C33   O7    A    
C14   C19   A    
C4    C5    A    
C11   C12   S    
C23   O5    A    
C6    C7    A    
C17   O9    S    
C19   C20   A    
C8    H7    S    
C5    C10   A    
C11   C13   A    
Cu1   O3    S    
C33   C35   S    
C15   N4    S    
C25   O10   S    
C1    O2    A    
C22   N5    S    
C10   C11   A    
C27   H3    S    
C7    C13   A    
Cu1   N2    S    
C20   C21   A    
C3    C37   A    
O9    H13   S    
C27   C28   A    
C14   C15   A    
N6    H17   S    
C2    C9    A    
C12   O4    A    
C15   C16   A    
