data_mof_unit_68589.cif
_audit_creation_date              2013-03-05T15:41:44-0500
_audit_creation_method            fapswitch 2.2
_symmetry_space_group_name_H-M    P1
_symmetry_Int_Tables_number       1
_space_group_crystal_system       triclinic
_cell_length_a                    8.424678
_cell_length_b                    15.310338
_cell_length_c                    15.197852
_cell_angle_alpha                 97.200818
_cell_angle_beta                  99.448897
_cell_angle_gamma                 97.477477
_cell_volume                      1895.55628415

loop_
_atom_site_label
_atom_site_type_symbol
_atom_site_description
_atom_site_fract_x
_atom_site_fract_y
_atom_site_fract_z
_atom_type_partial_charge
P1    P     P_3+3 0.004200 0.709230 0.580350 0.436461
O1    O     O_2   0.174080 0.723060 0.553930 -0.373875
O2    O     O_3   0.901570 0.609580 0.550840 -0.392449
O3    O     O_3   0.370350 0.665080 0.388270 -0.305014
O4    O     O_2   0.303662 0.814812 0.443620 -0.373185
O5    O     O_3   0.062647 0.710684 0.696710 -0.602244
O6    O     O_3   0.367633 0.806573 0.281014 -0.642641
C1    C     C_3   0.442693 0.824560 0.133020 -0.138476
H1    H     H_    0.322430 0.813604 0.088368 0.206458
P2    P     P_3+3 0.305000 0.425570 0.290900 0.507183
P3    P     P_3+3 0.871599 0.602808 0.223048 0.505836
O7    O     O_2   0.134790 0.452800 0.278150 -0.344593
O8    O     O_3   0.937650 0.618620 0.340860 -0.363358
O9    O     O_2   0.997115 0.560382 0.175136 -0.299873
O10   O     O_3   0.263671 0.310046 0.263318 -0.549984
O11   O     O_3   0.860856 0.706380 0.185130 -0.635148
C2    C     C_3   0.988125 0.773194 0.231794 0.679551
H2    H     H_    0.091822 0.743064 0.262736 0.120143
C3    C     C_3   0.049372 0.831491 0.164699 -0.202256
H3    H     H_    0.068157 0.786525 0.105590 0.156509
C4    C     C_3   0.642196 0.296185 0.256316 0.221755
H4    H     H_    0.554025 0.311857 0.299761 0.109247
H5    H     H_    0.679872 0.356317 0.226901 0.074141
C5    C     C_3   0.562817 0.219658 0.180409 0.141487
H6    H     H_    0.514543 0.165582 0.215518 0.059719
Ba1   Ba    Ba6+2 0.154730 0.543770 0.458180 1.594685
C6    C     C_3   0.929318 0.722193 0.738321 0.292951
H7    H     H_    0.818201 0.680182 0.699342 0.158141
H8    H     H_    0.909050 0.791810 0.742815 0.101445
C7    C     C_3   0.963118 0.699238 0.833542 -0.744908
H9    H     H_    0.978331 0.628146 0.831280 0.229211
H10   H     H_    0.859937 0.711113 0.868174 0.248185
H11   H     H_    0.075869 0.741599 0.872723 0.238751
C8    C     C_3   0.190297 0.271704 0.327639 0.345631
H12   H     H_    0.102482 0.311879 0.352709 0.134826
H13   H     H_    0.286041 0.263839 0.384322 0.082284
C9    C     C_3   0.098827 0.181026 0.282150 -0.821782
H14   H     H_    0.000341 0.189498 0.228729 0.274608
H15   H     H_    0.045469 0.143535 0.330449 0.214797
H16   H     H_    0.179803 0.142083 0.248828 0.279669
P4    P     P_3+3 0.806080 0.290760 0.419570 0.449047
O12   O     O_2   0.636200 0.276890 0.446040 -0.393321
O13   O     O_3   0.908720 0.390410 0.449080 -0.394512
O14   O     O_3   0.439930 0.334910 0.611650 -0.372408
O15   O     O_3   0.782070 0.270313 0.302120 -0.604326
P5    P     P_3+3 0.913502 0.391823 0.777910 0.550561
O16   O     O_3   0.402060 0.547860 0.609750 -0.422147
O17   O     O_3   0.872630 0.381370 0.659060 -0.423945
O18   O     O_2   0.772240 0.432059 0.812710 -0.282851
O19   O     O_3   0.889380 0.283675 0.805782 -0.436782
Ba2   Ba    Ba6+2 0.655430 0.456220 0.541750 1.549940
P6    P     P_3+3 0.429336 0.778867 0.390684 0.446722
C10   C     C_3   0.431453 0.763060 0.209328 0.611615
H17   H     H_    0.552590 0.746178 0.234696 0.064375
O20   O     O_3   0.408220 0.452130 0.390170 -0.408223
C11   C     C_3   0.487534 0.739323 0.686345 0.229684
H18   H     H_    0.496188 0.709713 0.616927 0.084250
H19   H     H_    0.359643 0.736226 0.694621 0.147304
C12   C     C_3   0.566926 0.836900 0.701168 -0.136875
H20   H     H_    0.685969 0.841875 0.678768 0.054823
H21   H     H_    0.491241 0.874711 0.657988 0.058420
P7    P     P_3+3 0.504790 0.580475 0.724748 0.424685
O21   O     O_2   0.675490 0.547140 0.721820 -0.361193
O22   O     O_3   0.566238 0.695644 0.751902 -0.578024
H22   H     H_    0.165515 0.872641 0.197684 0.137781
C13   C     C_3   0.877911 0.222086 0.727330 0.524155
H23   H     H_    0.768561 0.226335 0.677420 0.165971
H24   H     H_    0.987908 0.234520 0.696684 -0.046205
C14   C     C_3   0.862445 0.127994 0.750470 -0.875548
H25   H     H_    0.879580 0.080945 0.692281 0.187093
H26   H     H_    0.955775 0.124726 0.810167 0.269032
H27   H     H_    0.739588 0.107496 0.765315 0.302030
P8    P     P_3+3 0.393420 0.218849 0.602096 0.432561
C15   C     C_3   0.330101 0.212759 0.760862 0.200316
H28   H     H_    0.212970 0.169186 0.731509 0.011700
O23   O     O_2   0.522423 0.180636 0.553834 -0.400066
O24   O     O_3   0.450099 0.193963 0.710545 -0.497289
H29   H     H_    0.313945 0.284117 0.764471 0.084231
H30   H     H_    0.296517 0.211861 0.899149 0.160048
C16   C     C_3   0.383152 0.192348 0.855641 -0.052072
H31   H     H_    0.383307 0.119439 0.852867 0.117112
C17   C     C_R   0.178187 0.169903 0.546552 0.166827
C18   C     C_R   0.105471 0.080463 0.546515 -0.007630
C19   C     C_R   0.960384 0.899841 0.552491 0.011455
C20   C     C_R   0.116304 0.939638 0.605049 0.190653
C21   C     C_R   0.191098 0.022772 0.591417 -0.231506
C22   C     C_R   0.893830 0.805468 0.542250 0.173333
H32   H     H_    0.314845 0.046264 0.625583 0.168553
C23   C     C_R   0.734457 0.778245 0.493828 -0.430310
C24   C     C_R   0.918603 0.203358 0.470620 0.257507
C25   C     C_R   0.849958 0.111449 0.464911 -0.093646
C26   C     C_R   0.940246 0.050408 0.506306 0.036107
C27   C     C_R   0.692098 0.080079 0.420337 -0.050090
C28   C     C_R   0.608998 0.996564 0.428006 0.102291
C29   C     C_R   0.699323 0.930129 0.463316 -0.032130
C30   C     C_R   0.866802 0.959387 0.506376 0.067053
C31   C     C_R   0.635162 0.836291 0.455983 0.197765
C32   C     C_R   0.082646 0.228600 0.509261 -0.530169
H33   H     H_    0.629086 0.124040 0.382908 0.165297
H34   H     H_    0.685037 0.708148 0.484849 0.158770
H35   H     H_    0.140356 0.294458 0.506482 0.146433
C33   C     C_R   0.208898 0.509692 0.781914 -0.255971
C34   C     C_R   0.118784 0.458699 0.832986 0.070868
C35   C     C_R   0.192926 0.447032 0.919703 0.217400
C36   C     C_R   0.360111 0.485372 0.955546 0.013677
C37   C     C_R   0.452421 0.522871 0.894334 -0.261955
C38   C     C_R   0.380051 0.534018 0.807547 0.237773
C39   C     C_R   0.606250 0.523487 0.087705 -0.238438
C40   C     C_R   0.672191 0.537060 0.180420 0.263934
C41   C     C_R   0.418562 0.473132 0.211975 0.317922
C42   C     C_R   0.346351 0.467820 0.121596 -0.014848
C43   C     C_R   0.438357 0.490093 0.055028 0.122533
C44   C     C_R   0.579363 0.510932 0.241893 -0.499565
H36   H     H_    0.687709 0.544133 0.044081 0.171342
H37   H     H_    0.217424 0.449565 0.108570 0.183028
H38   H     H_    0.581101 0.546061 0.912376 0.166450
H39   H     H_    0.632834 0.519666 0.312849 0.176855
N1    N     N_R   0.322349 0.679374 0.172018 0.184292
O25   O     O_R   0.291256 0.623787 0.226100 -0.369608
O26   O     O_R   0.238540 0.663498 0.090203 -0.476847
N2    N     N_R   0.427333 0.244538 0.120744 0.247683
O27   O     O_R   0.283826 0.196562 0.106759 -0.364551
O28   O     O_R   0.455328 0.303967 0.069208 -0.402635
C45   C     C_3   0.683688 0.182846 0.124006 -0.407775
C46   C     C_3   0.808015 0.254410 0.099424 -0.485790
H40   H     H_    0.746551 0.301281 0.061289 0.296545
H41   H     H_    0.889232 0.294320 0.159712 0.221759
H42   H     H_    0.885942 0.221656 0.057471 0.285597
H43   H     H_    0.748660 0.136213 0.161151 0.212146
H44   H     H_    0.613798 0.142041 0.060576 0.237707
C47   C     C_3   0.565618 0.802028 0.071682 -0.253083
C48   C     C_3   0.501816 0.724312 0.996518 -0.776242
H45   H     H_    0.485715 0.662759 0.026296 0.255830
H46   H     H_    0.384964 0.733845 0.955783 0.278727
H47   H     H_    0.592298 0.718227 0.951415 0.268243
H48   H     H_    0.600826 0.859568 0.037641 0.284588
H49   H     H_    0.676329 0.788395 0.112920 0.248913
N3    N     N_R   0.589103 0.876145 0.796103 0.288381
O29   O     O_R   0.733485 0.911259 0.840299 -0.357392
O30   O     O_R   0.466637 0.872553 0.838403 -0.411429
C49   C     C_3   0.477277 0.926001 0.167809 -0.353246
C50   C     C_3   0.404110 0.978848 0.095800 -0.831524
H50   H     H_    0.479445 0.983881 0.042745 0.280574
H51   H     H_    0.277600 0.948483 0.063776 0.284271
H52   H     H_    0.396104 0.046251 0.127326 0.260300
H53   H     H_    0.422804 0.942153 0.227296 0.225057
H54   H     H_    0.609945 0.949913 0.188909 0.267781
N4    N     N_R   0.545995 0.239794 0.893431 0.306891
O31   O     O_R   0.667645 0.195683 0.904990 -0.351458
O32   O     O_R   0.572862 0.326430 0.907173 -0.315966
C51   C     C_3   0.186615 0.915357 0.694949 -0.421579
C52   C     C_3   0.095000 0.948150 0.768186 -0.759875
H55   H     H_    0.134458 0.020581 0.790077 0.233889
H56   H     H_    0.961869 0.937281 0.742882 0.252053
H57   H     H_    0.122666 0.913646 0.827661 0.285179
H58   H     H_    0.196524 0.845627 0.691470 0.248828
H59   H     H_    0.314357 0.948545 0.718092 0.217420
C53   C     C_3   0.424113 0.989241 0.415277 -0.255622
C54   C     C_3   0.340410 0.060234 0.372577 -0.964342
H60   H     H_    0.370947 0.126412 0.413252 0.293483
H61   H     H_    0.372022 0.065448 0.305346 0.238675
H62   H     H_    0.206889 0.039896 0.363936 0.305227
H63   H     H_    0.367255 0.933107 0.366678 0.278504
H64   H     H_    0.387175 0.982581 0.480857 0.217317
N5    N     N_R   0.098573 0.390362 0.966320 0.233010
O33   O     O_R   0.964490 0.412286 0.988309 -0.356017
O34   O     O_R   0.138201 0.313326 0.980024 -0.354931
N6    N     N_R   0.934944 0.828359 0.303467 0.228257
O35   O     O_R   0.044524 0.877655 0.366369 -0.416106
O36   O     O_R   0.789242 0.848923 0.290865 -0.455937
C55   C     C_3   0.131417 0.513964 0.688118 -0.209317
C56   C     C_3   0.164707 0.429877 0.633045 -0.576354
H65   H     H_    0.291236 0.427624 0.652298 0.243643
H66   H     H_    0.122443 0.364979 0.652027 0.160302
H67   H     H_    0.134590 0.430583 0.561209 0.255994
H68   H     H_    0.002231 0.522530 0.682089 0.231950
H69   H     H_    0.180635 0.575574 0.665695 0.219206
N7    N     N_R   0.941502 0.892901 0.133330 0.257719
O37   O     O_R   0.901535 0.892920 0.046921 -0.374062
O38   O     O_R   0.928637 0.963111 0.187977 -0.373379

loop_
_geom_bond_atom_site_label_1
_geom_bond_atom_site_label_2
_geom_bond_distance
_ccdc_geom_bond_type
P1    C22   1.940254 S    
C13   H24   1.109030 S    
C55   C56   1.528906 S    
N5    O33   1.301865 A    
P3    C40   1.815010 S    
C8    C9    1.518288 S    
C17   C32   1.393859 A    
P4    O12   1.544854 D    
C3    H3    1.107244 S    
C19   C22   1.459586 A    
C26   C30   1.449486 A    
Ba1   O20   2.956108 S    
O16   P7    1.795833 S    
N7    O37   1.301110 A    
C10   H17   1.105164 S    
C39   C40   1.405990 A    
C18   C26   1.416427 A    
P5    O18   1.546387 D    
P7    O21   1.592773 D    
C46   H40   1.105179 S    
O3    P6    1.742394 S    
C51   H59   1.108451 S    
N4    O32   1.300447 A    
O6    P6    1.782797 S    
P1    O1    1.544496 D    
C9    H16   1.104974 S    
P2    O10   1.741041 S    
C54   H60   1.094446 S    
C7    H9    1.109367 S    
P3    O9    1.543798 D    
C21   H32   1.078756 S    
C13   C14   1.519581 S    
C6    H8    1.096723 S    
C37   C38   1.400013 A    
P4    Ba2   3.450724 S    
P6    C31   1.893170 S    
C5    C45   1.550557 S    
C11   H18   1.112568 S    
C8    H12   1.105914 S    
C19   C30   1.452493 A    
C39   H36   1.075130 S    
C14   H26   1.109614 S    
C23   C31   1.408574 A    
C41   C42   1.395765 A    
P7    O22   1.748503 S    
C35   N5    1.430426 S    
N1    O25   1.287059 A    
O17   Ba2   2.797681 S    
C42   C43   1.419777 A    
C48   H45   1.097775 S    
C15   O24   1.401416 S    
C46   H42   1.109946 S    
C51   C52   1.526272 S    
C11   O22   1.394656 S    
O4    P6    1.546413 D    
P2    C41   1.816257 S    
C1    C49   1.549946 S    
C27   H33   1.071552 S    
O10   C8    1.389291 S    
Ba2   O20   2.828957 S    
C56   H67   1.081262 S    
C53   H64   1.104387 S    
O12   Ba2   2.913085 S    
P2    Ba1   3.441014 S    
N6    O36   1.296556 A    
P4    C24   1.907933 S    
C12   H20   1.107343 S    
N5    O34   1.298914 A    
C15   C16   1.519899 S    
C4    H4    1.101373 S    
C6    C7    1.522202 S    
P4    O13   1.623054 S    
C50   H52   1.097190 S    
O14   P8    1.751443 S    
C35   C36   1.441481 A    
C56   H66   1.100345 S    
Ba1   O13   2.895789 S    
C4    O15   1.396926 S    
P5    O17   1.765142 S    
C12   H21   1.107364 S    
C15   H28   1.107849 S    
C23   H34   1.082620 S    
P1    O5    1.752606 S    
Ba2   O21   2.878813 S    
C5    H6    1.109031 S    
C47   H48   1.108302 S    
C25   C26   1.422341 A    
O2    Ba2   2.896472 S    
C10   N1    1.465687 S    
C1    H1    1.103024 S    
O16   Ba2   2.955196 S    
P7    C38   1.912525 S    
C12   N3    1.463752 S    
C20   C21   1.400085 A    
C39   C43   1.423443 A    
O7    Ba1   2.878715 S    
P1    O2    1.623026 S    
C14   H27   1.109304 S    
C20   C51   1.508231 S    
C9    H14   1.094361 S    
C47   H49   1.094452 S    
C25   C27   1.383704 A    
P3    O11   1.761844 S    
O3    Ba1   2.851050 S    
O5    C6    1.396238 S    
C3    N7    1.459324 S    
C52   H57   1.110400 S    
C1    C47   1.545907 S    
C54   H61   1.107053 S    
C2    H2    1.105225 S    
C54   H62   1.108880 S    
C45   H44   1.110492 S    
C33   C38   1.417394 A    
O1    Ba1   2.912624 S    
C27   C28   1.403495 A    
C51   H58   1.077027 S    
C19   C20   1.435245 A    
P2    O20   1.587800 S    
O19   C13   1.405942 S    
C41   C44   1.380079 A    
N2    O27   1.300667 A    
P2    O7    1.533696 D    
C49   H53   1.094903 S    
C44   H39   1.082765 S    
C53   H63   1.063563 S    
O14   Ba2   2.850345 S    
C48   H46   1.110688 S    
N6    O35   1.297607 A    
C36   C43   1.535773 S    
C52   H56   1.107835 S    
C28   C29   1.451154 A    
C4    H5    1.105387 S    
C53   C54   1.525082 S    
P8    O23   1.543067 D    
C50   H51   1.110385 S    
O8    Ba1   2.797158 S    
O6    C10   1.422489 S    
C47   C48   1.516841 S    
P8    C17   1.883410 S    
C6    H7    1.098480 S    
C56   H65   1.064323 S    
C55   H68   1.103416 S    
N1    O26   1.301924 A    
C33   C55   1.480322 S    
Ba1   O16   2.829459 S    
P4    O15   1.746412 S    
C7    H11   1.111146 S    
P5    C34   1.894447 S    
O2    Ba1   2.955820 S    
C16   H31   1.111943 S    
C2    N6    1.458990 S    
C1    C10   1.589683 S    
N7    O38   1.301182 A    
C29   C31   1.451422 A    
N3    O30   1.301027 A    
C40   C44   1.377173 A    
C32   H35   1.069896 S    
C36   C37   1.433552 A    
P5    O19   1.754665 S    
Ba1   Ba2   4.670910 S    
C11   C12   1.528422 S    
C22   C23   1.403947 A    
C29   C30   1.441719 A    
C9    H15   1.103265 S    
C13   H23   1.107619 S    
C7    H10   1.110433 S    
P3    O8    1.761603 S    
O13   Ba2   2.956828 S    
C24   C25   1.436385 A    
P1    Ba1   3.450088 S    
C48   H47   1.110696 S    
C5    N2    1.459481 S    
C2    C3    1.543937 S    
C11   H19   1.100746 S    
C45   H43   1.108777 S    
C3    H22   1.097705 S    
C8    H13   1.109228 S    
N4    O31   1.299259 A    
C33   C34   1.406936 A    
C14   H25   1.109537 S    
N2    O28   1.296308 A    
N3    O29   1.300287 A    
C49   H54   1.110166 S    
H30   C16   1.106732 S    
C16   N4    1.454984 S    
C18   C21   1.386203 A    
C52   H55   1.107335 S    
C28   C53   1.525211 S    
C17   C18   1.425407 A    
C15   H29   1.114123 S    
C4    C5    1.534519 S    
C37   H38   1.074386 S    
C34   C35   1.405963 A    
C46   H41   1.107268 S    
P8    O24   1.742444 S    
C50   H50   1.108951 S    
C55   H69   1.096818 S    
C42   H37   1.064697 S    
C49   C50   1.537067 S    
C24   C32   1.393479 A    
O11   C2    1.407833 S    
C45   C46   1.539337 S    
