data_mof_unit_9103.cif
_audit_creation_date              2012-12-11T16:05:00-0500
_audit_creation_method            fapswitch 2.2
_symmetry_space_group_name_H-M    P1
_symmetry_Int_Tables_number       1
_space_group_crystal_system       triclinic
_cell_length_a                    10.657586
_cell_length_b                    10.577194
_cell_length_c                    16.924181
_cell_angle_alpha                 98.545425
_cell_angle_beta                  98.699582
_cell_angle_gamma                 61.831225
_cell_volume                      1655.97264893

loop_
_atom_site_label
_atom_site_type_symbol
_atom_type_description
_atom_site_fract_x
_atom_site_fract_y
_atom_site_fract_z
_atom_type_partial_charge
C1    C     C_R   0.354682 0.776843 0.399807 0.548211
C2    C     C_3   0.759629 0.286333 0.247715 -0.119916
C3    C     C_3   0.819255 0.350854 0.321563 0.055560
C4    C     C_3   0.972097 0.255869 0.302159 -0.150440
C5    C     C_3   0.959614 0.374585 0.253770 -0.131042
C6    C     C_3   0.804774 0.471122 0.274313 -0.103784
C7    C     C_3   0.747629 0.404904 0.199226 -0.110918
C8    C     C_3   0.902306 0.308055 0.179919 0.061033
C9    C     C_3   0.449612 0.798649 0.218216 -0.113895
C10   C     C_3   0.379390 0.718234 0.248628 -0.111191
C11   C     C_3   0.343540 0.825991 0.323405 0.058410
C12   C     C_R   0.371017 0.346964 0.358670 0.547481
C13   C     C_3   0.416168 0.904166 0.295177 -0.118986
C14   C     C_3   0.269759 0.004750 0.253779 -0.148048
C15   C     C_3   0.199069 0.924198 0.283516 -0.138706
C16   C     C_3   0.232962 0.817953 0.207992 -0.104911
C17   C     C_3   0.302509 0.898642 0.178744 0.059497
C18   C     C_3   0.481487 0.295467 0.797825 -0.093670
C19   C     C_3   0.416385 0.439545 0.758549 -0.169252
C20   C     C_3   0.379136 0.364501 0.680237 0.053286
C21   C     C_3   0.441450 0.224107 0.719711 0.162312
C22   C     C_3   0.294389 0.264497 0.744201 -0.103515
C23   C     C_R   0.772871 0.379439 0.400504 0.561481
C24   C     C_3   0.230342 0.408364 0.705607 -0.124809
C25   C     C_3   0.267036 0.482538 0.785393 -0.129893
C26   C     C_3   0.332708 0.338485 0.822593 0.030907
C27   C     C_1   0.768814 0.367234 0.715515 -0.041981
C28   C     C_1   0.813411 0.329844 0.782226 -0.046416
C29   C     C_1   0.338150 0.812502 0.709716 -0.060427
C30   C     C_1   0.312879 0.839541 0.778414 -0.057389
C31   C     C_R   0.954277 0.286529 0.102776 0.538688
C32   C     C_R   0.319482 0.300054 0.120057 0.530350
C33   C     C_R   0.262673 0.950023 0.099624 0.540445
C34   C     C_R   0.356639 0.771833 0.627179 0.532577
C35   C     C_R   0.878568 0.302380 0.862157 0.553843
C36   C     C_R   0.310944 0.298004 0.895180 0.546737
C37   C     C_R   0.279865 0.884699 0.858955 0.555804
C38   C     C_R   0.408207 0.376951 0.601267 0.545884
C39   C     C_R   0.718487 0.410246 0.635744 0.534435
C40   C     C_1   0.344941 0.337191 0.274875 -0.069706
C41   C     C_1   0.332956 0.327348 0.203653 -0.065532
C42   C     C_3   0.914603 0.189124 0.226626 -0.129814
Cr1   Cr    Cr6+3 0.608340 0.611040 0.520430 1.006749
Cr2   Cr    Cr6+3 0.287650 0.601120 0.489350 1.022667
Cr3   Cr    Cr6+3 0.604040 0.287870 0.490280 1.027049
Cr4   Cr    Cr6+3 0.054020 0.052700 0.970850 1.014752
Cr5   Cr    Cr6+3 0.059230 0.375120 0.993390 1.017822
Cr6   Cr    Cr6+3 0.374950 0.061200 0.992340 1.014935
H1    H     H_    0.676831 0.250804 0.247707 0.132897
H2    H     H_    0.231267 0.121550 0.251814 0.100456
H3    H     H_    0.100880 0.965984 0.314671 0.125727
H4    H     H_    0.157848 0.781796 0.171821 0.135524
H5    H     H_    0.466554 0.511656 0.762592 0.097746
H6    H     H_    0.583293 0.250378 0.837025 0.121288
H7    H     H_    0.245237 0.191156 0.739395 0.115045
H8    H     H_    0.128212 0.454046 0.666719 0.147028
H9    H     H_    0.195374 0.588722 0.814840 0.142156
H10   H     H_    0.953122 0.075926 0.200870 0.127368
H11   H     H_    0.058338 0.203862 0.349890 0.114666
H12   H     H_    0.041668 0.411084 0.254141 0.119028
H13   H     H_    0.758718 0.587340 0.295502 0.129282
H14   H     H_    0.657404 0.464850 0.155094 0.121089
H15   H     H_    0.425286 0.599702 0.249119 0.108235
H16   H     H_    0.550937 0.748134 0.189137 0.121603
H17   H     H_    0.490602 0.938799 0.333494 0.132990
O1    O     O_R   0.751220 0.499230 0.435170 -0.515820
O2    O     O_R   0.297880 0.469080 0.560050 -0.501423
O3    O     O_R   0.489720 0.254590 0.564810 -0.502768
O4    O     O_R   0.725220 0.304230 0.585080 -0.492101
O5    O     O_3   0.500010 0.500010 0.500020 -0.294744
O6    O     O_R   0.171830 0.913880 0.057510 -0.528180
O7    O     O_R   0.940690 0.186050 0.054730 -0.512162
O8    O     O_R   0.920470 0.405720 0.075010 -0.511039
O9    O     O_R   0.196690 0.370460 0.084120 -0.517835
O10   O     O_R   0.412990 0.180750 0.091610 -0.513443
O11   O     O_R   0.366620 0.943130 0.065760 -0.494878
O12   O     O_R   0.477220 0.727600 0.436870 -0.505753
O13   O     O_R   0.160510 0.906330 0.879210 -0.504661
O14   O     O_R   0.930190 0.179050 0.889450 -0.490893
O15   O     O_R   0.909140 0.398170 0.896710 -0.502495
O16   O     O_R   0.186190 0.363460 0.918830 -0.495058
O17   O     O_R   0.401670 0.173200 0.913310 -0.521934
O18   O     O_R   0.356120 0.936130 0.900470 -0.495184
O19   O     O_3   0.162740 0.163010 0.985530 -0.286325
O20   O     O_R   0.258650 0.745120 0.411470 -0.514214
O21   O     O_R   0.297070 0.467240 0.395960 -0.490082
O22   O     O_R   0.488830 0.252610 0.387790 -0.515412
O23   O     O_R   0.724400 0.302390 0.420980 -0.500091
O24   O     O_R   0.752100 0.501210 0.612190 -0.504097
O25   O     O_R   0.478040 0.729440 0.600970 -0.521651
O26   O     O_R   0.259530 0.747110 0.588490 -0.505599
N1    N     N_2   0.533282 0.082544 0.683497 -0.489785
H18   H     H_    0.484591 0.053309 0.631837 0.268743
C43   C     C_3   0.600753 0.970397 0.737867 -0.282248
H19   H     H_    0.666158 0.866098 0.704292 0.156047
H20   H     H_    0.518701 0.960184 0.766001 0.157271
H21   H     H_    0.672568 0.994528 0.785270 0.159012

loop_
_geom_bond_atom_site_label_1
_geom_bond_atom_site_label_2
_ccdc_geom_bond_type
C18   C21   S    
C1    O12   A    
Cr6   O11   S    
C3    C23   S    
C19   C20   S    
C1    C11   S    
C3    C6    S    
C42   H10   S    
C32   O10   A    
C7    C8    S    
C13   H17   S    
Cr1   O24   S    
C25   H9    S    
C6    H13   S    
Cr3   O22   S    
C8    C42   S    
C32   O9    A    
C5    C6    S    
C31   O8    A    
C15   C16   S    
C9    H16   S    
C35   O15   A    
C18   C19   S    
C9    C13   S    
C34   O26   A    
C11   C15   S    
C10   H15   S    
C2    C7    S    
C28   C35   S    
C36   O17   A    
C16   C17   S    
C18   C26   S    
C32   C41   S    
Cr2   O5    S    
C15   H3    S    
C9    C10   S    
Cr4   O7    S    
C12   O22   A    
C19   H5    S    
C21   C22   S    
Cr6   O10   S    
C17   C33   S    
Cr5   O15   S    
Cr2   O21   S    
C1    O20   A    
Cr1   O25   S    
C14   H2    S    
Cr3   O4    S    
C20   C24   S    
Cr3   O23   S    
C24   C25   S    
Cr5   O8    S    
C27   C39   S    
Cr4   O13   S    
C18   H6    S    
C43   H21   S    
C25   C26   S    
C29   C34   S    
Cr6   O19   S    
C30   C37   S    
C12   C40   S    
C34   O25   A    
C7    H14   S    
C29   C30   T    
C2    H1    S    
C20   C38   S    
C33   O11   A    
C36   O16   A    
Cr3   O3    S    
N1    C43   S    
C39   O4    A    
Cr5   O19   S    
C20   C21   S    
C43   H20   S    
Cr4   O6    S    
C6    C7    S    
Cr2   O26   S    
Cr4   O19   S    
C9    C17   S    
C31   O7    A    
C38   O3    A    
Cr1   O5    S    
C23   O23   A    
C22   C24   S    
Cr1   O12   S    
C3    C4    S    
C23   O1    A    
C26   C36   S    
C40   C41   T    
C5    H12   S    
Cr3   O5    S    
C8    C31   S    
C16   H4    S    
Cr5   O9    S    
C4    C5    S    
C5    C8    S    
C22   H7    S    
C24   H8    S    
C37   O13   A    
Cr6   O18   S    
C12   O21   A    
C2    C3    S    
C10   C16   S    
C11   C13   S    
Cr4   O14   S    
C4    C42   S    
C2    C42   S    
Cr1   O1    S    
C4    H11   S    
C35   O14   A    
N1    H18   S    
Cr6   O17   S    
Cr5   O16   S    
C43   H19   S    
C19   C25   S    
C10   C11   S    
C33   O6    A    
C38   O2    A    
C22   C26   S    
C27   C28   T    
C14   C15   S    
C37   O18   A    
Cr2   O2    S    
C13   C14   S    
C39   O24   A    
Cr2   O20   S    
C21   N1    S    
C14   C17   S    
