data_mof_unit_49788.cif
_audit_creation_date              2012-12-11T14:40:22-0500
_audit_creation_method            fapswitch 2.2
_symmetry_space_group_name_H-M    P1
_symmetry_Int_Tables_number       1
_space_group_crystal_system       triclinic
_cell_length_a                    19.525142
_cell_length_b                    10.958345
_cell_length_c                    19.435743
_cell_angle_alpha                 89.863695
_cell_angle_beta                  97.74936
_cell_angle_gamma                 90.008759
_cell_volume                      4120.54464984

loop_
_atom_site_label
_atom_site_type_symbol
_atom_type_description
_atom_site_fract_x
_atom_site_fract_y
_atom_site_fract_z
_atom_type_partial_charge
C1    C     C_R   0.727172 0.945737 0.358264 0.540964
C2    C     C_3   0.267972 0.342132 0.558773 0.028546
C3    C     C_2   0.611375 0.837058 0.449548 0.606772
C4    C     C_3   0.230778 0.837256 0.440748 0.020548
C5    C     C_3   0.758260 0.881718 0.563627 0.045209
C6    C     C_3   0.717681 0.473044 0.465580 -0.112133
C7    C     C_3   0.299462 0.454595 0.528230 -0.105666
C8    C     C_3   0.259922 0.961688 0.464591 -0.101633
C9    C     C_3   0.817218 0.914981 0.522224 -0.101885
C10   C     C_3   0.788354 0.471003 0.512135 -0.144040
C11   C     C_3   0.228063 0.480166 0.485961 -0.119551
C12   C     C_3   0.309529 0.897432 0.521136 -0.133892
C13   C     C_R   0.273917 0.950454 0.639709 0.568709
C14   C     C_3   0.767257 0.007097 0.481945 -0.124261
C15   C     C_3   0.803860 0.342626 0.486922 -0.104251
C16   C     C_3   0.196655 0.367912 0.517120 -0.075085
C17   C     C_3   0.280716 0.771824 0.496938 -0.136640
C18   C     C_3   0.708603 0.971972 0.524575 -0.125630
C19   C     C_3   0.768029 0.285752 0.544986 0.046311
C20   C     C_3   0.217137 0.288347 0.458517 0.048692
C21   C     C_3   0.225203 0.782154 0.546262 0.045698
C22   C     C_3   0.685395 0.870762 0.472753 0.070398
C23   C     C_3   0.752973 0.412344 0.569778 0.038647
C24   C     C_R   0.227693 0.445950 0.358027 0.557155
C25   C     C_3   0.248304 0.399972 0.427582 0.029576
C26   C     C_3   0.253810 0.906223 0.569795 0.029005
C27   C     C_3   0.742843 0.906853 0.429582 0.027377
C28   C     C_3   0.499621 0.274420 0.978122 -0.097508
C29   C     C_3   0.449871 0.270796 0.033212 -0.115796
C30   C     C_3   0.999631 0.774420 0.978119 -0.096934
C31   C     C_3   0.949880 0.770799 0.033209 -0.116156
C32   C     C_3   0.544524 0.173885 0.016520 -0.107632
C33   C     C_3   0.406273 0.170333 0.991991 -0.146647
C34   C     C_3   0.044533 0.673885 0.016518 -0.107423
C35   C     C_R   0.773632 0.451321 0.639956 0.570604
C36   C     C_3   0.906283 0.670335 0.991988 -0.147282
C37   C     C_3   0.494797 0.170593 0.071277 0.053962
C38   C     C_3   0.456529 0.174336 0.937774 0.044950
C39   C     C_3   0.994805 0.670594 0.071274 0.053636
C40   C     C_3   0.956538 0.674336 0.937772 0.045313
C41   C     C_R   0.535017 0.180042 0.337758 0.533652
C42   C     C_R   0.464530 0.180215 0.661917 0.546112
C43   C     C_R   0.034631 0.679876 0.337469 0.527824
C44   C     C_R   0.963975 0.680225 0.661525 0.559992
C45   C     C_3   0.451835 0.069706 0.031720 -0.120054
C46   C     C_3   0.697202 0.285586 0.498407 -0.171280
C47   C     C_3   0.501259 0.073587 0.975787 -0.102300
C48   C     C_3   0.951844 0.569708 0.031717 -0.120438
C49   C     C_3   0.001268 0.573587 0.975785 -0.101896
C50   C     C_1   0.757293 0.408651 0.899556 0.000196
C51   C     C_1   0.237436 0.425281 0.095962 -0.002601
C52   C     C_1   0.257288 0.908640 0.899551 -0.001399
C53   C     C_1   0.737439 0.925276 0.095966 -0.003802
C54   C     C_1   0.733230 0.358432 0.025361 -0.047222
C55   C     C_1   0.252609 0.408060 0.965390 -0.047188
C56   C     C_1   0.233228 0.858432 0.025359 -0.046445
C57   C     C_3   0.288443 0.260192 0.500719 -0.177507
C58   C     C_1   0.752620 0.908032 0.965401 -0.047637
C59   C     C_1   0.744306 0.382595 0.956550 -0.039004
C60   C     C_1   0.245995 0.415303 0.036250 -0.048011
C61   C     C_1   0.244301 0.882587 0.956546 -0.039106
C62   C     C_1   0.746003 0.915287 0.036257 -0.048206
C63   C     C_1   0.726735 0.338450 0.085035 -0.013026
C64   C     C_1   0.257339 0.394886 0.904946 -0.003269
C65   C     C_1   0.226735 0.838454 0.085034 -0.012197
C66   C     C_1   0.757350 0.894852 0.904958 -0.002018
C67   C     C_R   0.724813 0.310140 0.367862 0.560760
C68   C     C_3   0.174470 0.845167 0.488956 -0.134751
C69   C     C_R   0.275436 0.309615 0.632280 0.563302
C70   C     C_R   0.223874 0.806944 0.367207 0.564873
C71   C     C_R   0.762086 0.858081 0.636486 0.599903
C72   C     C_R   0.722140 0.952471 0.163864 0.538436
C73   C     C_R   0.277363 0.950727 0.835494 0.546919
C74   C     C_R   0.222142 0.452466 0.163865 0.544886
C75   C     C_R   0.777367 0.450736 0.835498 0.545524
C76   C     C_R   0.527254 0.178678 0.142660 0.535828
C77   C     C_R   0.436434 0.182503 0.862940 0.560040
C78   C     C_R   0.027257 0.678679 0.142658 0.534689
C79   C     C_3   0.734839 0.778971 0.512299 -0.143046
C80   C     C_R   0.936438 0.682503 0.862941 0.557722
C81   C     C_R   0.721816 0.310338 0.156131 0.559666
C82   C     C_R   0.263999 0.360521 0.835558 0.546021
C83   C     C_R   0.221816 0.810342 0.156131 0.559122
C84   C     C_R   0.764008 0.860491 0.835572 0.553098
C85   C     C_1   0.485134 0.172812 0.594460 0.000482
C86   C     C_1   0.513078 0.172487 0.404634 0.015156
C87   C     C_1   0.983114 0.672555 0.593467 0.040601
C88   C     C_1   0.011412 0.671457 0.403751 -0.007506
C89   C     C_1   0.502721 0.169747 0.464099 -0.020857
C90   C     C_3   0.733033 0.344811 0.440794 0.015727
C91   C     C_1   0.494664 0.169771 0.534763 -0.030250
C92   C     C_1   0.000209 0.668074 0.462949 -0.039648
C93   C     C_1   0.991895 0.668733 0.533556 -0.003281
C94   C     C_3   0.682326 0.415304 0.524532 -0.125475
C95   C     C_3   0.319600 0.374344 0.468662 -0.147852
C96   C     C_3   0.204143 0.971064 0.513851 -0.129507
C97   C     C_3   0.792728 0.814618 0.468618 -0.172741
C98   C     C_2   0.798968 0.193091 0.597123 0.572361
C99   C     C_2   0.167798 0.204485 0.415510 0.571761
C100  C     C_2   0.207497 0.688551 0.597321 0.553812
Cr1   Cr    Cr6+3 0.765830 0.160660 0.268180 1.023778
Cr2   Cr    Cr6+3 0.384070 0.324050 0.751550 1.036647
Cr3   Cr    Cr6+3 0.115930 0.824050 0.248450 1.055742
Cr4   Cr    Cr6+3 0.884070 0.824050 0.751550 1.035534
Cr5   Cr    Cr6+3 0.234170 0.160660 0.731820 1.035350
Cr6   Cr    Cr6+3 0.265830 0.660660 0.268180 1.028809
Cr7   Cr    Cr6+3 0.734170 0.660660 0.731820 1.036138
Cr8   Cr    Cr6+3 0.612110 0.009150 0.248770 1.055874
Cr9   Cr    Cr6+3 0.387890 0.009150 0.751230 1.043805
Cr10  Cr    Cr6+3 0.112110 0.509150 0.248770 1.051588
Cr11  Cr    Cr6+3 0.887890 0.509150 0.751230 1.058404
Cr12  Cr    Cr6+3 0.615930 0.324050 0.248450 1.047027
H1    H     H_    0.658601 0.211412 0.489059 0.112547
H2    H     H_    0.333716 0.521018 0.559095 0.163736
H3    H     H_    0.277118 0.029896 0.428464 0.170393
H4    H     H_    0.871642 0.932736 0.544510 0.160519
H5    H     H_    0.365079 0.920358 0.535119 0.141401
H6    H     H_    0.783645 0.097518 0.465248 0.143200
H7    H     H_    0.825958 0.547422 0.519752 0.113033
H8    H     H_    0.200304 0.567545 0.475049 0.123399
H9    H     H_    0.853690 0.312083 0.471173 0.166357
H10   H     H_    0.146154 0.366572 0.537438 0.185382
H11   H     H_    0.313334 0.692992 0.486872 0.125835
H12   H     H_    0.316226 0.172871 0.511762 0.096532
H13   H     H_    0.674012 0.032378 0.549960 0.159886
H14   H     H_    0.601830 0.174939 0.027796 0.109414
H15   H     H_    0.349061 0.168708 0.979840 0.114201
H16   H     H_    0.101839 0.674938 0.027795 0.108732
H17   H     H_    0.849071 0.668710 0.979837 0.113296
H18   H     H_    0.432469 0.986570 0.055524 0.131654
H19   H     H_    0.522455 0.993301 0.951040 0.138109
H20   H     H_    0.932478 0.486571 0.055522 0.131019
H21   H     H_    0.022464 0.493302 0.951037 0.138132
H22   H     H_    0.883628 0.098429 0.636939 0.343904
H23   H     H_    0.119060 0.823637 0.473959 0.140600
H24   H     H_    0.072944 0.128583 0.400142 0.344205
H25   H     H_    0.240247 0.585762 0.681384 0.356287
H26   H     H_    0.510841 0.871743 0.454730 0.338348
H27   H     H_    0.519921 0.358494 0.956091 0.144775
H28   H     H_    0.428751 0.350960 0.058153 0.133433
H29   H     H_    0.019931 0.858493 0.956087 0.144951
H30   H     H_    0.928761 0.850963 0.058149 0.132892
H31   H     H_    0.719896 0.687586 0.529273 0.136237
H32   H     H_    0.633465 0.446294 0.542181 0.141210
H33   H     H_    0.369261 0.377353 0.446837 0.132964
H34   H     H_    0.173478 0.051572 0.525538 0.169523
H35   H     H_    0.826187 0.750199 0.444375 0.121238
H36   H     H_    0.696992 0.548860 0.430878 0.170376
O1    O     O_R   0.783230 0.287800 0.346510 -0.510476
O2    O     O_R   0.454570 0.285140 0.836900 -0.510755
O3    O     O_R   0.045430 0.785140 0.163100 -0.521622
O4    O     O_R   0.954570 0.785140 0.836900 -0.511289
O5    O     O_R   0.677850 0.374730 0.185500 -0.477160
O6    O     O_R   0.322150 0.374730 0.814500 -0.505523
O7    O     O_R   0.177850 0.874730 0.185500 -0.469618
O8    O     O_R   0.822150 0.874730 0.814500 -0.504215
O9    O     O_3   0.664630 0.164620 0.255130 -0.306860
O10   O     O_3   0.335370 0.164620 0.744870 -0.310401
O11   O     O_3   0.164630 0.664620 0.255130 -0.314364
O12   O     O_R   0.216770 0.287800 0.653490 -0.508196
O13   O     O_3   0.835370 0.664620 0.744870 -0.295565
O14   O     O_R   0.760130 0.037060 0.338610 -0.527024
O15   O     O_R   0.239870 0.037060 0.661390 -0.524691
O16   O     O_R   0.260130 0.537060 0.338610 -0.530064
O17   O     O_R   0.739870 0.537060 0.661390 -0.516871
O18   O     O_R   0.666620 0.921370 0.332440 -0.478633
O19   O     O_R   0.333380 0.921370 0.667560 -0.488407
O20   O     O_R   0.166620 0.421370 0.332440 -0.475831
O21   O     O_R   0.833380 0.421370 0.667560 -0.480821
O22   O     O_R   0.557170 0.082420 0.312350 -0.481820
O23   O     O_R   0.283230 0.787800 0.346510 -0.501011
O24   O     O_R   0.442830 0.082420 0.687650 -0.492414
O25   O     O_R   0.057170 0.582420 0.312350 -0.488882
O26   O     O_R   0.942830 0.582420 0.687650 -0.486609
O27   O     O_R   0.548310 0.285980 0.316250 -0.514170
O28   O     O_R   0.451690 0.285980 0.683750 -0.508834
O29   O     O_R   0.048310 0.785980 0.316250 -0.521546
O30   O     O_R   0.951690 0.785980 0.683750 -0.513239
O31   O     O_R   0.680520 0.375500 0.327470 -0.476983
O32   O     O_R   0.319480 0.375500 0.672530 -0.484588
O33   O     O_R   0.180520 0.875500 0.327470 -0.448288
O34   O     O_R   0.716770 0.787800 0.653490 -0.513536
O35   O     O_R   0.819480 0.875500 0.672530 -0.495775
O36   O     O_R   0.780350 0.286970 0.193350 -0.493884
O37   O     O_R   0.219650 0.286970 0.806650 -0.499219
O38   O     O_R   0.280350 0.786970 0.193350 -0.492320
O39   O     O_R   0.719650 0.786970 0.806650 -0.502624
O40   O     O_R   0.757460 0.036290 0.196640 -0.514897
O41   O     O_R   0.242540 0.036290 0.803360 -0.495756
O42   O     O_R   0.257460 0.536290 0.196640 -0.515789
O43   O     O_R   0.742540 0.536290 0.803360 -0.498812
O44   O     O_R   0.663740 0.920540 0.179290 -0.498416
O45   O     O_R   0.554500 0.081650 0.170370 -0.501317
O46   O     O_R   0.336260 0.920540 0.820710 -0.504847
O47   O     O_R   0.163740 0.420540 0.179290 -0.492522
O48   O     O_R   0.836260 0.420540 0.820710 -0.506257
O49   O     O_2   0.765215 0.154977 0.641216 -0.528810
O50   O     O_R   0.867655 0.157116 0.597646 -0.702577
O51   O     O_2   0.184740 0.156496 0.363677 -0.502403
O52   O     O_R   0.101500 0.186290 0.433159 -0.707931
O53   O     O_2   0.148599 0.649177 0.593449 -0.538287
O54   O     O_R   0.258524 0.647757 0.649609 -0.683336
O55   O     O_2   0.597826 0.750104 0.410826 -0.514249
O56   O     O_R   0.445500 0.081650 0.829630 -0.496581
O57   O     O_R   0.558448 0.903393 0.473657 -0.710076
O58   O     O_R   0.054500 0.581650 0.170370 -0.501885
O59   O     O_R   0.945500 0.581650 0.829630 -0.497571
O60   O     O_R   0.545430 0.285140 0.163100 -0.520940

loop_
_geom_bond_atom_site_label_1
_geom_bond_atom_site_label_2
_ccdc_geom_bond_type
C58   C62   S    
Cr12  O27   S    
C21   C26   S    
Cr7   O17   S    
C56   C61   S    
Cr8   O22   S    
C67   O1    A    
Cr11  O26   S    
C33   C45   S    
Cr6   O23   S    
C14   C18   S    
C19   C23   S    
C2    C7    S    
C95   H33   S    
C51   C74   S    
C4    C8    S    
C5    C18   S    
Cr2   O10   S    
C4    C70   S    
C85   C91   T    
C19   C46   S    
C81   O5    A    
Cr8   O45   S    
C7    C11   S    
C41   C86   S    
C68   C96   S    
C30   H29   S    
C63   C81   S    
C50   C59   T    
C7    H2    S    
C28   C29   S    
C24   O20   A    
C44   O26   A    
C22   C79   S    
C52   C61   T    
C18   H13   S    
C30   C31   S    
C65   C83   S    
Cr5   O12   S    
C83   O7    A    
C54   C63   T    
C11   C25   S    
Cr2   O28   S    
C40   C49   S    
Cr7   O39   S    
C33   H15   S    
C69   O12   A    
C3    O55   D    
C80   O4    A    
C11   C16   S    
C32   H14   S    
C16   H10   S    
C72   O40   A    
Cr8   O18   S    
C10   H7    S    
Cr9   O19   S    
C8    H3    S    
C15   C19   S    
Cr10  O20   S    
C58   C66   T    
Cr4   O30   S    
C88   C92   T    
C29   C33   S    
C14   H6    S    
Cr11  O13   S    
C99   O52   S    
Cr5   O15   S    
C83   O38   A    
Cr6   O16   S    
C14   C27   S    
C89   C91   S    
C2    C69   S    
C2    C16   S    
Cr2   O6    S    
C98   O49   D    
Cr9   O24   S    
Cr3   O3    S    
Cr11  O48   S    
C75   O48   A    
C41   O27   A    
Cr1   O9    S    
C45   H18   S    
C74   O42   A    
C55   C60   S    
C97   H35   S    
C71   O34   A    
C24   O16   A    
C28   H27   S    
C100  O54   S    
C11   H8    S    
C19   C98   S    
C17   H11   S    
C78   O3    A    
C13   O15   A    
C54   C59   S    
C45   C47   S    
C26   C96   S    
C79   H31   S    
C2    C57   S    
Cr12  O9    S    
C98   O50   S    
C82   O37   A    
C34   C39   S    
C3    O57   S    
C39   C78   S    
Cr7   O13   S    
C36   C40   S    
C24   C25   S    
Cr6   O38   S    
C43   O29   A    
C52   C73   S    
C76   O45   A    
C44   O30   A    
Cr4   O13   S    
C4    C68   S    
C21   C100  S    
C30   C34   S    
Cr8   O9    S    
Cr7   O34   S    
C6    C94   S    
C6    C90   S    
C67   C90   S    
C17   C21   S    
C12   H5    S    
C12   C26   S    
Cr11  O21   S    
C12   C17   S    
C75   O43   A    
C9    C14   S    
C78   O58   A    
C5    C9    S    
Cr5   O41   S    
C8    C96   S    
C6    H36   S    
C100  O53   D    
C70   O33   A    
Cr5   O10   S    
C46   C94   S    
C28   C32   S    
C8    C12   S    
H26   O57   S    
C55   C64   T    
Cr4   O35   S    
C40   C80   S    
C30   C40   S    
Cr9   O46   S    
Cr10  O58   S    
C42   C85   S    
C16   C20   S    
C32   C37   S    
Cr4   O8    S    
C64   C82   S    
C38   C47   S    
Cr1   O36   S    
C42   O24   A    
Cr2   O2    S    
Cr12  O31   S    
C4    C17   S    
Cr3   O7    S    
C48   C49   S    
C37   C76   S    
C1    O14   A    
C25   C95   S    
C23   C35   S    
C22   C27   S    
C21   C68   S    
C57   C95   S    
C35   O21   A    
C32   C47   S    
Cr9   O10   S    
C13   C26   S    
C44   C87   S    
C5    C79   S    
C43   C88   S    
C56   C65   T    
C29   C37   S    
Cr1   O40   S    
C77   O56   A    
Cr11  O59   S    
C7    C95   S    
Cr10  O25   S    
C50   C75   S    
H22   O50   S    
C29   H28   S    
C49   H21   S    
C74   O47   A    
Cr1   O14   S    
C34   C49   S    
C9    C97   S    
C15   H9    S    
C46   H1    S    
C10   C15   S    
C31   C36   S    
C9    H4    S    
C79   C97   S    
Cr9   O56   S    
C48   H20   S    
C3    C22   S    
C86   C89   T    
C77   O2    A    
C6    C10   S    
C34   H16   S    
C46   C90   S    
C38   C77   S    
C10   C23   S    
C96   H34   S    
C41   O22   A    
Cr5   O37   S    
C33   C38   S    
C23   C94   S    
Cr2   O32   S    
Cr12  O5    S    
C94   H32   S    
Cr4   O4    S    
C31   H30   S    
C18   C22   S    
C20   C57   S    
C69   O32   A    
C67   O31   A    
C36   H17   S    
C15   C90   S    
C84   O8    A    
Cr3   O11   S    
C43   O25   A    
C20   C99   S    
C1    O18   A    
C68   H23   S    
C99   O51   D    
Cr3   O33   S    
C87   C93   T    
Cr1   O1    S    
C92   C93   S    
C35   O17   A    
C31   C39   S    
C36   C48   S    
C70   O23   A    
H24   O52   S    
C13   O19   A    
C27   C97   S    
C66   C84   S    
Cr7   O43   S    
C82   O6    A    
C76   O60   A    
C80   O59   A    
C53   C62   T    
C5    C71   S    
C20   C25   S    
Cr12  O60   S    
C47   H19   S    
Cr10  O47   S    
C1    C27   S    
Cr6   O42   S    
H25   O54   S    
Cr8   O44   S    
C84   O39   A    
C42   O28   A    
C51   C60   T    
C81   O36   A    
Cr3   O29   S    
C28   C38   S    
C73   O46   A    
C53   C72   S    
C37   C45   S    
C72   O44   A    
C73   O41   A    
Cr10  O11   S    
Cr6   O11   S    
C39   C48   S    
C57   H12   S    
C71   O35   A    
