data_mof_unit_37107.cif
_audit_creation_date              2012-10-26T20:21:18-0400
_audit_creation_method            fapswitch 2.2
_symmetry_space_group_name_H-M    P1
_symmetry_Int_Tables_number       1
_space_group_crystal_system       triclinic
_cell_length_a                    9.587594
_cell_length_b                    10.777106
_cell_length_c                    15.876507
_cell_angle_alpha                 89.625933
_cell_angle_beta                  72.27787
_cell_angle_gamma                 89.861179
_cell_volume                      1562.58080174

loop_
_atom_site_label
_atom_site_type_symbol
_atom_type_description
_atom_site_fract_x
_atom_site_fract_y
_atom_site_fract_z
_atom_type_partial_charge
C1    C     C_R   0.001280 0.262530 0.497887 0.557154
C2    C     C_R   0.121211 0.062231 0.442275 0.073470
C3    C     C_R   0.998006 0.871418 0.502456 0.008713
C4    C     C_R   0.001974 0.128700 0.497162 0.010064
C5    C     C_R   0.546771 0.422574 0.554786 0.027494
C6    C     C_R   0.453305 0.577265 0.445091 0.032886
C7    C     C_R   0.398573 0.422344 0.554555 0.028936
C8    C     C_R   0.601647 0.577207 0.445097 0.049825
C9    C     C_R   0.916091 0.494049 0.671094 0.582783
C10   C     C_R   0.083864 0.490420 0.329493 0.546934
C11   C     C_R   0.867257 0.467503 0.766211 -0.010256
C12   C     C_R   0.998762 0.737507 0.501970 0.566250
C13   C     C_R   0.132981 0.457441 0.235887 -0.016188
C14   C     C_R   0.902799 0.364799 0.894780 0.271154
C15   C     C_R   0.094997 0.359625 0.107006 0.283990
C16   C     C_R   0.958348 0.402004 0.806117 0.203871
C17   C     C_R   0.045185 0.384549 0.198179 0.219542
C18   C     C_R   0.720324 0.488536 0.814535 -0.180292
C19   C     C_R   0.277030 0.485007 0.186004 -0.170170
C20   C     C_R   0.668079 0.457269 0.904548 -0.018657
C21   C     C_R   0.327848 0.455673 0.096157 -0.016997
C22   C     C_R   0.767549 0.411158 0.946554 0.054496
C23   C     C_R   0.585786 0.439746 0.088904 -0.133111
C24   C     C_R   0.227744 0.411203 0.054668 0.056069
C25   C     C_R   0.518131 0.460837 0.953407 0.050848
C26   C     C_R   0.477388 0.459599 0.047178 0.045526
C27   C     C_R   0.408946 0.444221 0.911933 -0.134640
C28   C     C_R   0.726494 0.406398 0.038936 -0.081409
C29   C     C_R   0.267914 0.410573 0.962143 -0.088572
C30   C     C_R   0.881293 0.066494 0.553617 -0.116398
C31   C     C_R   0.118630 0.933660 0.445896 -0.123330
C32   C     C_R   0.878490 0.937957 0.557056 0.077130
Cu1   Cu    Cu3+1 0.140660 0.500020 0.500000 0.998111
Cu2   Cu    Cu3+1 0.859340 0.499980 0.500000 0.989889
H1    H     H_    0.803117 0.378897 0.072996 0.201018
H2    H     H_    0.419958 0.639406 0.400980 0.111126
H3    H     H_    0.321510 0.359377 0.598016 0.155624
H4    H     H_    0.679127 0.639351 0.401010 0.126444
H5    H     H_    0.927337 0.303380 0.305007 0.350962
H6    H     H_    0.157014 0.443792 0.748898 0.325624
H7    H     H_    0.048165 0.233203 0.881539 0.375522
H8    H     H_    0.951388 0.227286 0.116575 0.377502
H9    H     H_    0.190925 0.384853 0.928191 0.191875
H10   H     H_    0.348341 0.531954 0.216892 0.138395
H11   H     H_    0.648284 0.532180 0.782257 0.153654
H12   H     H_    0.559204 0.432744 0.160050 0.139798
H13   H     H_    0.434910 0.439766 0.840788 0.115226
H14   H     H_    0.790413 0.118174 0.596564 0.148994
H15   H     H_    0.209476 0.881993 0.402917 0.144832
H16   H     H_    0.580158 0.360287 0.598801 0.115901
I1    I     I_    0.695784 0.853063 0.650964 -0.338341
I2    I     I_    0.302525 0.147520 0.347438 -0.336284
N1    N     N_R   0.352080 0.500030 0.499980 -0.229268
N2    N     N_R   0.647920 0.499970 0.500020 -0.224039
O1    O     O_R   0.118740 0.319660 0.500000 -0.466855
O2    O     O_3   0.097728 0.366751 0.758439 -0.721289
O3    O     O_3   0.968788 0.272336 0.929174 -0.651140
O4    O     O_3   0.029721 0.270226 0.070266 -0.652335
O5    O     O_R   0.881260 0.680340 0.500000 -0.477228
O6    O     O_R   0.881170 0.319630 0.500010 -0.521874
O7    O     O_R   0.118830 0.680370 0.499990 -0.510397
O8    O     O_R   0.055570 0.500030 0.629830 -0.482322
O9    O     O_R   0.944430 0.499970 0.370170 -0.490003
O10   O     O_R   0.818000 0.500000 0.629840 -0.507551
O11   O     O_R   0.182000 0.500000 0.370160 -0.505923
O12   O     O_3   0.914634 0.332693 0.248521 -0.702763

loop_
_geom_bond_atom_site_label_1
_geom_bond_atom_site_label_2
_ccdc_geom_bond_type
C27   H13   S    
Cu1   O1    S    
C2    C4    A    
C21   C26   A    
C16   O2    S    
C11   C18   A    
C15   O4    S    
C27   C29   A    
C9    O10   A    
C5    C7    A    
C11   C16   A    
C10   O9    A    
Cu2   O6    S    
C13   C17   A    
C19   H10   S    
C1    C4    S    
C14   C22   A    
C6    H2    S    
Cu2   O10   S    
Cu1   Cu2   S    
C1    O1    A    
Cu1   O11   S    
C32   I1    S    
C23   H12   S    
C22   C28   A    
C23   C28   A    
C29   H9    S    
C3    C31   A    
C12   O7    A    
C9    C11   S    
H8    O4    S    
C17   O12   S    
C3    C32   A    
C2    I2    S    
C31   H15   S    
C30   H14   S    
Cu2   O9    S    
C19   C21   A    
C20   C22   A    
Cu2   N2    S    
C18   C20   A    
C8    H4    S    
C7    H3    S    
Cu2   O5    S    
C1    O6    A    
H5    O12   S    
C14   C16   A    
C5    H16   S    
C21   C24   A    
C25   C27   A    
C20   C25   A    
C7    N1    A    
C6    N1    A    
H7    O3    S    
C9    O8    A    
C30   C32   A    
C18   H11   S    
C5    N2    A    
Cu1   N1    S    
Cu1   O7    S    
C23   C26   A    
C8    N2    A    
C15   C17   A    
C14   O3    S    
C13   C19   A    
C24   C29   A    
C15   C24   A    
C6    C8    A    
C3    C12   S    
C25   C26   A    
C12   O5    A    
Cu1   O8    S    
C4    C30   A    
C28   H1    S    
C10   O11   A    
C2    C31   A    
H6    O2    S    
C10   C13   S    
