data_mof_unit_37760.cif
_audit_creation_date              2013-03-05T15:49:57-0500
_audit_creation_method            fapswitch 2.2
_symmetry_space_group_name_H-M    P1
_symmetry_Int_Tables_number       1
_space_group_crystal_system       triclinic
_cell_length_a                    13.580062
_cell_length_b                    13.593963
_cell_length_c                    27.654867
_cell_angle_alpha                 90.364338
_cell_angle_beta                  90.071254
_cell_angle_gamma                 119.962012
_cell_volume                      4422.84508633

loop_
_atom_site_label
_atom_site_type_symbol
_atom_site_description
_atom_site_fract_x
_atom_site_fract_y
_atom_site_fract_z
_atom_type_partial_charge
O1    O     O_R   0.302900 0.805360 0.446400 -0.507839
O2    O     O_R   0.522090 0.841370 0.450730 -0.494065
C1    C     C_R   0.619615 0.898395 0.431363 0.547459
O3    O     O_R   0.693280 0.995650 0.447220 -0.502035
O4    O     O_R   0.657260 0.178740 0.451050 -0.493956
C2    C     C_R   0.599885 0.218794 0.431372 0.545058
O5    O     O_R   0.502640 0.195380 0.446850 -0.501818
O6    O     O_R   0.319630 0.976590 0.450330 -0.490978
C3    C     C_R   0.279552 0.878869 0.430560 0.544135
O7    O     O_R   0.303680 0.807790 0.552740 -0.516560
O8    O     O_R   0.522820 0.843620 0.549310 -0.501097
C4    C     C_R   0.620558 0.900686 0.568918 0.547648
O9    O     O_R   0.694060 0.998080 0.553560 -0.518158
O10   O     O_R   0.657980 0.180990 0.549630 -0.506964
C5    C     C_R   0.601715 0.223009 0.568453 0.541113
O11   O     O_R   0.503420 0.197810 0.553190 -0.518027
O12   O     O_R   0.320350 0.978840 0.548910 -0.504385
C6    C     C_R   0.278222 0.880712 0.567907 0.540889
Cr1   Cr    Cr6+3 0.417720 0.831920 0.499820 1.029005
Cr2   Cr    Cr6+3 0.668190 0.085770 0.500360 1.028015
Cr3   Cr    Cr6+3 0.414060 0.082260 0.499840 1.034379
O13   O     O_3   0.499990 0.999990 0.500010 -0.248897
C7    C     C_1   0.631190 0.265335 0.383824 -0.004984
C8    C     C_R   0.766034 0.365788 0.268704 -0.114263
C9    C     C_R   0.774411 0.377673 0.218488 -0.146654
C10   C     C_R   0.567589 0.277018 0.211389 0.226366
C11   C     C_R   0.560775 0.266650 0.261983 -0.096343
C12   C     C_R   0.659201 0.310787 0.290521 -0.002994
C13   C     C_R   0.676172 0.333673 0.189585 0.026731
C14   C     C_1   0.689139 0.359545 0.138718 0.020719
C15   C     C_1   0.648299 0.291488 0.341833 -0.047913
C16   C     C_1   0.699975 0.388562 0.097067 0.038017
H1    H     H_    0.842695 0.399442 0.290446 0.124151
H2    H     H_    0.857864 0.422842 0.202172 0.118389
H3    H     H_    0.478341 0.222488 0.279232 0.144951
C17   C     C_1   0.231868 0.862432 0.382863 -0.008064
C18   C     C_R   0.258841 0.928497 0.258739 -0.078818
C19   C     C_R   0.240991 0.917707 0.208665 -0.065186
C20   C     C_R   0.066508 0.739169 0.220432 -0.050405
C21   C     C_R   0.084261 0.749959 0.270471 -0.087105
C22   C     C_R   0.180514 0.844671 0.289769 0.038768
C23   C     C_R   0.144862 0.822896 0.189392 0.062251
C24   C     C_1   0.123786 0.810927 0.138037 0.004017
C25   C     C_1   0.203851 0.852938 0.340917 -0.053301
C26   C     C_1   0.096710 0.793572 0.095944 0.033082
H4    H     H_    0.334345 0.001479 0.273230 0.120910
H5    H     H_    0.302131 0.982657 0.185048 0.179243
H6    H     H_    0.991628 0.665499 0.205919 0.127532
H7    H     H_    0.023734 0.684063 0.293982 0.108890
C27   C     C_1   0.635766 0.864958 0.384146 -0.002340
C28   C     C_R   0.559708 0.796948 0.261308 -0.112029
C29   C     C_R   0.569266 0.786892 0.211476 -0.144206
C30   C     C_R   0.765863 0.831916 0.222329 0.234029
C31   C     C_R   0.755023 0.842674 0.272360 -0.088331
C32   C     C_R   0.652538 0.824995 0.291792 -0.005036
C33   C     C_R   0.671737 0.804785 0.191623 0.024181
C34   C     C_1   0.679714 0.795855 0.139937 0.013635
C35   C     C_1   0.644712 0.843739 0.342558 -0.045451
C36   C     C_1   0.694009 0.786341 0.097532 0.039149
H8    H     H_    0.480392 0.784568 0.276000 0.127955
H9    H     H_    0.496888 0.766096 0.188329 0.124948
H10   H     H_    0.826580 0.864826 0.296241 0.151360
C37   C     C_R   0.639858 0.278636 0.615356 0.018494
C38   C     C_R   0.723739 0.267343 0.640289 -0.127384
C39   C     C_R   0.735705 0.284560 0.689722 -0.126480
C40   C     C_R   0.667040 0.317519 0.714666 0.025459
C41   C     C_R   0.592003 0.340918 0.688893 -0.107271
C42   C     C_R   0.577873 0.320862 0.639419 -0.121520
C43   C     C_R   0.574406 0.296508 0.794516 -0.104895
C44   C     C_R   0.583189 0.319836 0.843786 -0.112937
C45   C     C_R   0.785373 0.386026 0.840372 -0.134977
C46   C     C_R   0.777374 0.366631 0.791074 -0.125659
C47   C     C_R   0.672670 0.325831 0.767465 0.037895
C48   C     C_R   0.689907 0.370136 0.866364 0.021748
H11   H     H_    0.773218 0.235190 0.622583 0.133594
H12   H     H_    0.491736 0.260212 0.777313 0.109485
H13   H     H_    0.508173 0.305137 0.863468 0.134862
H14   H     H_    0.793988 0.265429 0.708557 0.107478
H15   H     H_    0.854696 0.390466 0.771259 0.107345
H16   H     H_    0.868821 0.423996 0.857004 0.139212
H17   H     H_    0.541007 0.370281 0.707194 0.174876
H18   H     H_    0.513665 0.331419 0.620705 0.148459
C49   C     C_R   0.214978 0.859386 0.613396 0.035298
C50   C     C_R   0.234734 0.953905 0.641730 -0.136440
C51   C     C_R   0.197263 0.940243 0.689163 -0.130465
C52   C     C_R   0.139447 0.831838 0.709272 0.018441
C53   C     C_R   0.111161 0.736409 0.680073 -0.085061
C54   C     C_R   0.146900 0.748604 0.632029 -0.001472
C55   C     C_R   0.012905 0.724330 0.777259 -0.133049
C56   C     C_R   0.993622 0.703868 0.826239 -0.126127
C57   C     C_R   0.172928 0.873613 0.844825 -0.134074
C58   C     C_R   0.194004 0.892831 0.795414 -0.110563
C59   C     C_R   0.114211 0.817651 0.761282 0.028061
C60   C     C_R   0.073692 0.777630 0.860037 0.036091
H19   H     H_    0.285185 0.039574 0.628248 0.140662
H20   H     H_    0.948492 0.667025 0.751943 0.116330
H21   H     H_    0.914363 0.631906 0.837953 0.123623
H22   H     H_    0.217056 0.014864 0.710622 0.113100
H23   H     H_    0.273473 0.964817 0.783971 0.109749
H24   H     H_    0.234011 0.932046 0.870925 0.107647
H25   H     H_    0.065933 0.652082 0.695360 0.111985
C61   C     C_R   0.641895 0.860065 0.614446 -0.020071
C62   C     C_R   0.563667 0.751561 0.631629 -0.111701
C63   C     C_R   0.572924 0.719226 0.678689 0.218876
C64   C     C_R   0.661038 0.799160 0.708957 0.012884
C65   C     C_R   0.741765 0.905226 0.690595 -0.167464
C66   C     C_R   0.732988 0.935016 0.643744 -0.138421
C67   C     C_R   0.774959 0.804126 0.779127 -0.120789
C68   C     C_R   0.789692 0.802060 0.828414 -0.119181
C69   C     C_R   0.590708 0.741271 0.841618 -0.126461
C70   C     C_R   0.576736 0.747519 0.791821 -0.057929
C71   C     C_R   0.669278 0.779224 0.760469 0.070614
C72   C     C_R   0.698323 0.771631 0.859976 0.032374
H26   H     H_    0.494363 0.692524 0.608593 0.161762
H27   H     H_    0.846953 0.827893 0.755526 0.117582
H28   H     H_    0.872860 0.823078 0.841962 0.140731
H29   H     H_    0.494847 0.729625 0.777841 0.140181
H30   H     H_    0.519233 0.715754 0.865659 0.113603
H31   H     H_    0.809521 0.967602 0.713365 0.120286
H32   H     H_    0.794065 0.019416 0.631530 0.141154
O14   O     O_R   0.819150 0.845650 0.033320 -0.485006
O15   O     O_R   0.006060 0.815720 0.028680 -0.473959
C73   C     C_R   0.049255 0.761022 0.048227 0.553350
O16   O     O_R   0.028100 0.664460 0.032550 -0.511682
O17   O     O_R   0.811290 0.477490 0.029660 -0.500058
C74   C     C_R   0.714234 0.435849 0.049724 0.552898
O18   O     O_R   0.638120 0.455970 0.034270 -0.484711
O19   O     O_R   0.667540 0.672320 0.030160 -0.496511
C75   C     C_R   0.723342 0.770803 0.049452 0.553495
O20   O     O_R   0.814460 0.840990 0.926980 -0.517752
O21   O     O_R   0.001710 0.811400 0.930110 -0.504431
C76   C     C_R   0.043539 0.755480 0.910527 0.529134
O22   O     O_R   0.023410 0.659800 0.926210 -0.512509
O23   O     O_R   0.806940 0.473170 0.931090 -0.510960
C77   C     C_R   0.707862 0.428060 0.912711 0.538586
O24   O     O_R   0.633420 0.451310 0.927930 -0.509131
O25   O     O_R   0.663190 0.668000 0.931580 -0.494394
C78   C     C_R   0.719471 0.764081 0.910984 0.531879
Cr4   Cr    Cr6+3 0.908000 0.821090 0.979770 1.055987
Cr5   Cr    Cr6+3 0.912420 0.571130 0.979880 1.031023
Cr6   Cr    Cr6+3 0.657970 0.566940 0.980940 1.052966
O26   O     O_3   0.826130 0.653050 0.980200 -0.258715
N1    N     N_R   0.872642 0.850108 0.203641 0.076459
O27   O     O_R   0.875716 0.792104 0.166650 -0.358725
O28   O     O_R   0.966934 0.916929 0.226521 -0.327108
C79   C     C_3   0.113030 0.642833 0.602348 -0.370161
H33   H     H_    0.081514 0.650428 0.566277 0.139701
H34   H     H_    0.186596 0.629165 0.598170 0.175650
H35   H     H_    0.043621 0.566227 0.619870 0.118240
N2    N     N_R   0.464335 0.231209 0.183250 0.065862
O29   O     O_R   0.459993 0.194730 0.139247 -0.345202
O30   O     O_R   0.371081 0.216754 0.202971 -0.332088
N3    N     N_R   0.493610 0.606236 0.694770 0.064257
O31   O     O_R   0.393119 0.549731 0.675105 -0.361095
O32   O     O_R   0.525213 0.554563 0.725184 -0.363614

loop_
_geom_bond_atom_site_label_1
_geom_bond_atom_site_label_2
_geom_bond_distance
_ccdc_geom_bond_type
C53   C54   1.397263 A    
C74   O18   1.268321 A    
C65   H31   1.083792 S    
C31   C32   1.397481 A    
C70   C71   1.408295 A    
O19   C75   1.275840 A    
C69   H30   1.082924 S    
C77   O24   1.271827 A    
O4    Cr2   1.920330 S    
C51   C52   1.397561 A    
C26   C73   1.434619 S    
O8    Cr1   1.923843 S    
C10   C11   1.405654 A    
O24   Cr6   2.043790 S    
C67   H27   1.083967 S    
Cr5   O26   1.979080 S    
O15   Cr4   1.924074 S    
C19   C23   1.399406 A    
C46   H15   1.082452 S    
C29   H9    1.083680 S    
O23   Cr5   1.926849 S    
O4    C2    1.275208 A    
Cr4   O26   1.979389 S    
C34   C36   1.205562 T    
C65   C66   1.382538 A    
N1    O27   1.301031 A    
C67   C68   1.379900 A    
C43   H12   1.082849 S    
O12   C6    1.276761 A    
O18   Cr6   2.036305 S    
C16   C74   1.432441 S    
C69   C70   1.398798 A    
C45   H16   1.083339 S    
C51   H22   1.083072 S    
C68   H28   1.082989 S    
C53   H25   1.083326 S    
O6    C3    1.275802 A    
C44   C48   1.400083 A    
C3    C17   1.434837 S    
C43   C47   1.405064 A    
C63   N3    1.440313 S    
N3    O32   1.301076 A    
C13   C14   1.441740 S    
O19   Cr6   1.926297 S    
C56   H21   1.083340 S    
C68   C72   1.402538 A    
C9    H2    1.083837 S    
C49   C54   1.417236 A    
Cr3   O13   1.978926 S    
C44   H13   1.083253 S    
C18   C22   1.403681 A    
C61   C62   1.405346 A    
O20   Cr4   2.040036 S    
C63   C64   1.414356 A    
C1    C27   1.432669 S    
C56   C60   1.399261 A    
C20   C23   1.403391 A    
C79   H34   1.109666 S    
O17   Cr5   1.918977 S    
C9    C13   1.403807 A    
O1    Cr1   2.041886 S    
C5    O11   1.271758 A    
C41   C42   1.387615 A    
C27   C35   1.204940 T    
O10   Cr2   1.925774 S    
C73   O16   1.268597 A    
Cr1   O13   1.979506 S    
O1    C3    1.269918 A    
C8    C9    1.397310 A    
C55   C56   1.383324 A    
C20   C21   1.398537 A    
C52   C53   1.403799 A    
C76   O22   1.267632 A    
C31   H10   1.083853 S    
C11   H3    1.083894 S    
C30   C31   1.405986 A    
C40   C47   1.462763 S    
C60   C76   1.446224 S    
C67   C71   1.396826 A    
C30   N1    1.440918 S    
C50   H19   1.083444 S    
C7    C15   1.205100 T    
C4    C61   1.463534 S    
C18   C19   1.399641 A    
C52   C59   1.470439 S    
C79   H35   1.111233 S    
C49   C50   1.406860 A    
C10   N2    1.441678 S    
O7    Cr1   2.037677 S    
C48   C77   1.454951 S    
C62   H26   1.083160 S    
C6    C49   1.470664 S    
C61   C66   1.397478 A    
C50   C51   1.387241 A    
C24   C26   1.206113 T    
C69   C72   1.398880 A    
C19   H5    1.082576 S    
C2    O5    1.269561 A    
C10   C13   1.415935 A    
C21   C22   1.399856 A    
C64   C71   1.466353 S    
Cr2   O13   1.979037 S    
C41   H17   1.081423 S    
O17   C74   1.275178 A    
C57   H24   1.083100 S    
C22   C25   1.440547 S    
N2    O30   1.301668 A    
C17   C25   1.206219 T    
C33   C34   1.442537 S    
C1    O3    1.269413 A    
O20   C78   1.264253 A    
C66   H32   1.083293 S    
C57   C58   1.395778 A    
C79   H33   1.110521 S    
O25   C78   1.275917 A    
C30   C33   1.418955 A    
N1    O28   1.301549 A    
O25   Cr6   1.918993 S    
C37   C42   1.400018 A    
C36   C75   1.432840 S    
C5    C37   1.455074 S    
C39   H14   1.082441 S    
O9    Cr2   2.036733 S    
O2    Cr1   1.921858 S    
O10   C5    1.270515 A    
O16   Cr5   2.044298 S    
C12   C15   1.439067 S    
C8    C12   1.397240 A    
O14   C75   1.269644 A    
C46   C47   1.400372 A    
O6    Cr3   1.926983 S    
C45   C48   1.403093 A    
O8    C4    1.273549 A    
O11   Cr3   2.044221 S    
O23   C77   1.270788 A    
C64   C65   1.403740 A    
C8    H1    1.083424 S    
N2    O29   1.301234 A    
C70   H29   1.082992 S    
C42   H18   1.083292 S    
C38   C39   1.381101 A    
O14   Cr4   2.039847 S    
C55   H20   1.083082 S    
O2    C1    1.274115 A    
C18   H4    1.083533 S    
C28   C29   1.396585 A    
O5    Cr3   2.035821 S    
Cr6   O26   1.978872 S    
C57   C60   1.395570 A    
C14   C16   1.205098 T    
C21   H7    1.083546 S    
O7    C6    1.271031 A    
C2    C7    1.432974 S    
C58   C59   1.410198 A    
C38   H11   1.083394 S    
C40   C41   1.404423 A    
C28   C32   1.399445 A    
C55   C59   1.400933 A    
C43   C44   1.388388 A    
O12   Cr3   1.918073 S    
O21   Cr4   1.921556 S    
C37   C38   1.403789 A    
O3    Cr2   2.042522 S    
C29   C33   1.400912 A    
C45   C46   1.380734 A    
C4    O9    1.271924 A    
O22   Cr5   2.035017 S    
C39   C40   1.400374 A    
C23   C24   1.440470 S    
C32   C35   1.438767 S    
C62   C63   1.401733 A    
O15   C73   1.276391 A    
C54   C79   1.508711 S    
C72   C78   1.453670 S    
C28   H8    1.083742 S    
N3    O31   1.301512 A    
O21   C76   1.273060 A    
C58   H23   1.082740 S    
C20   H6    1.083855 S    
C11   C12   1.399902 A    
