data_mof_unit_63073.cif
_audit_creation_date              2012-12-10T19:37:36-0500
_audit_creation_method            fapswitch 2.2
_symmetry_space_group_name_H-M    P1
_symmetry_Int_Tables_number       1
_space_group_crystal_system       triclinic
_cell_length_a                    13.875388
_cell_length_b                    15.979615
_cell_length_c                    17.051579
_cell_angle_alpha                 95.861889
_cell_angle_beta                  86.527704
_cell_angle_gamma                 82.9867
_cell_volume                      3722.59649294

loop_
_atom_site_label
_atom_site_type_symbol
_atom_type_description
_atom_site_fract_x
_atom_site_fract_y
_atom_site_fract_z
_atom_type_partial_charge
C1    C     C_R   0.505301 0.509898 0.651447 0.854583
C2    C     C_R   0.502961 0.489687 0.348646 0.875242
C3    C     C_R   0.462283 0.584228 0.871975 0.202287
C4    C     C_R   0.586420 0.477177 0.132579 0.177851
C5    C     C_R   0.483600 0.589599 0.790484 -0.143043
C6    C     C_R   0.584337 0.457042 0.211047 -0.167790
C7    C     C_R   0.443826 0.252747 0.537310 0.044194
C8    C     C_R   0.556408 0.748302 0.464414 0.031497
C9    C     C_R   0.450746 0.164045 0.543532 0.136932
C10   C     C_R   0.552316 0.837765 0.463370 0.134064
C11   C     C_R   0.524371 0.108200 0.498339 0.287934
C12   C     C_R   0.478059 0.892648 0.509124 0.276288
C13   C     C_R   0.590983 0.143550 0.451233 -0.322530
C14   C     C_R   0.408741 0.855759 0.552052 -0.355321
C15   C     C_R   0.584125 0.231690 0.447743 0.426769
C16   C     C_R   0.414204 0.767204 0.552130 0.430981
C17   C     C_R   0.316627 0.513471 0.501612 0.878502
C18   C     C_R   0.683286 0.486757 0.499648 0.822216
C19   C     C_1   0.786397 0.479611 0.496042 -0.131926
C20   C     C_1   0.213420 0.521647 0.505495 -0.088301
C21   C     C_2   0.977512 0.469740 0.481872 -0.041786
C22   C     C_2   0.022108 0.533958 0.515393 -0.039163
C23   C     C_1   0.126352 0.528238 0.509772 -0.018145
C24   C     C_1   0.873360 0.474514 0.490646 -0.054561
C25   C     C_R   0.511038 0.513340 0.738775 -0.250868
C26   C     C_R   0.500406 0.487169 0.262501 -0.210016
C27   C     C_R   0.538557 0.437266 0.772069 0.155192
C28   C     C_R   0.416187 0.526980 0.232181 0.157069
C29   C     C_R   0.513070 0.431846 0.851766 0.203765
C30   C     C_R   0.416985 0.540695 0.152133 0.229125
C31   C     C_R   0.472306 0.504383 0.901114 0.213521
C32   C     C_R   0.503247 0.517133 0.103075 0.216548
Cu1   Cu    Cu3+1 0.495370 0.585120 0.503830 1.000597
Cu2   Cu    Cu3+1 0.504630 0.414880 0.496170 1.018080
H1    H     H_    0.649687 0.102016 0.417133 0.219995
H2    H     H_    0.348790 0.896466 0.585416 0.215704
N1    N     N_2   0.454074 0.496352 0.982296 -0.125393
N2    N     N_2   0.510292 0.533634 0.023362 -0.106556
N3    N     N_R   0.511590 0.287020 0.490400 -0.213035
N4    N     N_R   0.488410 0.712980 0.509600 -0.216929
N5    N     N_2   0.539147 0.018146 0.502699 -0.138315
N6    N     N_2   0.463261 0.983085 0.506621 -0.136703
O1    O     O_R   0.495670 0.579790 0.617520 -0.560928
O2    O     O_R   0.504330 0.420210 0.382480 -0.543769
O3    O     O_R   0.503490 0.436020 0.611040 -0.562528
O4    O     O_R   0.496510 0.563980 0.388960 -0.577116
O5    O     O_R   0.357690 0.582040 0.503680 -0.511341
O6    O     O_R   0.642310 0.417960 0.496320 -0.516039
O7    O     O_R   0.365510 0.438280 0.497200 -0.600813
O8    O     O_R   0.634490 0.561720 0.502800 -0.611675
C33   C     C_R   0.968130 0.610667 0.562171 0.124249
C34   C     C_R   0.909423 0.603954 0.630797 -0.130498
C35   C     C_R   0.862077 0.676984 0.675952 -0.144893
C36   C     C_R   0.873022 0.757025 0.653070 -0.116317
C37   C     C_R   0.931419 0.764213 0.585043 -0.099411
C38   C     C_R   0.979399 0.691401 0.539998 -0.131983
H3    H     H_    0.901448 0.542390 0.649844 0.143492
H4    H     H_    0.817531 0.671576 0.729055 0.147640
H5    H     H_    0.836655 0.813520 0.688263 0.146253
H6    H     H_    0.939986 0.826235 0.567469 0.158968
H7    H     H_    0.025017 0.697850 0.487679 0.155910
C39   C     C_R   0.030998 0.394511 0.431776 0.085566
C40   C     C_R   0.096918 0.404327 0.368340 -0.143321
C41   C     C_R   0.146068 0.333261 0.321452 -0.120470
C42   C     C_R   0.128775 0.251890 0.336508 -0.137028
C43   C     C_R   0.061663 0.241485 0.398063 -0.126005
C44   C     C_R   0.012421 0.312383 0.445171 -0.140252
H8    H     H_    0.109645 0.466933 0.354683 0.174603
H9    H     H_    0.197196 0.341331 0.273150 0.171069
H10   H     H_    0.166827 0.196926 0.300102 0.157466
H11   H     H_    0.047748 0.178440 0.409283 0.162629
H12   H     H_    0.960801 0.303225 0.492786 0.161643
Br1   Br    Br    0.299008 0.562543 0.300421 -0.479168
Br2   Br    Br    0.626099 0.345171 0.713490 -0.419698
Br3   Br    Br    0.302782 0.597049 0.111497 -0.323966
Br4   Br    Br    0.538732 0.325738 0.896014 -0.351693
Br5   Br    Br    0.424640 0.685093 0.945675 -0.406945
Br6   Br    Br    0.705149 0.454968 0.063842 -0.433550
C45   C     C_R   0.492460 0.674200 0.763264 0.196224
C46   C     C_R   0.414691 0.740438 0.775525 -0.033845
C47   C     C_R   0.427472 0.821619 0.756293 -0.090019
C48   C     C_R   0.516904 0.836770 0.722287 -0.107551
C49   C     C_R   0.593902 0.770972 0.707983 -0.155049
C50   C     C_R   0.582392 0.690413 0.729361 -0.081978
H13   H     H_    0.344208 0.729332 0.800180 0.174431
H14   H     H_    0.367429 0.872400 0.766449 0.170089
H15   H     H_    0.526175 0.899247 0.706190 0.168972
H16   H     H_    0.662658 0.782635 0.680792 0.135735
H17   H     H_    0.643511 0.640542 0.719569 0.120792
C51   C     C_R   0.671871 0.406406 0.236010 0.176141
C52   C     C_R   0.704943 0.325954 0.195015 -0.021772
C53   C     C_R   0.798542 0.285911 0.203568 -0.072780
C54   C     C_R   0.859787 0.325632 0.253188 -0.057247
C55   C     C_R   0.826269 0.404055 0.296028 -0.095858
C56   C     C_R   0.731774 0.443162 0.289247 -0.122592
H18   H     H_    0.659874 0.296254 0.153559 0.159924
H19   H     H_    0.824167 0.224944 0.170585 0.150932
H20   H     H_    0.932903 0.295558 0.258716 0.149618
H21   H     H_    0.874127 0.435191 0.333400 0.143295
H22   H     H_    0.706499 0.502936 0.323640 0.124669
C57   C     C_R   0.632646 0.696085 0.409963 0.202624
C58   C     C_R   0.616325 0.681697 0.329325 -0.102674
C59   C     C_R   0.694248 0.654458 0.272975 -0.132867
C60   C     C_R   0.789130 0.640830 0.296576 -0.096596
C61   C     C_R   0.806155 0.654321 0.376529 -0.150856
C62   C     C_R   0.728683 0.683523 0.432833 -0.096600
H23   H     H_    0.543837 0.695715 0.309780 0.166810
H24   H     H_    0.681113 0.644231 0.211014 0.176363
H25   H     H_    0.849321 0.619290 0.252970 0.166502
H26   H     H_    0.879695 0.644126 0.394598 0.147407
H27   H     H_    0.743621 0.698679 0.493944 0.141395
C63   C     C_R   0.360094 0.305505 0.583336 0.194443
C64   C     C_R   0.366348 0.333568 0.663400 -0.064589
C65   C     C_R   0.284641 0.375484 0.709515 -0.140692
C66   C     C_R   0.194373 0.385324 0.677332 -0.096398
C67   C     C_R   0.185707 0.352127 0.599481 -0.132792
C68   C     C_R   0.267906 0.311934 0.552595 -0.096003
H28   H     H_    0.433757 0.320696 0.690657 0.189183
H29   H     H_    0.290916 0.398384 0.770731 0.156881
H30   H     H_    0.130730 0.416882 0.713222 0.152354
H31   H     H_    0.115115 0.357457 0.575768 0.148792
H32   H     H_    0.259893 0.285685 0.492562 0.145299
Br7   Br    Br    0.642639 0.882452 0.391745 -0.472080
Br8   Br    Br    0.364458 0.121929 0.619955 -0.473167
Br9   Br    Br    0.681469 0.268645 0.381817 -0.505383
Br10  Br    Br    0.309182 0.728826 0.610875 -0.508118

loop_
_geom_bond_atom_site_label_1
_geom_bond_atom_site_label_2
_ccdc_geom_bond_type
C61   H26   S    
C57   C58   A    
C27   C29   A    
N5    N6    D    
C37   C38   A    
C17   C20   S    
C65   C66   A    
C51   C56   A    
C29   Br4   S    
C6    C26   A    
C35   C36   A    
C2    O4    A    
C54   C55   A    
C39   C44   A    
N1    N2    D    
C44   H12   S    
C14   H2    S    
C45   C50   A    
C48   H15   S    
C9    Br8   S    
C67   C68   A    
C33   C38   A    
C63   C64   A    
C12   N6    S    
C52   H18   S    
C64   C65   A    
C1    O1    A    
C49   C50   A    
C2    O2    A    
C59   H24   S    
C32   N2    S    
C5    C45   S    
C27   Br2   S    
C8    C57   S    
C47   H14   S    
C62   H27   S    
C49   H16   S    
C21   C22   D    
C1    C25   S    
Cu1   O4    S    
C55   C56   A    
C28   Br1   S    
C60   C61   A    
C53   H19   S    
C47   C48   A    
C36   H5    S    
Cu1   N4    S    
C67   H31   S    
Cu2   N3    S    
Cu1   O1    S    
Cu2   O2    S    
C45   C46   A    
C4    C6    A    
C10   Br7   S    
C17   O7    A    
C52   C53   A    
C56   H22   S    
C18   C19   S    
Cu1   O8    S    
C6    C51   S    
C48   C49   A    
C40   C41   A    
C68   H32   S    
C4    Br6   S    
C46   H13   S    
C43   H11   S    
C20   C23   T    
C39   C40   A    
Cu1   Cu2   S    
C58   H23   S    
C2    C26   S    
Cu2   O3    S    
C41   H9    S    
C3    C31   A    
C9    C11   A    
C15   N3    A    
C21   C39   S    
C4    C32   A    
C10   C12   A    
C16   N4    A    
C5    C25   A    
C12   C14   A    
C66   H30   S    
C13   C15   A    
Cu1   O5    S    
C14   C16   A    
Cu2   O6    S    
C50   H17   S    
C3    Br5   S    
C34   C35   A    
C18   O8    A    
C7    C63   S    
C57   C62   A    
C7    C9    A    
C36   C37   A    
Cu2   O7    S    
C22   C23   S    
C17   O5    A    
C46   C47   A    
C3    C5    A    
C18   O6    A    
C35   H4    S    
C13   H1    S    
C25   C27   A    
C61   C62   A    
C40   H8    S    
C26   C28   A    
C63   C68   A    
C41   C42   A    
C28   C30   A    
C19   C24   T    
C33   C34   A    
C29   C31   A    
C43   C44   A    
C30   C32   A    
C30   Br3   S    
C11   C13   A    
C1    O3    A    
C51   C52   A    
C60   H25   S    
C65   H29   S    
C55   H21   S    
C53   C54   A    
C11   N5    S    
C58   C59   A    
C34   H3    S    
C64   H28   S    
C31   N1    S    
C8    C10   A    
C42   C43   A    
C15   Br9   S    
C21   C24   S    
C59   C60   A    
C7    N3    A    
C38   H7    S    
C8    N4    A    
C66   C67   A    
C37   H6    S    
C16   Br10  S    
C54   H20   S    
C42   H10   S    
C22   C33   S    
