data_mof_unit_7885.cif
_audit_creation_date              2012-10-26T19:41:53-0400
_audit_creation_method            fapswitch 2.2
_symmetry_space_group_name_H-M    P1
_symmetry_Int_Tables_number       1
_space_group_crystal_system       triclinic
_cell_length_a                    10.639503
_cell_length_b                    10.749245
_cell_length_c                    9.654733
_cell_angle_alpha                 89.691078
_cell_angle_beta                  90.554022
_cell_angle_gamma                 93.715541
_cell_volume                      1101.7942501

loop_
_atom_site_label
_atom_site_type_symbol
_atom_type_description
_atom_site_fract_x
_atom_site_fract_y
_atom_site_fract_z
_atom_type_partial_charge
C1    C     C_R   0.496814 0.262753 0.500272 0.522049
C2    C     C_R   0.386428 0.058252 0.559836 0.025609
C3    C     C_R   0.489530 0.128413 0.500658 0.008648
C4    C     C_R   0.259847 0.498837 0.499573 0.547418
C5    C     C_R   0.587902 0.070066 0.438926 -0.141353
C6    C     C_R   0.587793 0.941697 0.438894 -0.130065
C7    C     C_R   0.488881 0.870196 0.499485 0.031765
C8    C     C_R   0.638077 0.688158 0.148969 -0.040686
C9    C     C_R   0.668476 0.802523 0.088532 -0.171941
C10   C     C_R   0.653332 0.815981 0.948018 -0.098139
C11   C     C_R   0.625707 0.710275 0.867200 0.275244
C12   C     C_3   0.957585 0.477779 0.370383 0.271941
C13   C     C_R   0.564970 0.598468 0.927203 0.172403
C14   C     C_R   0.567095 0.594092 0.076413 0.148328
C15   C     C_R   0.436332 0.409606 0.073316 0.028447
C16   C     C_R   0.496388 0.736818 0.499680 0.565281
C17   C     C_R   0.437463 0.408857 0.925946 0.006708
C18   C     C_R   0.740420 0.499272 0.499969 0.592360
C19   C     C_3   0.044314 0.520232 0.628051 -0.147016
C20   C     C_3   0.953382 0.408686 0.584068 -0.162914
C21   C     C_3   0.877620 0.499275 0.498447 0.022331
C22   C     C_3   0.966926 0.610787 0.541971 -0.122155
C23   C     C_3   0.034845 0.387025 0.455036 -0.150899
C24   C     C_3   0.047546 0.587960 0.414109 0.247544
C25   C     C_3   0.123361 0.498583 0.499074 -0.003408
C26   C     C_R   0.282292 0.115553 0.615583 -0.111235
C27   C     C_R   0.180774 0.043682 0.670694 -0.110334
C28   C     C_R   0.180617 0.914180 0.670527 -0.089939
C29   C     C_R   0.281883 0.855752 0.615052 -0.070459
C30   C     C_R   0.386127 0.926727 0.559320 0.033983
Cl1   Cl    Cl    0.733317 0.719524 0.731408 -0.633804
Cl2   Cl    Cl    0.111711 0.707864 0.302333 -0.549284
Cl3   Cl    Cl    0.903465 0.449346 0.197286 -0.540561
Cu1   Cu    Cu3+1 0.499990 0.499990 0.640660 0.995444
Cu2   Cu    Cu3+1 0.500010 0.500010 0.359340 1.009614
H1    H     H_    0.276656 0.755039 0.614602 0.140878
H2    H     H_    0.101473 0.088675 0.712723 0.126247
H3    H     H_    0.912251 0.335039 0.654261 0.147260
H4    H     H_    0.101269 0.858707 0.712582 0.141725
H5    H     H_    0.666644 0.897761 0.394239 0.123221
H6    H     H_    0.671139 0.677413 0.252576 0.193488
H7    H     H_    0.690182 0.902699 0.901327 0.165212
H8    H     H_    0.383399 0.335489 0.127629 0.127813
H9    H     H_    0.713069 0.878041 0.148712 0.135187
H10   H     H_    0.385611 0.334123 0.871231 0.118846
H11   H     H_    0.082103 0.537759 0.734251 0.171917
H12   H     H_    0.942010 0.704905 0.573454 0.184643
H13   H     H_    0.065310 0.295794 0.419292 0.137795
H14   H     H_    0.666345 0.124429 0.393002 0.140151
H15   H     H_    0.277358 0.215753 0.615400 0.120656
N1    N     N_R   0.501210 0.501210 0.147910 -0.237259
N2    N     N_R   0.501250 0.501290 0.852040 -0.239969
O1    O     O_R   0.499990 0.319640 0.618810 -0.516400
O2    O     O_R   0.500000 0.319660 0.381240 -0.505755
O3    O     O_R   0.316850 0.499960 0.618770 -0.534223
O4    O     O_R   0.316860 0.499980 0.381190 -0.458967
O5    O     O_R   0.500000 0.680340 0.618760 -0.473444
O6    O     O_R   0.500010 0.680360 0.381190 -0.518419
O7    O     O_R   0.683140 0.500020 0.618810 -0.430740
O8    O     O_R   0.683150 0.500040 0.381230 -0.490790

loop_
_geom_bond_atom_site_label_1
_geom_bond_atom_site_label_2
_ccdc_geom_bond_type
C8    C9    A    
Cu1   O5    S    
C1    O2    A    
C24   Cl2   S    
C24   C25   S    
C6    C7    A    
C15   N1    A    
C10   H7    S    
C13   N2    A    
C20   H3    S    
C9    C10   A    
C12   C24   S    
Cu1   N2    S    
C14   N1    A    
C29   H1    S    
C20   C23   S    
C2    C30   A    
C26   H15   S    
C2    C3    A    
Cu2   O4    S    
C19   H11   S    
C11   Cl1   S    
Cu1   O3    S    
C2    C26   A    
C7    C30   A    
C16   O6    A    
C21   C22   S    
C4    O4    A    
Cu2   O2    S    
C8    H6    S    
C11   C13   A    
C12   C23   S    
C5    H14   S    
C26   C27   A    
C29   C30   A    
C27   H2    S    
Cu2   O6    S    
C17   N2    A    
C18   O8    A    
C28   C29   A    
C17   H10   S    
C4    C25   S    
C22   C24   S    
C16   O5    A    
C23   C25   S    
C4    O3    A    
Cu2   N1    S    
C5    C6    A    
C19   C25   S    
C6    H5    S    
C10   C11   A    
C15   H8    S    
C18   C21   S    
C18   O7    A    
C19   C22   S    
C20   C21   S    
Cu1   O1    S    
Cu1   Cu2   S    
C27   C28   A    
C15   C17   A    
C1    O1    A    
C7    C16   S    
C9    H9    S    
C8    C14   A    
C23   H13   S    
C28   H4    S    
C3    C5    A    
C12   Cl3   S    
C13   C14   A    
Cu1   O7    S    
C12   C21   S    
C22   H12   S    
C19   C20   S    
Cu2   O8    S    
C1    C3    S    
