data_mof_unit_45629.cif
_audit_creation_date              2012-12-10T18:51:35-0500
_audit_creation_method            fapswitch 2.2
_symmetry_space_group_name_H-M    P1
_symmetry_Int_Tables_number       1
_space_group_crystal_system       triclinic
_cell_length_a                    10.646695
_cell_length_b                    9.855729
_cell_length_c                    10.545229
_cell_angle_alpha                 89.152242
_cell_angle_beta                  90.261768
_cell_angle_gamma                 89.979054
_cell_volume                      1106.38802647

loop_
_atom_site_label
_atom_site_type_symbol
_atom_type_description
_atom_site_fract_x
_atom_site_fract_y
_atom_site_fract_z
_atom_type_partial_charge
Br1   Br    Br    0.157781 0.348130 0.737817 -0.470879
Br2   Br    Br    0.842219 0.651869 0.262183 -0.470879
Br3   Br    Br    0.847006 0.341890 0.735969 -0.504167
Br4   Br    Br    0.152994 0.658110 0.264031 -0.504167
C1    C     C_R   0.872074 0.499549 0.500262 -0.277833
C2    C     C_3   0.404605 0.424769 0.042558 0.154631
C3    C     C_3   0.389987 0.550329 0.954202 -0.204931
C4    C     C_3   0.610013 0.449671 0.045798 -0.204931
C5    C     C_3   0.501179 0.496709 0.876989 -0.093235
C6    C     C_3   0.498821 0.503291 0.123010 -0.093235
C7    C     C_R   0.580936 0.070655 0.576033 -0.049667
C8    C     C_R   0.419064 0.929345 0.423967 -0.049666
C9    C     C_R   0.418996 0.073116 0.424034 -0.041584
C10   C     C_R   0.581004 0.926884 0.575966 -0.041584
C11   C     C_R   0.065812 0.432908 0.599122 0.228747
C12   C     C_R   0.127926 0.500451 0.499737 -0.277834
C13   C     C_R   0.934189 0.567092 0.400878 0.228748
C14   C     C_R   0.936002 0.431879 0.599114 0.204153
C15   C     C_R   0.063998 0.568120 0.400885 0.204152
C16   C     C_3   0.469821 0.775563 0.075126 -0.805610
C17   C     C_3   0.530179 0.224437 0.924874 -0.805610
C18   C     C_3   0.702872 0.662231 0.907150 -0.774034
C19   C     C_3   0.297129 0.337769 0.092850 -0.774034
C20   C     C_R   0.260282 0.500120 0.499318 0.995542
C21   C     C_R   0.739718 0.499880 0.500682 0.995542
C22   C     C_R   0.499014 0.501116 0.257508 0.942997
C23   C     C_R   0.500986 0.498884 0.742492 0.942997
C24   C     C_3   0.485567 0.628397 0.036047 0.192301
C25   C     C_3   0.514433 0.371603 0.963953 0.192301
C26   C     C_3   0.595395 0.575231 0.957442 0.154631
H1    H     H_    0.645709 0.123991 0.636807 0.165983
H2    H     H_    0.537028 0.158459 0.010832 0.232743
H3    H     H_    0.448044 0.192467 0.867448 0.261611
H4    H     H_    0.617042 0.213410 0.868413 0.265076
H5    H     H_    0.756639 0.704717 0.987574 0.281411
H6    H     H_    0.766381 0.600116 0.848721 0.263355
H7    H     H_    0.664797 0.747033 0.848316 0.225727
H8    H     H_    0.243360 0.295285 0.012426 0.281411
H9    H     H_    0.335203 0.252966 0.151682 0.225727
H10   H     H_    0.233621 0.399883 0.151281 0.263354
H11   H     H_    0.354291 0.876009 0.363192 0.165983
H12   H     H_    0.354011 0.128433 0.363464 0.135524
H13   H     H_    0.645989 0.871567 0.636536 0.135524
H14   H     H_    0.300686 0.590711 0.914007 0.199089
H15   H     H_    0.699314 0.409289 0.085992 0.199089
H16   H     H_    0.462972 0.841541 0.989168 0.232743
H17   H     H_    0.382958 0.786590 0.131586 0.265076
H18   H     H_    0.551956 0.807533 0.132552 0.261611
N1    N     N_R   0.500000 0.857200 0.500000 -0.087317
N2    N     N_R   0.500000 0.142800 0.500000 -0.087317
O1    O     O_R   0.316770 0.614620 0.499990 -0.597612
O2    O     O_R   0.683230 0.385380 0.500010 -0.597613
O3    O     O_R   0.683230 0.614620 0.500010 -0.599573
O4    O     O_R   0.316770 0.385380 0.499990 -0.599573
O5    O     O_R   0.499970 0.614650 0.313950 -0.599228
O6    O     O_R   0.500030 0.385350 0.686050 -0.599228
O7    O     O_R   0.500030 0.614650 0.686050 -0.636941
O8    O     O_R   0.499970 0.385350 0.313950 -0.636941
Zn1   Zn    Zn3+2 0.500000 0.653120 0.500000 0.993722
Zn2   Zn    Zn3+2 0.500000 0.346880 0.500000 0.993722

loop_
_geom_bond_atom_site_label_1
_geom_bond_atom_site_label_2
_ccdc_geom_bond_type
C2    C6    S    
C11   C14   A    
C9    N2    A    
C2    C3    S    
Br1   C11   S    
O5    Zn1   S    
N2    Zn2   S    
C19   H8    S    
C18   H6    S    
C16   C24   S    
N1    Zn1   S    
C5    C25   S    
C1    C14   A    
C4    C26   S    
C22   O5    A    
C6    C22   S    
C20   O1    A    
C24   C26   S    
C8    N1    A    
O3    Zn1   S    
C21   O2    A    
C7    H1    S    
C12   C20   S    
C7    N2    A    
O4    Zn2   S    
C3    H14   S    
Br2   C13   S    
C18   H5    S    
C22   O8    A    
C16   H18   S    
C17   C25   S    
C5    C26   S    
Br3   C14   S    
C12   C15   A    
C1    C21   S    
C2    C19   S    
C9    H12   S    
C13   C15   A    
C21   O3    A    
O1    Zn1   S    
C7    C10   A    
C19   H9    S    
O7    Zn1   S    
C16   H17   S    
C1    C13   A    
C4    C25   S    
C20   O4    A    
C11   C12   A    
C10   N1    A    
C17   H2    S    
O6    Zn2   S    
C2    C25   S    
C17   H3    S    
C8    C9    A    
C5    C23   S    
C8    H11   S    
C4    C6    S    
C23   O7    A    
C6    C24   S    
C3    C5    S    
C4    H15   S    
C17   H4    S    
C18   C26   S    
O2    Zn2   S    
C23   O6    A    
Br4   C15   S    
O8    Zn2   S    
C18   H7    S    
C16   H16   S    
C3    C24   S    
C19   H10   S    
C10   H13   S    
