data_mof_unit_60692.cif
_audit_creation_date              2012-12-10T19:06:44-0500
_audit_creation_method            fapswitch 2.2
_symmetry_space_group_name_H-M    P1
_symmetry_Int_Tables_number       1
_space_group_crystal_system       triclinic
_cell_length_a                    13.037851
_cell_length_b                    13.629291
_cell_length_c                    16.789513
_cell_angle_alpha                 89.048816
_cell_angle_beta                  93.50239
_cell_angle_gamma                 94.325691
_cell_volume                      2969.16986706

loop_
_atom_site_label
_atom_site_type_symbol
_atom_type_description
_atom_site_fract_x
_atom_site_fract_y
_atom_site_fract_z
_atom_type_partial_charge
C1    C     C_R   0.481233 0.314943 0.500763 0.929882
C2    C     C_R   0.518707 0.685052 0.499160 0.930280
C3    C     C_1   0.533404 0.788062 0.496913 -0.106963
C4    C     C_1   0.466631 0.211951 0.503955 -0.115088
C5    C     C_2   0.544237 0.980487 0.493230 0.440038
C6    C     C_2   0.456561 0.019558 0.509746 0.440439
C7    C     C_1   0.458156 0.124635 0.507016 -0.040708
C8    C     C_1   0.542190 0.875388 0.494884 -0.041726
C9    C     C_2   0.034751 0.525288 0.525456 0.365232
C10   C     C_2   0.965287 0.475104 0.474389 0.360048
C11   C     C_1   0.852972 0.481191 0.482565 0.104271
C12   C     C_1   0.147043 0.518980 0.517371 0.093576
C13   C     C_R   0.484349 0.503835 0.347405 0.957043
C14   C     C_R   0.515883 0.498798 0.652401 0.968610
C15   C     C_R   0.470992 0.524918 0.262660 -0.252434
C16   C     C_R   0.529549 0.501736 0.738155 -0.236723
C17   C     C_R   0.523230 0.609436 0.230148 0.099513
C18   C     C_R   0.492549 0.420716 0.783674 0.081466
C19   C     C_R   0.504113 0.633257 0.149392 0.129459
C20   C     C_R   0.495889 0.428094 0.866816 0.097879
C21   C     C_R   0.433221 0.572744 0.102305 -0.118557
C22   C     C_R   0.530076 0.518519 0.902405 -0.202683
C23   C     C_R   0.374616 0.494161 0.136659 0.483472
C24   C     C_R   0.566981 0.599360 0.856641 0.470950
C25   C     C_R   0.396020 0.468087 0.216301 0.067863
C26   C     C_R   0.572855 0.588542 0.774388 0.019060
C27   C     C_2   0.441701 0.572356 0.015925 0.499973
C28   C     C_2   0.522763 0.529007 0.988673 0.487264
N1    N     N_1   0.235630 0.515160 0.512550 -0.082889
N2    N     N_1   0.764370 0.484840 0.487450 -0.076918
O1    O     O_R   0.402910 0.365220 0.504590 -0.596759
O2    O     O_R   0.597090 0.634780 0.495410 -0.586986
O3    O     O_R   0.572660 0.355490 0.496530 -0.600593
O4    O     O_R   0.427340 0.644510 0.503470 -0.605953
O5    O     O_R   0.405090 0.505430 0.388710 -0.596607
O6    O     O_R   0.594910 0.494570 0.611290 -0.582979
O7    O     O_R   0.574840 0.495690 0.380650 -0.592739
O8    O     O_R   0.425160 0.504310 0.619350 -0.610509
Zn1   Zn    Zn3+2 0.386660 0.506500 0.505380 1.020242
Zn2   Zn    Zn3+2 0.613340 0.493500 0.494620 1.038993
I1    I     I_    0.631213 0.701759 0.302044 -0.303415
I2    I     I_    0.433400 0.287640 0.725702 -0.319508
I3    I     I_    0.647164 0.704109 0.706121 -0.318244
I4    I     I_    0.320472 0.336466 0.262543 -0.249965
O9    O     O_3   0.587374 0.480680 0.043339 -0.617427
C29   C     C_3   0.688533 0.481933 0.017732 -0.199240
H1    H     H_    0.739577 0.456462 0.067921 0.189565
H2    H     H_    0.718531 0.557625 0.000925 0.189212
H3    H     H_    0.692395 0.430425 0.967553 0.176201
O10   O     O_3   0.375805 0.626909 0.967876 -0.636314
C30   C     C_3   0.308493 0.565465 0.917895 -0.329287
H4    H     H_    0.230614 0.593284 0.916452 0.197938
H5    H     H_    0.300757 0.486970 0.937510 0.208071
H6    H     H_    0.334086 0.570101 0.856026 0.175950
O11   O     O_3   0.305171 0.435290 0.089726 -0.575477
C31   C     C_3   0.207530 0.472998 0.091713 -0.272134
H7    H     H_    0.208856 0.550697 0.070020 0.170555
H8    H     H_    0.178679 0.467404 0.152752 0.185527
H9    H     H_    0.152177 0.428583 0.051544 0.198339
O12   O     O_3   0.602619 0.686498 0.893733 -0.597582
C32   C     C_3   0.534830 0.761090 0.874238 -0.116266
H10   H     H_    0.493965 0.778416 0.927551 0.218657
H11   H     H_    0.475510 0.743228 0.824786 0.134503
H12   H     H_    0.581077 0.828947 0.856966 0.194597
I5    I     I_    0.443617 0.305430 0.939138 -0.197962
I6    I     I_    0.585865 0.756999 0.096114 -0.241191
O13   O     O_3   0.369865 0.957763 0.527661 -0.628983
C33   C     C_3   0.285885 0.010069 0.547736 -0.247219
H13   H     H_    0.258176 0.055688 0.496422 0.176186
H14   H     H_    0.306317 0.056024 0.601361 0.183118
H15   H     H_    0.221465 0.956290 0.562479 0.193570
O14   O     O_3   0.630934 0.042263 0.475274 -0.627564
C34   C     C_3   0.716040 0.989930 0.457821 -0.231322
H16   H     H_    0.697779 0.943223 0.404347 0.187401
H17   H     H_    0.742034 0.945058 0.510146 0.176117
H18   H     H_    0.780916 0.043679 0.444043 0.193360
O15   O     O_3   0.004041 0.418891 0.415564 -0.626052
C35   C     C_3   0.926067 0.372154 0.364412 -0.249682
H19   H     H_    0.879913 0.427082 0.331689 0.169104
H20   H     H_    0.875883 0.318624 0.398008 0.167477
H21   H     H_    0.963026 0.330289 0.319332 0.205502
O16   O     O_3   0.996046 0.581472 0.584323 -0.620671
C36   C     C_3   0.074137 0.629947 0.634363 -0.254829
H22   H     H_    0.123350 0.683235 0.599744 0.165334
H23   H     H_    0.121291 0.576136 0.667521 0.159864
H24   H     H_    0.037264 0.672365 0.679139 0.206444

loop_
_geom_bond_atom_site_label_1
_geom_bond_atom_site_label_2
_ccdc_geom_bond_type
O11   C31   S    
C12   N1    T    
C34   H16   S    
C1    O3    A    
O9    C29   S    
C29   H3    S    
C19   I6    S    
C19   C21   A    
C24   C26   A    
C13   O5    A    
O7    Zn2   S    
C18   I2    S    
C14   O6    A    
C5    C6    D    
C35   H20   S    
C15   C25   A    
C1    O1    A    
C31   H7    S    
C18   C20   A    
C2    O2    A    
C32   H11   S    
O4    Zn1   S    
C11   N2    T    
O1    Zn1   S    
C33   H13   S    
C9    C10   D    
C13   O7    A    
C27   O10   S    
C9    O16   S    
C2    O4    A    
O2    Zn2   S    
C21   C27   S    
C22   C28   S    
C34   H17   S    
C4    C7    T    
C25   I4    S    
C10   O15   S    
C26   I3    S    
C16   C26   A    
C29   H2    S    
C28   O9    S    
O3    Zn2   S    
O13   C33   S    
C20   I5    S    
O6    Zn2   S    
C3    C8    T    
C35   H19   S    
O15   C35   S    
C30   H4    S    
O12   C32   S    
C30   H5    S    
C32   H12   S    
O5    Zn1   S    
C14   O8    A    
C36   H22   S    
C24   O12   S    
N1    Zn1   S    
O10   C30   S    
N2    Zn2   S    
C16   C18   A    
C6    O13   S    
C36   H23   S    
C20   C22   A    
C13   C15   S    
C34   H18   S    
C14   C16   S    
C15   C17   A    
C29   H1    S    
O14   C34   S    
C5    C8    S    
C23   O11   S    
C6    C7    S    
C5    O14   S    
C31   H9    S    
C30   H6    S    
C1    C4    S    
C21   C23   A    
C2    C3    S    
C35   H21   S    
O8    Zn1   S    
C33   H15   S    
C17   C19   A    
C31   H8    S    
C22   C24   A    
C23   C25   A    
C32   H10   S    
C9    C12   S    
C17   I1    S    
C10   C11   S    
C36   H24   S    
C33   H14   S    
O16   C36   S    
C27   C28   D    
