data_mof_unit_35593.cif
_audit_creation_date              2012-10-26T19:41:51-0400
_audit_creation_method            fapswitch 2.2
_symmetry_space_group_name_H-M    P1
_symmetry_Int_Tables_number       1
_space_group_crystal_system       triclinic
_cell_length_a                    10.633494
_cell_length_b                    10.859023
_cell_length_c                    9.611388
_cell_angle_alpha                 89.860708
_cell_angle_beta                  90.053609
_cell_angle_gamma                 93.318724
_cell_volume                      1107.9559333

loop_
_atom_site_label
_atom_site_type_symbol
_atom_type_description
_atom_site_fract_x
_atom_site_fract_y
_atom_site_fract_z
_atom_type_partial_charge
C1    C     C_R   0.509635 0.263195 0.500887 0.546385
C2    C     C_R   0.527498 0.063998 0.632226 0.026627
C3    C     C_R   0.520516 0.129343 0.504439 -0.002878
C4    C     C_R   0.259548 0.499829 0.499709 0.557254
C5    C     C_R   0.506872 0.064181 0.379281 -0.138288
C6    C     C_R   0.495957 0.936789 0.379810 -0.137986
C7    C     C_R   0.486843 0.871836 0.505744 -0.002766
C8    C     C_R   0.663933 0.669116 0.143313 -0.061386
C9    C     C_R   0.740936 0.754846 0.070942 0.054953
C10   C     C_R   0.741621 0.754018 0.927413 -0.118580
C11   C     C_R   0.664371 0.668653 0.855531 -0.086576
C12   C     C_3   0.963601 0.607700 0.454748 -0.146699
C13   C     C_R   0.580456 0.583265 0.924865 0.123591
C14   C     C_R   0.580418 0.583241 0.074352 0.119464
C15   C     C_R   0.424713 0.420345 0.075931 0.076418
C16   C     C_R   0.492660 0.737305 0.501005 0.537617
C17   C     C_R   0.423551 0.419286 0.929221 0.342686
C18   C     C_R   0.740480 0.498916 0.500491 0.552055
C19   C     C_3   0.037144 0.389299 0.546395 -0.109510
C20   C     C_3   0.952847 0.407873 0.417465 -0.130429
C21   C     C_3   0.877437 0.497530 0.502353 0.035479
C22   C     C_3   0.959997 0.478939 0.630907 0.112662
C23   C     C_3   0.040989 0.518130 0.369626 -0.105284
C24   C     C_3   0.047760 0.589201 0.583836 -0.107984
C25   C     C_3   0.122711 0.499571 0.498898 0.019238
C26   C     C_R   0.569858 0.119600 0.758579 -0.063727
C27   C     C_R   0.549122 0.059641 0.885496 -0.088703
C28   C     C_R   0.485740 0.944314 0.888681 -0.111907
C29   C     C_R   0.455060 0.883741 0.764449 -0.094791
C30   C     C_R   0.488979 0.937751 0.634079 0.021651
Cu1   Cu    Cu3+1 0.499990 0.499990 0.640660 0.938781
Cu2   Cu    Cu3+1 0.500010 0.500010 0.359340 0.933075
H1    H     H_    0.911351 0.333568 0.349553 0.150575
H2    H     H_    0.089148 0.663468 0.651885 0.137214
H3    H     H_    0.930632 0.697176 0.417891 0.153487
H4    H     H_    0.076711 0.534452 0.262254 0.163066
H5    H     H_    0.504888 0.111592 0.280052 0.144210
H6    H     H_    0.622035 0.207927 0.761105 0.168883
H7    H     H_    0.579105 0.104230 0.981565 0.134304
H8    H     H_    0.339258 0.343579 0.769729 0.386190
H9    H     H_    0.462933 0.900314 0.987423 0.120130
H10   H     H_    0.401398 0.796666 0.773229 0.154686
H11   H     H_    0.492884 0.889250 0.280769 0.145239
H12   H     H_    0.363038 0.355332 0.132742 0.150561
H13   H     H_    0.674002 0.673640 0.253021 0.197308
H14   H     H_    0.803033 0.819399 0.870708 0.155255
H15   H     H_    0.675151 0.673288 0.745842 0.192849
H16   H     H_    0.070161 0.299949 0.584002 0.142110
I1    I     I_    0.857000 0.886490 0.179422 -0.441558
I2    I     I_    0.907252 0.441754 0.842252 -0.367819
N1    N     N_R   0.501210 0.501210 0.147910 -0.284158
N2    N     N_R   0.501250 0.501290 0.852040 -0.256674
O1    O     O_R   0.499990 0.319640 0.618810 -0.524721
O2    O     O_R   0.500000 0.319660 0.381240 -0.506737
O3    O     O_R   0.316850 0.499960 0.618770 -0.515699
O4    O     O_R   0.316860 0.499980 0.381190 -0.501341
O5    O     O_R   0.500000 0.680340 0.618760 -0.542252
O6    O     O_R   0.500010 0.680360 0.381190 -0.523395
O7    O     O_R   0.683140 0.500020 0.618810 -0.501814
O8    O     O_R   0.683150 0.500040 0.381230 -0.514092
O9    O     O_3   0.341620 0.331632 0.870198 -0.706248

loop_
_geom_bond_atom_site_label_1
_geom_bond_atom_site_label_2
_ccdc_geom_bond_type
C10   H14   S    
C1    O2    A    
Cu2   N1    S    
C6    C7    A    
C5    H5    S    
C29   H10   S    
C13   N2    A    
C9    C10   A    
C12   C24   S    
H8    O9    S    
C11   H15   S    
Cu1   Cu2   S    
C20   C23   S    
Cu2   O6    S    
Cu1   N2    S    
C2    C30   A    
Cu1   O3    S    
Cu1   O5    S    
C2    C3    A    
C8    H13   S    
C2    C26   A    
C7    C30   A    
C16   O6    A    
C21   C22   S    
Cu1   O1    S    
C12   H3    S    
C11   C13   A    
C12   C23   S    
C26   C27   A    
C29   C30   A    
C20   H1    S    
C17   N2    A    
Cu2   O2    S    
C28   C29   A    
C15   H12   S    
C4    C25   S    
C15   N1    A    
C16   O5    A    
C23   C25   S    
C4    O3    A    
C5    C6    A    
C19   C25   S    
C22   C24   S    
C10   C11   A    
Cu2   O8    S    
Cu1   O7    S    
C22   I2    S    
C18   C21   S    
C3    C5    A    
C18   O7    A    
C4    O4    A    
C19   C22   S    
C9    I1    S    
C24   C25   S    
C14   N1    A    
C23   H4    S    
C18   O8    A    
C27   C28   A    
C15   C17   A    
C1    O1    A    
C6    H11   S    
C7    C16   S    
C8    C14   A    
C13   C14   A    
C17   O9    S    
C20   C21   S    
C19   H16   S    
C12   C21   S    
Cu2   O4    S    
C26   H6    S    
C28   H9    S    
C19   C20   S    
C27   H7    S    
C8    C9    A    
C1    C3    S    
C24   H2    S    
