data_mof_unit_50362.cif
_audit_creation_date              2012-12-10T18:41:18-0500
_audit_creation_method            fapswitch 2.2
_symmetry_space_group_name_H-M    P1
_symmetry_Int_Tables_number       1
_space_group_crystal_system       triclinic
_cell_length_a                    15.091576
_cell_length_b                    13.879138
_cell_length_c                    10.76489
_cell_angle_alpha                 90.516488
_cell_angle_beta                  90.267271
_cell_angle_gamma                 89.860405
_cell_volume                      2254.67043356

loop_
_atom_site_label
_atom_site_type_symbol
_atom_type_description
_atom_site_fract_x
_atom_site_fract_y
_atom_site_fract_z
_atom_type_partial_charge
C1    C     C_R   0.329871 0.500104 0.500012 0.853763
C2    C     C_R   0.670020 0.499926 0.500112 0.782902
C3    C     C_R   0.186888 0.421211 0.545865 -0.157619
C4    C     C_R   0.813445 0.423802 0.447393 -0.199504
C5    C     C_R   0.094856 0.422243 0.547534 -0.272761
C6    C     C_R   0.905479 0.424987 0.447396 -0.272925
C7    C     C_R   0.048243 0.501738 0.501325 0.027677
C8    C     C_R   0.951277 0.501317 0.504341 0.029730
C9    C     C_R   0.448477 0.107338 0.581343 -0.297715
C10   C     C_R   0.551736 0.108183 0.411703 -0.294226
C11   C     C_R   0.448497 0.208876 0.580950 0.066428
C12   C     C_R   0.551111 0.209696 0.416054 0.081764
C13   C     C_R   0.500478 0.055366 0.495756 0.168724
C14   C     C_R   0.430485 0.893047 0.440009 -0.054413
C15   C     C_R   0.572008 0.894232 0.548472 -0.053107
C16   C     C_R   0.437305 0.790154 0.432033 0.583854
C17   C     C_R   0.563913 0.792363 0.563189 0.585659
C18   C     C_R   0.501052 0.946411 0.494370 -0.093210
C19   C     C_R   0.499293 0.499626 0.262812 0.876123
C20   C     C_R   0.499276 0.500367 0.737659 0.892918
C21   C     C_R   0.561389 0.547409 0.066388 0.021691
C22   C     C_R   0.561958 0.547686 0.938911 -0.040293
C23   C     C_R   0.495467 0.499878 0.130222 -0.282295
C24   C     C_R   0.495194 0.501747 0.871104 -0.242320
C25   C     C_R   0.421648 0.462698 0.065525 0.375779
C26   C     C_R   0.422817 0.460460 0.934044 0.368271
C27   C     C_3   0.661642 0.540937 0.934755 -0.051486
C28   C     C_3   0.660086 0.538974 0.077334 -0.036533
C29   C     C_R   0.094441 0.579884 0.450215 0.574156
C30   C     C_R   0.904280 0.575762 0.564778 0.573753
C31   C     C_R   0.186882 0.579905 0.452988 -0.309112
C32   C     C_R   0.811838 0.576090 0.559942 -0.300263
C33   C     C_R   0.233272 0.500426 0.499756 -0.097292
C34   C     C_R   0.766406 0.499955 0.502219 -0.104504
Cu1   Cu    Cu3+1 0.500000 0.596430 0.500000 1.001350
Cu2   Cu    Cu3+1 0.500000 0.403570 0.500000 0.958351
H1    H     H_    0.691046 0.607919 0.897545 0.136430
H2    H     H_    0.680348 0.469352 0.118768 0.133099
H3    H     H_    0.222044 0.641127 0.415930 0.197743
H4    H     H_    0.775829 0.634717 0.603763 0.200022
H5    H     H_    0.221779 0.359354 0.582737 0.159219
H6    H     H_    0.779030 0.364592 0.402236 0.151655
H7    H     H_    0.059837 0.361377 0.585890 0.156935
H8    H     H_    0.941137 0.366903 0.401776 0.156537
H9    H     H_    0.407478 0.069548 0.647171 0.136778
H10   H     H_    0.592501 0.071085 0.343900 0.138261
H11   H     H_    0.406782 0.247877 0.644977 0.117810
H12   H     H_    0.591511 0.249353 0.351500 0.114297
N1    N     N_R   0.500000 0.258690 0.500000 -0.167884
N2    N     N_R   0.500000 0.741330 0.500000 -0.274069
O1    O     O_R   0.371460 0.581430 0.500010 -0.542887
O2    O     O_R   0.628540 0.581430 0.499990 -0.538599
O3    O     O_R   0.371470 0.418560 0.500010 -0.581401
O4    O     O_R   0.628530 0.418560 0.499990 -0.602487
O5    O     O_R   0.499990 0.581450 0.319660 -0.573342
O6    O     O_R   0.500010 0.581450 0.680340 -0.575822
O7    O     O_R   0.500010 0.418580 0.319660 -0.571855
O8    O     O_R   0.499990 0.418580 0.680340 -0.579450
O9    O     O_3   0.352069 0.422437 0.129994 -0.568894
C35   C     C_3   0.286658 0.493639 0.148940 -0.319775
H13   H     H_    0.264044 0.525902 0.059874 0.177350
H14   H     H_    0.310721 0.550571 0.213860 0.159449
H15   H     H_    0.228275 0.459565 0.192598 0.186309
O10   O     O_3   0.351951 0.423849 0.866535 -0.577063
C36   C     C_3   0.350401 0.322618 0.877343 -0.267509
H16   H     H_    0.323347 0.300505 0.968330 0.209684
H17   H     H_    0.417005 0.289631 0.862781 0.134903
H18   H     H_    0.305117 0.293222 0.805055 0.153894
C37   C     C_3   0.347855 0.943873 0.391168 -0.352975
C38   C     C_3   0.266881 0.919799 0.469465 -0.781273
H19   H     H_    0.251537 0.841703 0.463804 0.281161
H20   H     H_    0.278835 0.940443 0.568064 0.235585
H21   H     H_    0.208506 0.960485 0.434742 0.233365
H22   H     H_    0.354836 0.023257 0.391228 0.210681
H23   H     H_    0.334912 0.924737 0.292894 0.198686
C39   C     C_3   0.657657 0.944425 0.587502 -0.352800
C40   C     C_3   0.732440 0.918817 0.497966 -0.788615
H24   H     H_    0.746554 0.840258 0.499671 0.279084
H25   H     H_    0.714166 0.939887 0.401867 0.232307
H26   H     H_    0.793575 0.957992 0.525702 0.236011
H27   H     H_    0.650910 0.023861 0.590237 0.205625
H28   H     H_    0.678085 0.924774 0.682793 0.208280
O11   O     O_3   0.377039 0.737636 0.361712 -0.554066
C41   C     C_3   0.390097 0.753378 0.233067 -0.348562
H29   H     H_    0.326754 0.777954 0.191190 0.164803
H30   H     H_    0.407025 0.684639 0.186183 0.188582
H31   H     H_    0.442991 0.806291 0.210019 0.125991
O12   O     O_3   0.624201 0.743233 0.635980 -0.550094
C42   C     C_3   0.609138 0.765086 0.762952 -0.370052
H32   H     H_    0.568738 0.708313 0.805485 0.202492
H33   H     H_    0.574770 0.834858 0.781833 0.126439
H34   H     H_    0.674106 0.767595 0.811325 0.167825
C43   C     C_3   0.700696 0.451088 0.868249 -0.379721
C44   C     C_3   0.669254 0.352671 0.914402 -0.803953
H35   H     H_    0.699418 0.335527 0.005703 0.226287
H36   H     H_    0.596177 0.349108 0.921600 0.250521
H37   H     H_    0.690824 0.296004 0.847563 0.236887
H38   H     H_    0.684926 0.456394 0.767725 0.205145
H39   H     H_    0.774045 0.453829 0.876900 0.191055
C45   C     C_3   0.706350 0.624519 0.143747 -0.384703
C46   C     C_3   0.660545 0.722485 0.129822 -0.815645
H40   H     H_    0.652394 0.741224 0.030673 0.229155
H41   H     H_    0.594679 0.721921 0.175253 0.258943
H42   H     H_    0.701404 0.779021 0.175754 0.234556
H43   H     H_    0.710456 0.608291 0.244534 0.212261
H44   H     H_    0.775400 0.629787 0.109089 0.193784
O13   O     O_3   0.049422 0.657645 0.401051 -0.543559
C47   C     C_3   0.043513 0.644595 0.271262 -0.361964
H45   H     H_    0.007415 0.577098 0.246741 0.153831
H46   H     H_    0.110272 0.644627 0.227668 0.150609
H47   H     H_    0.005411 0.705626 0.231808 0.198690
O14   O     O_3   0.948752 0.649817 0.624752 -0.543350
C48   C     C_3   0.947181 0.632542 0.753602 -0.351648
H48   H     H_    0.978423 0.562016 0.776282 0.155856
H49   H     H_    0.878461 0.635915 0.790559 0.147154
H50   H     H_    0.986156 0.689603 0.801427 0.198674

loop_
_geom_bond_atom_site_label_1
_geom_bond_atom_site_label_2
_ccdc_geom_bond_type
C15   C18   A    
C9    H9    S    
C43   C44   S    
C7    C29   A    
C17   O12   S    
C14   C18   A    
C11   H11   S    
Cu1   Cu2   S    
C41   H31   S    
C20   O6    A    
C12   N1    A    
C1    C33   S    
C7    C8    S    
C40   H24   S    
C19   O7    A    
C45   H43   S    
C46   H40   S    
C13   C18   S    
C35   H15   S    
C24   C26   A    
Cu2   O8    S    
C3    C33   A    
C47   H45   S    
C35   H14   S    
C9    C13   A    
C1    O3    A    
Cu2   O3    S    
C20   C24   S    
C31   H3    S    
C36   H17   S    
C10   H10   S    
O13   C47   S    
C31   C33   A    
C38   H19   S    
C42   H33   S    
C43   H39   S    
C12   H12   S    
C48   H50   S    
C2    C34   S    
C23   C25   A    
C15   C39   S    
C5    H7    S    
O9    C35   S    
C46   H41   S    
C6    H8    S    
C21   C22   A    
C44   H35   S    
C38   H21   S    
C10   C12   A    
O14   C48   S    
C40   H25   S    
C4    C34   A    
Cu1   O5    S    
C39   C40   S    
C4    C6    A    
Cu2   O7    S    
C2    O4    A    
C39   H28   S    
C5    C7    A    
C6    C8    A    
C44   H37   S    
C25   C26   A    
C16   O11   S    
C30   O14   S    
C35   H13   S    
C32   C34   A    
C17   N2    A    
C19   C23   S    
C11   N1    A    
C9    C11   A    
O11   C41   S    
C28   H2    S    
C36   H18   S    
Cu1   N2    S    
C37   H22   S    
C41   H29   S    
C42   H34   S    
C44   H36   S    
C1    O1    A    
C2    O2    A    
C21   C28   S    
C46   H42   S    
C22   C27   S    
C21   C23   A    
Cu1   O1    S    
C14   C37   S    
C14   C16   A    
C27   C43   S    
C20   O8    A    
Cu1   O2    S    
C48   H48   S    
C40   H26   S    
C19   O5    A    
C15   C17   A    
C3    H5    S    
Cu1   O6    S    
C41   H30   S    
C3    C5    A    
C10   C13   A    
C39   H27   S    
C26   O10   S    
C45   H44   S    
C47   H47   S    
C8    C30   A    
O10   C36   S    
C29   C31   A    
C30   C32   A    
C28   C45   S    
C4    H6    S    
C27   H1    S    
C45   C46   S    
C47   H46   S    
C37   H23   S    
C22   C24   A    
C32   H4    S    
C37   C38   S    
C16   N2    A    
Cu2   O4    S    
O12   C42   S    
C36   H16   S    
C27   C28   S    
C29   O13   S    
C38   H20   S    
C25   O9    S    
C42   H32   S    
C43   H38   S    
Cu2   N1    S    
C48   H49   S    
