data_mof_unit_24395.cif
_audit_creation_date              2012-12-11T15:17:51-0500
_audit_creation_method            fapswitch 2.2
_symmetry_space_group_name_H-M    P1
_symmetry_Int_Tables_number       1
_space_group_crystal_system       triclinic
_cell_length_a                    15.722843
_cell_length_b                    15.722592
_cell_length_c                    34.582229
_cell_angle_alpha                 90.000558
_cell_angle_beta                  90.000793
_cell_angle_gamma                 119.998733
_cell_volume                      7403.62444888

loop_
_atom_site_label
_atom_site_type_symbol
_atom_type_description
_atom_site_fract_x
_atom_site_fract_y
_atom_site_fract_z
_atom_type_partial_charge
C1    C     C_R   0.578705 0.441320 0.555138 0.581314
C2    C     C_R   0.558685 0.137381 0.555138 0.581229
C3    C     C_R   0.862619 0.421300 0.555138 0.581193
C4    C     C_R   0.441320 0.578704 0.055138 0.581236
C5    C     C_R   0.137389 0.558686 0.055140 0.581247
C6    C     C_R   0.421291 0.862613 0.055140 0.581256
C7    C     C_R   0.980069 0.491083 0.712517 0.382559
C8    C     C_R   0.508647 0.488594 0.712526 0.382551
C9    C     C_R   0.511525 0.020245 0.712556 0.382117
C10   C     C_R   0.491132 0.979743 0.212551 0.382629
C11   C     C_R   0.488736 0.508631 0.212506 0.382596
C12   C     C_R   0.020332 0.511500 0.212566 0.382307
C13   C     C_R   0.995656 0.426185 0.855209 0.132568
C14   C     C_R   0.573620 0.569393 0.855162 0.132413
C15   C     C_R   0.430514 0.004257 0.855196 0.132570
C16   C     C_R   0.426285 0.995432 0.355229 0.132539
C17   C     C_R   0.569435 0.573622 0.355158 0.132493
C18   C     C_R   0.004426 0.430682 0.355230 0.132612
C19   C     C_R   0.024169 0.440456 0.894357 0.152990
C20   C     C_R   0.559448 0.583741 0.894304 0.152907
C21   C     C_R   0.416186 0.975731 0.894337 0.152985
C22   C     C_R   0.440535 0.024077 0.394360 0.153035
C23   C     C_R   0.583728 0.559444 0.394307 0.153001
C24   C     C_R   0.975836 0.416322 0.394361 0.153078
C25   C     C_R   0.077268 0.614657 0.888219 0.143641
C26   C     C_R   0.385273 0.462502 0.888245 0.143595
C27   C     C_R   0.537706 0.923147 0.888320 0.143657
C28   C     C_R   0.614770 0.077405 0.388207 0.143605
C29   C     C_R   0.462566 0.385252 0.388227 0.143616
C30   C     C_R   0.922900 0.537546 0.388269 0.143632
C31   C     C_R   0.046667 0.599246 0.849820 0.395892
C32   C     C_R   0.400605 0.447210 0.849850 0.395901
C33   C     C_R   0.553055 0.953856 0.849936 0.395901
C34   C     C_R   0.599373 0.046705 0.349822 0.395960
C35   C     C_R   0.447321 0.400587 0.349827 0.395919
C36   C     C_R   0.953632 0.552887 0.349891 0.395969
C37   C     C_R   0.011753 0.507367 0.832476 -0.030218
C38   C     C_R   0.492418 0.504164 0.832473 -0.030177
C39   C     C_R   0.495927 0.988493 0.832524 -0.030335
C40   C     C_R   0.507475 0.011592 0.332496 -0.030055
C41   C     C_R   0.504266 0.492415 0.332458 -0.030148
C42   C     C_R   0.988486 0.495914 0.332523 -0.030189
C43   C     C_R   0.074373 0.536774 0.910023 -0.073091
C44   C     C_R   0.463179 0.537587 0.910012 -0.073146
C45   C     C_R   0.462453 0.925729 0.910051 -0.073188
C46   C     C_R   0.536842 0.074415 0.410014 -0.073044
C47   C     C_R   0.537596 0.463170 0.410008 -0.073082
C48   C     C_R   0.925667 0.462440 0.410038 -0.073108
C49   C     C_R   0.577035 0.442519 0.445654 0.583632
C50   C     C_R   0.557489 0.134526 0.445651 0.583675
C51   C     C_R   0.865492 0.422967 0.445658 0.583626
C52   C     C_R   0.442519 0.577036 0.945653 0.583581
C53   C     C_R   0.134506 0.557473 0.945658 0.583639
C54   C     C_R   0.422972 0.865510 0.945664 0.583598
C55   C     C_R   0.914725 0.453069 0.592389 -0.039044
C56   C     C_R   0.546952 0.461657 0.592392 -0.039077
C57   C     C_R   0.538383 0.085305 0.592395 -0.039093
C58   C     C_R   0.452995 0.914651 0.092406 -0.039090
C59   C     C_R   0.461673 0.546936 0.092386 -0.039068
C60   C     C_R   0.085362 0.538393 0.092407 -0.039054
C61   C     C_R   0.938622 0.389677 0.612040 -0.136266
C62   C     C_R   0.610545 0.548740 0.612125 -0.136225
C63   C     C_R   0.451259 0.061718 0.612120 -0.136400
C64   C     C_R   0.389348 0.938093 0.112135 -0.136308
C65   C     C_R   0.548794 0.610488 0.112100 -0.136372
C66   C     C_R   0.061806 0.451277 0.112128 -0.136350
C67   C     C_R   0.964846 0.404628 0.650900 0.133368
C68   C     C_R   0.595512 0.559904 0.650985 0.133380
C69   C     C_R   0.440120 0.035577 0.650987 0.133388
C70   C     C_R   0.404300 0.964198 0.151004 0.133326
C71   C     C_R   0.559997 0.595440 0.150954 0.133316
C72   C     C_R   0.035706 0.440142 0.150997 0.133374
C73   C     C_R   0.968993 0.484796 0.670560 -0.029436
C74   C     C_R   0.515067 0.483984 0.670567 -0.029506
C75   C     C_R   0.516130 0.031230 0.670589 -0.029537
C76   C     C_R   0.484730 0.968706 0.170596 -0.029507
C77   C     C_R   0.484083 0.515022 0.170548 -0.029460
C78   C     C_R   0.031362 0.516138 0.170605 -0.029515
C79   C     C_R   0.953663 0.553628 0.650282 0.168493
C80   C     C_R   0.446062 0.400082 0.650204 0.168474
C81   C     C_R   0.600091 0.046222 0.650230 0.168465
C82   C     C_R   0.553789 0.953858 0.150243 0.168446
C83   C     C_R   0.400141 0.446047 0.150203 0.168482
C84   C     C_R   0.046347 0.600095 0.150258 0.168502
C85   C     C_R   0.926795 0.537749 0.611271 0.392634
C86   C     C_R   0.462026 0.389200 0.611192 0.392658
C87   C     C_R   0.610922 0.072981 0.611208 0.392645
C88   C     C_R   0.537896 0.927079 0.111223 0.392649
C89   C     C_R   0.389215 0.462025 0.111196 0.392684
C90   C     C_R   0.073078 0.610933 0.111234 0.392619
C91   C     C_R   0.999287 0.500806 0.790279 0.407985
C92   C     C_R   0.498914 0.498138 0.790282 0.408080
C93   C     C_R   0.502031 0.001040 0.790324 0.407542
C94   C     C_R   0.500889 0.999061 0.290307 0.408195
C95   C     C_R   0.498277 0.498922 0.290266 0.408140
C96   C     C_R   0.001039 0.501947 0.290326 0.407769
Cr1   Cr    Cr6+3 0.522350 0.263930 0.500020 1.182807
Cr2   Cr    Cr6+3 0.736070 0.258420 0.500020 1.182826
Cr3   Cr    Cr6+3 0.741580 0.477650 0.500020 1.182765
Cr4   Cr    Cr6+3 0.263930 0.522350 0.000020 1.182787
Cr5   Cr    Cr6+3 0.258420 0.736070 0.000020 1.182765
Cr6   Cr    Cr6+3 0.477650 0.741580 0.000020 1.182759
H1    H     H_    0.931277 0.324840 0.597920 0.219757
H2    H     H_    0.675589 0.606122 0.598073 0.220005
H3    H     H_    0.393810 0.069252 0.598052 0.219807
H4    H     H_    0.324318 0.930455 0.098071 0.219951
H5    H     H_    0.606178 0.675513 0.098038 0.219863
H6    H     H_    0.069325 0.393832 0.098053 0.219848
N1    N     N_R   0.918261 0.426412 0.773510 -0.135198
N2    N     N_R   0.573219 0.491346 0.773525 -0.135196
N3    N     N_R   0.507826 0.081693 0.773536 -0.135164
N4    N     N_R   0.426721 0.917829 0.273562 -0.135167
N5    N     N_R   0.491434 0.573194 0.273506 -0.135201
N6    N     N_R   0.081869 0.508128 0.273557 -0.135128
N7    N     N_R   0.908969 0.421492 0.735226 -0.143587
N8    N     N_R   0.578145 0.486951 0.735245 -0.143548
N9    N     N_R   0.512190 0.090972 0.735253 -0.143331
N10   N     N_R   0.421781 0.908488 0.235280 -0.143647
N11   N     N_R   0.487041 0.578109 0.235224 -0.143613
N12   N     N_R   0.091191 0.512519 0.235276 -0.143412
N13   N     N_R   0.060515 0.566157 0.729179 -0.136022
N14   N     N_R   0.433646 0.494103 0.729179 -0.136046
N15   N     N_R   0.507044 0.940202 0.729239 -0.135950
N16   N     N_R   0.565980 0.060398 0.229191 -0.136029
N17   N     N_R   0.494302 0.433667 0.229162 -0.136024
N18   N     N_R   0.940102 0.506611 0.229230 -0.135942
N19   N     N_R   0.069906 0.570806 0.767444 -0.108387
N20   N     N_R   0.428985 0.498859 0.767442 -0.108576
N21   N     N_R   0.502307 0.930822 0.767505 -0.107955
N22   N     N_R   0.570651 0.069835 0.267454 -0.108533
N23   N     N_R   0.499058 0.429018 0.267427 -0.108518
N24   N     N_R   0.930679 0.501847 0.267493 -0.108047
O1    O     O_R   0.498680 0.159540 0.541860 -0.494078
O2    O     O_R   0.840460 0.339140 0.541860 -0.494052
O3    O     O_R   0.660860 0.501320 0.541860 -0.493973
O4    O     O_R   0.159540 0.498680 0.041860 -0.494084
O5    O     O_R   0.339140 0.840460 0.041860 -0.494110
O6    O     O_R   0.501320 0.660860 0.041860 -0.494128
O7    O     O_R   0.532760 0.358060 0.540030 -0.436603
O8    O     O_R   0.641940 0.174700 0.540030 -0.436561
O9    O     O_R   0.825300 0.467240 0.540030 -0.436536
O10   O     O_R   0.358060 0.532760 0.040030 -0.436585
O11   O     O_R   0.174700 0.641940 0.040030 -0.436587
O12   O     O_R   0.467240 0.825300 0.040030 -0.436604
O13   O     O_R   0.498590 0.161190 0.456930 -0.448956
O14   O     O_R   0.838810 0.337400 0.456930 -0.448929
O15   O     O_R   0.662600 0.501410 0.456930 -0.449003
O16   O     O_R   0.161190 0.498590 0.956930 -0.449004
O17   O     O_R   0.337400 0.838810 0.956930 -0.448987
O18   O     O_R   0.501410 0.662600 0.956930 -0.449051
O19   O     O_R   0.532680 0.359580 0.461300 -0.474922
O20   O     O_R   0.640420 0.173100 0.461300 -0.474914
O21   O     O_R   0.826900 0.467320 0.461300 -0.474979
O22   O     O_R   0.359580 0.532680 0.961300 -0.474906
O23   O     O_R   0.173100 0.640420 0.961300 -0.474904
O24   O     O_R   0.467320 0.826900 0.961300 -0.474930
O25   O     O_3   0.666667 0.333333 0.499990 -0.326587
O26   O     O_3   0.333333 0.666667 0.999990 -0.326594
F1    F     F_    0.906636 0.601777 0.592708 -0.550904
F2    F     F_    0.397804 0.305240 0.592541 -0.550704
F3    F     F_    0.694925 0.092799 0.592562 -0.550657
F4    F     F_    0.602162 0.907372 0.092580 -0.550670
F5    F     F_    0.305217 0.397840 0.092564 -0.550741
F6    F     F_    0.092889 0.694932 0.092597 -0.550796
Br1   Br    Br    0.990205 0.326774 0.926246 -0.228536
Br2   Br    Br    0.673210 0.663683 0.926120 -0.228462
Br3   Br    Br    0.336169 0.009455 0.926159 -0.228385
Br4   Br    Br    0.326838 0.990116 0.426238 -0.228652
Br5   Br    Br    0.663551 0.673198 0.426146 -0.228591
Br6   Br    Br    0.009679 0.336456 0.426220 -0.228544
Br7   Br    Br    0.990260 0.311038 0.676405 -0.232846
Br8   Br    Br    0.689349 0.678617 0.676592 -0.232643
Br9   Br    Br    0.321271 0.010474 0.676559 -0.232831
Br10  Br    Br    0.310368 0.988949 0.176613 -0.232638
Br11  Br    Br    0.678753 0.689227 0.176539 -0.232900
Br12  Br    Br    0.010663 0.321331 0.176569 -0.232731
Br13  Br    Br    0.958680 0.664671 0.675856 -0.178226
Br14  Br    Br    0.334623 0.294223 0.675661 -0.178067
Br15  Br    Br    0.706147 0.040984 0.675695 -0.178182
Br16  Br    Br    0.665219 0.959442 0.175724 -0.178127
Br17  Br    Br    0.294298 0.334629 0.175677 -0.178171
Br18  Br    Br    0.041087 0.706105 0.175743 -0.178100
Br19  Br    Br    0.943922 0.297332 0.832529 -0.178381
Br20  Br    Br    0.702333 0.646595 0.832411 -0.178693
Br21  Br    Br    0.353043 0.055514 0.832452 -0.178173
Br22  Br    Br    0.297456 0.943426 0.332556 -0.178882
Br23  Br    Br    0.646650 0.702349 0.332411 -0.178704
Br24  Br    Br    0.056052 0.353529 0.332541 -0.178545
Br25  Br    Br    0.123972 0.745540 0.907725 -0.205522
Br26  Br    Br    0.254446 0.378321 0.907792 -0.205597
Br27  Br    Br    0.622088 0.876786 0.907917 -0.205141
Br28  Br    Br    0.745706 0.124402 0.407672 -0.205823
Br29  Br    Br    0.378403 0.254407 0.407762 -0.205596
Br30  Br    Br    0.876208 0.621701 0.407792 -0.205531
F7    F     F_    0.053983 0.675644 0.828726 -0.508588
F8    F     F_    0.324189 0.378051 0.828789 -0.508623
F9    F     F_    0.622465 0.946914 0.828924 -0.508448
F10   F     F_    0.675802 0.054144 0.328718 -0.508658
F11   F     F_    0.378219 0.324160 0.328752 -0.508637
F12   F     F_    0.946489 0.622121 0.328837 -0.508495

loop_
_geom_bond_atom_site_label_1
_geom_bond_atom_site_label_2
_ccdc_geom_bond_type
C25   C31   A    
C5    O4    A    
N4    N10   A    
C26   C32   A    
N2    N8    A    
C9    N9    A    
C6    C58   S    
C36   C42   A    
C3    O9    A    
Cr1   O1    S    
C32   F8    S    
C11   N11   A    
Cr6   O26   S    
C26   Br26  S    
C2    C57   S    
C26   C44   A    
C7    C73   S    
Cr2   O20   S    
C27   C33   A    
C15   Br21  S    
C83   Br17  S    
C33   C39   A    
C69   Br9   S    
C29   C47   A    
C30   Br30  S    
C42   C96   S    
C30   C48   A    
C11   N17   A    
C1    C56   S    
C95   N5    A    
N13   N19   A    
N1    N7    A    
C10   N16   A    
C18   C42   A    
C54   O24   A    
C88   F4    S    
C5    O11   A    
C12   N18   A    
Cr5   O23   S    
C52   O22   A    
C38   C92   S    
Cr2   O8    S    
N17   N23   A    
C49   O15   A    
Cr6   O6    S    
C7    N7    A    
C61   C67   A    
C39   C93   S    
C72   C78   A    
C11   C77   S    
N5    N11   A    
C82   C88   A    
C10   C76   S    
C43   C53   S    
C48   C51   S    
C12   N12   A    
C63   C69   A    
C13   Br19  S    
C12   C78   S    
C80   C86   A    
C79   Br13  S    
C67   C73   A    
C32   C38   A    
C63   H3    S    
C24   Br6   S    
C13   C37   A    
C1    O7    A    
C96   N24   A    
C22   Br4   S    
C44   C52   S    
C72   Br12  S    
C28   C34   A    
C74   C80   A    
N15   N21   A    
C95   N23   A    
C9    C75   S    
C96   N6    A    
C27   Br27  S    
C7    N13   A    
C93   N21   A    
C92   N20   A    
C89   F5    S    
C20   C44   A    
C19   C43   A    
C46   C50   S    
C57   C63   A    
C54   O17   A    
C21   C45   A    
C31   C37   A    
C58   C64   A    
C83   C89   A    
C66   C72   A    
Cr4   O4    S    
C2    O1    A    
C23   C47   A    
C49   O19   A    
C35   F11   S    
C24   C48   A    
C14   C20   A    
C81   Br15  S    
C18   C24   A    
C47   C49   S    
C76   C82   A    
C37   C91   S    
C75   C81   A    
C13   C19   A    
Cr2   O14   S    
C51   O14   A    
C67   Br7   S    
C65   C71   A    
C4    O6    A    
Cr4   O10   S    
C62   H2    S    
C57   C87   A    
C90   F6    S    
C59   C89   A    
C80   Br14  S    
C55   C85   A    
C16   C22   A    
C10   N10   A    
Cr4   O26   S    
C14   C38   A    
C34   F10   S    
C56   C86   A    
C23   Br5   S    
Cr2   O25   S    
C33   F9    S    
C66   H6    S    
C4    O10   A    
C28   C46   A    
C8    C74   S    
Cr1   O19   S    
Cr3   O3    S    
Cr6   O18   S    
C17   C23   A    
C70   Br10  S    
C15   C39   A    
C81   C87   A    
C91   N19   A    
C16   C40   A    
Cr4   O16   S    
C50   O13   A    
C25   C43   A    
C22   C46   A    
C93   N3    A    
C45   C54   S    
C53   O23   A    
C64   C70   A    
Cr3   O25   S    
C70   C76   A    
C34   C40   A    
C55   C61   A    
C6    O12   A    
C94   N22   A    
Cr6   O24   S    
C71   C77   A    
Cr1   O7    S    
C84   C90   A    
Cr4   O22   S    
N6    N12   A    
C29   C35   A    
C51   O21   A    
Cr5   O5    S    
C5    C60   S    
C61   H1    S    
Cr1   O13   S    
Cr3   O9    S    
C36   F12   S    
C40   C94   S    
C73   C79   A    
C58   C88   A    
Cr5   O26   S    
C14   Br20  S    
C64   H4    S    
C18   Br24  S    
C60   C90   A    
C20   Br2   S    
Cr2   O2    S    
C3    C55   S    
C21   Br3   S    
C30   C36   A    
N3    N9    A    
C3    O2    A    
C2    O8    A    
C91   N1    A    
C6    O5    A    
C84   Br18  S    
Cr3   O15   S    
C92   N2    A    
C25   Br25  S    
N16   N22   A    
C31   F7    S    
Cr5   O11   S    
C27   C45   A    
C41   C95   S    
C86   F2    S    
C17   Br23  S    
C29   Br29  S    
Cr3   O21   S    
C4    C59   S    
Cr5   O17   S    
C9    N15   A    
C79   C85   A    
C71   Br11  S    
C69   C75   A    
C56   C62   A    
C62   C68   A    
C53   O16   A    
C8    N14   A    
N14   N20   A    
C35   C41   A    
C17   C41   A    
C78   C84   A    
N18   N24   A    
C8    N8    A    
C60   C66   A    
C50   O20   A    
C15   C21   A    
C19   Br1   S    
C87   F3    S    
C52   O18   A    
C82   Br16  S    
Cr6   O12   S    
C77   C83   A    
C28   Br28  S    
C16   Br22  S    
C85   F1    S    
C1    O3    A    
C68   C74   A    
C65   H5    S    
C94   N4    A    
C59   C65   A    
C68   Br8   S    
Cr1   O25   S    
