data_mof_unit_14528.cif
_audit_creation_date              2012-12-11T15:44:51-0500
_audit_creation_method            fapswitch 2.2
_symmetry_space_group_name_H-M    P1
_symmetry_Int_Tables_number       1
_space_group_crystal_system       triclinic
_cell_length_a                    6.934593
_cell_length_b                    16.836217
_cell_length_c                    17.168737
_cell_angle_alpha                 100.432665
_cell_angle_beta                  88.900293
_cell_angle_gamma                 90.696302
_cell_volume                      1970.91246706

loop_
_atom_site_label
_atom_site_type_symbol
_atom_type_description
_atom_site_fract_x
_atom_site_fract_y
_atom_site_fract_z
_atom_type_partial_charge
O1    O     O_R   0.494370 0.415690 0.413450 -0.503575
O2    O     O_R   0.819420 0.429360 0.578420 -0.540697
O3    O     O_R   0.994280 0.584310 0.586550 -0.555815
C1    C     C_R   0.648540 0.411025 0.602351 0.891326
O4    O     O_R   0.823790 0.406230 0.413570 -0.508792
O5    O     O_R   0.998670 0.561000 0.420530 -0.547140
C2    C     C_R   0.655409 0.383580 0.384401 0.961213
O6    O     O_R   0.489970 0.439000 0.579470 -0.526242
O7    O     O_3   0.662300 0.550810 0.502470 -0.398734
V1    V     V_3+5 0.935380 0.490570 0.499540 1.713233
O8    O     O_R   0.328650 0.570640 0.421580 -0.524820
C3    C     C_R   0.162413 0.587112 0.395730 0.796035
O9    O     O_R   0.324290 0.593770 0.586430 -0.535683
C4    C     C_R   0.154590 0.617685 0.613879 0.734585
V2    V     V_3+5 0.435930 0.509430 0.500460 1.719303
O10   O     O_3   0.159140 0.449190 0.497530 -0.349706
C5    C     C_R   0.280587 0.747921 0.692215 -0.107923
H1    H     H_    0.397530 0.745959 0.649212 0.180962
C6    C     C_R   0.264186 0.814190 0.754813 0.406878
C7    C     C_R   0.116264 0.815276 0.814492 -0.345397
C8    C     C_R   0.975451 0.750849 0.803198 0.387096
C9    C     C_R   0.986752 0.691277 0.734720 -0.116126
H2    H     H_    0.876165 0.645222 0.724486 0.236286
C10   C     C_R   0.141697 0.686581 0.681326 -0.186877
C11   C     C_R   0.167910 0.638696 0.333792 -0.277883
C12   C     C_R   0.105771 0.860877 0.167103 -0.323899
C13   C     C_R   0.973740 0.835614 0.294207 0.428615
C14   C     C_R   0.993059 0.884612 0.235971 0.520538
C15   C     C_R   0.208096 0.787058 0.157517 0.390218
C16   C     C_R   0.215445 0.743437 0.221699 -0.242033
C17   C     C_R   0.082098 0.763260 0.286491 -0.121103
C18   C     C_R   0.060722 0.709888 0.341772 -0.117148
C19   C     C_R   0.308655 0.623508 0.273660 0.575698
C20   C     C_R   0.345668 0.678450 0.222762 0.466627
H3    H     H_    0.960927 0.722260 0.391388 0.217727
C21   C     C_R   0.633588 0.361060 0.665343 -0.299466
C22   C     C_R   0.627601 0.141982 0.837874 -0.175967
C23   C     C_R   0.690715 0.148179 0.699270 -0.014522
C24   C     C_R   0.686785 0.105445 0.761596 -0.161980
C25   C     C_R   0.581737 0.225595 0.853113 0.393924
C26   C     C_R   0.605924 0.270625 0.790394 -0.084363
C27   C     C_R   0.643850 0.230707 0.711537 -0.029590
C28   C     C_R   0.641575 0.275060 0.647869 0.361772
C29   C     C_R   0.617361 0.400124 0.744978 0.288561
C30   C     C_R   0.601938 0.355247 0.805387 -0.099026
H4    H     H_    0.739687 0.116190 0.642236 0.214319
H5    H     H_    0.601011 0.388348 0.865294 0.254345
H6    H     H_    0.726433 0.042283 0.749631 0.197859
C31   C     C_R   0.803670 0.295179 0.263893 0.564451
C32   C     C_R   0.791764 0.231732 0.198696 0.584141
C33   C     C_R   0.620280 0.185895 0.183392 -0.501967
C34   C     C_R   0.460850 0.205896 0.235011 0.531784
C35   C     C_R   0.472552 0.269458 0.300044 0.598887
C36   C     C_R   0.644420 0.315007 0.315680 -0.489606
O11   O     O_R   0.774880 0.061150 0.920630 -0.564644
O12   O     O_R   0.440980 0.093710 0.086500 -0.512929
O13   O     O_R   0.266190 0.938890 0.079390 -0.547034
C37   C     C_R   0.609539 0.116966 0.115086 0.893511
O14   O     O_R   0.445420 0.070740 0.921670 -0.500462
O15   O     O_R   0.270660 0.915760 0.913380 -0.502433
C38   C     C_R   0.615942 0.090302 0.899006 0.828616
O16   O     O_R   0.770400 0.084270 0.086640 -0.520579
O17   O     O_3   0.602590 0.949210 0.997500 -0.345019
V3    V     V_3+5 0.329470 0.009420 0.000470 1.810911
O18   O     O_R   0.940650 0.906250 0.913470 -0.508258
C39   C     C_R   0.109066 0.883142 0.884554 0.808321
O19   O     O_R   0.936210 0.929220 0.078300 -0.507770
C40   C     C_R   0.103294 0.912655 0.104436 0.896338
V4    V     V_3+5 0.828930 0.990510 0.999490 1.817422
O20   O     O_3   0.105680 0.050790 0.002500 -0.371366
S1    S     S_3+6 0.270047 0.737890 0.059793 0.126152
O21   O     O_2   0.473599 0.758671 0.039873 -0.244011
O22   O     O_2   0.246616 0.647972 0.052369 -0.256520
O23   O     O_3   0.127012 0.767104 0.993499 -0.507119
H7    H     H_    0.182841 0.740259 0.942100 0.374424
S2    S     S_3+6 0.639722 0.223047 0.547509 0.020936
O24   O     O_2   0.544723 0.272535 0.494985 -0.338440
O25   O     O_2   0.844173 0.206083 0.519362 -0.308990
O26   O     O_3   0.516319 0.135395 0.540310 -0.471677
H8    H     H_    0.535196 0.108078 0.484584 0.401317
S3    S     S_3+6 0.642642 0.505582 0.774400 0.058403
O27   O     O_2   0.855189 0.522558 0.781415 -0.298694
O28   O     O_2   0.560171 0.551441 0.715640 -0.351784
O29   O     O_3   0.534497 0.536149 0.863156 -0.414998
H9    H     H_    0.394927 0.526998 0.853487 0.383216
S4    S     S_3+6 0.497124 0.275387 0.948826 0.033276
O30   O     O_2   0.665216 0.317818 0.992884 -0.289718
O31   O     O_2   0.347577 0.336724 0.939242 -0.290305
O32   O     O_3   0.394962 0.213196 0.003761 -0.505521
H10   H     H_    0.351795 0.248755 0.053308 0.394703
F1    F     F_    0.970266 0.338644 0.274781 -0.559009
F2    F     F_    0.947840 0.216638 0.149476 -0.564398
F3    F     F_    0.294068 0.162557 0.224083 -0.562107
S5    S     S_3+6 0.422426 0.897120 0.750767 0.010042
O33   O     O_2   0.580429 0.897425 0.809446 -0.315351
O34   O     O_2   0.512336 0.890985 0.669520 -0.313016
O35   O     O_3   0.300072 0.984187 0.772624 -0.516290
H11   H     H_    0.195806 0.978809 0.733331 0.334365
F4    F     F_    0.315694 0.284914 0.348761 -0.534085
S6    S     S_3+6 0.792925 0.729518 0.872075 0.149167
O36   O     O_2   0.753844 0.794440 0.942175 -0.267971
O37   O     O_2   0.607479 0.709713 0.828607 -0.276848
O38   O     O_3   0.863495 0.647464 0.906670 -0.408583
H12   H     H_    0.778242 0.644910 0.953121 0.448258
F5    F     F_    0.419337 0.556434 0.267586 -0.611911
S7    S     S_3+6 0.812911 0.866076 0.376177 0.115252
O39   O     O_2   0.654464 0.804043 0.374028 -0.290705
O40   O     O_2   0.920611 0.870826 0.452110 -0.322956
O41   O     O_3   0.711555 0.956209 0.375211 -0.419875
H13   H     H_    0.807051 0.996829 0.399997 0.389709
S8    S     S_3+6 0.584611 0.676914 0.182638 0.160996
O42   O     O_2   0.595876 0.622626 0.102940 -0.229575
O43   O     O_2   0.650406 0.760772 0.175945 -0.308159
O44   O     O_3   0.734159 0.640430 0.243251 -0.470410
H14   H     H_    0.844425 0.617926 0.209095 0.373906
F6    F     F_    0.894765 0.954970 0.244064 -0.630025

loop_
_geom_bond_atom_site_label_1
_geom_bond_atom_site_label_2
_ccdc_geom_bond_type
C37   O16   A    
C1    C21   S    
C26   C27   A    
C6    C7    A    
S2    O26   S    
C1    O6    A    
O44   H14   S    
C35   C36   A    
C35   F4    S    
O14   V3    S    
C7    C39   S    
S2    O25   D    
C23   C27   A    
C22   C25   A    
O5    C3    A    
C16   C17   A    
S4    O31   D    
S7    O39   D    
C25   S4    S    
C31   C36   A    
O35   H11   S    
C5    H1    S    
C4    C10   S    
C14   F6    S    
O8    V2    S    
O17   V4    S    
O12   V3    S    
O1    V2    S    
V3    O20   S    
O7    V1    S    
C11   C18   A    
O15   C39   A    
C8    C9    A    
C20   S8    S    
V4    O20   S    
C31   F1    S    
S3    O28   D    
S3    O27   D    
C30   H5    S    
O14   C38   A    
C5    C10   A    
O23   H7    S    
C16   C20   A    
C13   C17   A    
O19   C40   A    
C18   H3    S    
C19   F5    S    
S2    O24   D    
C29   S3    S    
O4    C2    A    
C8    S6    S    
S4    O30   D    
C13   S7    S    
C32   C33   A    
S6    O38   S    
C33   C34   A    
O16   V4    S    
O19   V4    S    
O2    C1    A    
C15   C16   A    
C17   C18   A    
S6    O37   D    
C19   C20   A    
C34   F3    S    
S8    O43   D    
C33   C37   S    
O29   H9    S    
S5    O34   D    
C6    S5    S    
O11   V4    S    
O3    C4    A    
C32   F2    S    
C25   C26   A    
O18   C39   A    
O6    V2    S    
O9    V2    S    
C9    C10   A    
C21   C29   A    
C27   C28   A    
O13   C40   A    
O2    V1    S    
O38   H12   S    
S3    O29   S    
C34   C35   A    
O13   V3    S    
S1    O22   D    
C28   S2    S    
S8    O42   D    
O1    C2    A    
C29   C30   A    
O17   V3    S    
S4    O32   S    
O5    V1    S    
S1    O23   S    
C22   C38   S    
O8    C3    A    
C12   C14   A    
S5    O35   S    
C3    C11   S    
O15   V3    S    
C12   C40   S    
O7    V2    S    
S1    O21   D    
C22   C24   A    
O3    V1    S    
V1    O10   S    
O41   H13   S    
C23   C24   A    
S7    O40   D    
O18   V4    S    
O11   C38   A    
S6    O36   D    
C5    C6    A    
O12   C37   A    
S8    O44   S    
S5    O33   D    
C23   H4    S    
O26   H8    S    
O4    V1    S    
C7    C8    A    
C12   C15   A    
C31   C32   A    
C13   C14   A    
C26   C30   A    
C9    H2    S    
C21   C28   A    
C2    C36   S    
O32   H10   S    
O9    C4    A    
V2    O10   S    
C11   C19   A    
C24   H6    S    
C15   S1    S    
S7    O41   S    
