data_mof_unit_23193.cif
_audit_creation_date              2012-12-10T20:27:58-0500
_audit_creation_method            fapswitch 2.2
_symmetry_space_group_name_H-M    P1
_symmetry_Int_Tables_number       1
_space_group_crystal_system       triclinic
_cell_length_a                    12.89139
_cell_length_b                    10.68274
_cell_length_c                    9.855638
_cell_angle_alpha                 90.203628
_cell_angle_beta                  97.047518
_cell_angle_gamma                 90.098986
_cell_volume                      1347.00655102

loop_
_atom_site_label
_atom_site_type_symbol
_atom_type_description
_atom_site_fract_x
_atom_site_fract_y
_atom_site_fract_z
_atom_type_partial_charge
C1    C     C_R   0.498462 0.260081 0.499734 0.882916
C2    C     C_R   0.447772 0.934657 0.380612 -0.214205
C3    C     C_R   0.486083 0.871361 0.500593 -0.088663
C4    C     C_R   0.298164 0.498865 0.473427 0.879248
C5    C     C_R   0.509119 0.936451 0.623017 0.093095
C6    C     C_3   0.601673 0.926488 0.729865 -0.482569
C7    C     C_3   0.605607 0.068957 0.729219 -0.028798
C8    C     C_R   0.418861 0.447224 0.058068 0.241584
C9    C     C_R   0.574921 0.562036 0.084238 -0.141986
C10   C     C_R   0.574970 0.561966 0.940212 -0.145066
C11   C     C_R   0.418686 0.447834 0.915265 0.225751
C12   C     C_R   0.029928 0.496146 0.570047 0.150249
C13   C     C_3   0.383524 0.315068 0.900991 -0.509360
C14   C     C_3   0.385931 0.312838 0.055802 -0.092975
C15   C     C_R   0.497930 0.739873 0.500003 0.884638
C16   C     C_R   0.701832 0.500612 0.526775 0.889704
C17   C     C_R   0.813932 0.502130 0.543862 -0.052572
C18   C     C_R   0.186084 0.500586 0.458449 -0.086839
C19   C     C_R   0.020993 0.532009 0.322646 -0.202173
C20   C     C_R   0.128532 0.524684 0.331821 -0.195131
C21   C     C_R   0.136932 0.482841 0.575435 -0.224483
C22   C     C_3   0.704762 0.121796 0.678974 -0.861940
C23   C     C_R   0.971756 0.517542 0.440500 0.154725
C24   C     C_3   0.278664 0.293275 0.103795 -0.848714
C25   C     C_2   0.032607 0.474681 0.830331 0.325718
C26   C     C_R   0.864621 0.521646 0.429122 -0.277378
C27   C     C_R   0.870062 0.484382 0.672930 -0.312166
C28   C     C_R   0.978584 0.484434 0.688648 0.013806
C29   C     C_R   0.511803 0.063950 0.622370 0.101243
C30   C     C_R   0.488326 0.128329 0.499902 -0.087334
C31   C     C_R   0.448392 0.064161 0.380548 -0.236001
H1    H     H_    0.820685 0.537846 0.329607 0.156486
H2    H     H_    0.976400 0.549125 0.223876 0.142003
H3    H     H_    0.166407 0.538342 0.240740 0.182769
H4    H     H_    0.182931 0.456719 0.669994 0.203470
H5    H     H_    0.422346 0.113099 0.286777 0.167856
H6    H     H_    0.422281 0.884818 0.286436 0.172780
H7    H     H_    0.579951 0.887653 0.827038 0.184167
H8    H     H_    0.716609 0.082087 0.577615 0.247891
H9    H     H_    0.699164 0.225178 0.670618 0.246501
H10   H     H_    0.773637 0.098749 0.753646 0.242986
H11   H     H_    0.285351 0.301804 0.216719 0.252817
H12   H     H_    0.669256 0.879357 0.691229 0.205091
H13   H     H_    0.221112 0.362998 0.057469 0.269059
H14   H     H_    0.249676 0.197811 0.074670 0.239152
H15   H     H_    0.995970 0.423009 0.906411 0.063563
H16   H     H_    0.587789 0.111381 0.826862 0.161582
H17   H     H_    0.636478 0.610230 0.148590 0.150497
H18   H     H_    0.636578 0.609967 0.895845 0.147270
H19   H     H_    0.304174 0.306933 0.842927 0.215033
H20   H     H_    0.443060 0.253098 0.863553 0.186184
H21   H     H_    0.447690 0.250509 0.106711 0.174408
H22   H     H_    0.829307 0.472202 0.761960 0.156303
N1    N     N_R   0.499290 0.499140 0.142710 -0.126994
N2    N     N_R   0.499290 0.499180 0.857070 -0.112528
O1    O     O_R   0.500010 0.316790 0.614690 -0.625962
O2    O     O_R   0.500000 0.316760 0.385350 -0.626223
O3    O     O_R   0.346360 0.499990 0.595720 -0.613635
O4    O     O_R   0.346350 0.499960 0.366370 -0.624046
O5    O     O_R   0.500000 0.683240 0.614650 -0.609836
O6    O     O_R   0.499990 0.683210 0.385310 -0.622303
O7    O     O_R   0.653650 0.500040 0.633630 -0.632523
O8    O     O_R   0.653640 0.500010 0.404280 -0.626455
O9    O     O_2   0.114129 0.530494 0.866198 -0.594596
Zn1   Zn    Zn3+2 0.500010 0.500020 0.653130 0.948948
Zn2   Zn    Zn3+2 0.499990 0.499980 0.346870 0.943963

loop_
_geom_bond_atom_site_label_1
_geom_bond_atom_site_label_2
_ccdc_geom_bond_type
C19   C23   A    
C6    H7    S    
C26   H1    S    
C6    C7    S    
C7    C29   S    
C16   O8    A    
C1    O2    A    
C7    C22   S    
C24   H11   S    
C9    C10   A    
O3    Zn1   S    
C5    C29   A    
C19   C20   A    
C12   C23   A    
O2    Zn2   S    
C4    C18   S    
C27   H22   S    
C2    C3    A    
C15   O6    A    
O8    Zn2   S    
C22   H9    S    
C13   C14   S    
C25   C28   S    
C10   N2    A    
C11   C13   S    
C2    H6    S    
C29   C30   A    
C16   O7    A    
C12   C28   A    
C8    C11   A    
N1    Zn2   S    
C24   H14   S    
C25   H15   S    
C4    O4    A    
C1    C30   S    
N2    Zn1   S    
C1    O1    A    
C17   C26   A    
O5    Zn1   S    
C18   C20   A    
C6    H12   S    
O4    Zn2   S    
C30   C31   A    
C24   H13   S    
C21   H4    S    
C22   H10   S    
C22   H8    S    
C8    N1    A    
C20   H3    S    
C17   C27   A    
C12   C21   A    
C13   H19   S    
C11   N2    A    
C9    H17   S    
C19   H2    S    
C23   C26   A    
C14   C24   S    
C27   C28   A    
C5    C6    S    
C18   C21   A    
C31   H5    S    
C16   C17   S    
C3    C15   S    
C8    C14   S    
C9    N1    A    
O7    Zn1   S    
C4    O3    A    
C13   H20   S    
C10   H18   S    
O6    Zn2   S    
C15   O5    A    
C14   H21   S    
O1    Zn1   S    
C2    C31   A    
C3    C5    A    
C25   O9    D    
C7    H16   S    
