data_mof_unit_64706.cif
_audit_creation_date              2012-12-10T21:03:03-0500
_audit_creation_method            fapswitch 2.2
_symmetry_space_group_name_H-M    P1
_symmetry_Int_Tables_number       1
_space_group_crystal_system       triclinic
_cell_length_a                    15.879504
_cell_length_b                    15.084863
_cell_length_c                    19.186636
_cell_angle_alpha                 90.003194
_cell_angle_beta                  89.996042
_cell_angle_gamma                 89.894402
_cell_volume                      4595.96169476

loop_
_atom_site_label
_atom_site_type_symbol
_atom_type_description
_atom_site_fract_x
_atom_site_fract_y
_atom_site_fract_z
_atom_type_partial_charge
C1    C     C_R   0.339045 0.500070 0.500137 0.951468
C2    C     C_R   0.423575 0.047208 0.498447 0.337380
C3    C     C_R   0.499994 0.905028 0.499998 -0.279742
C4    C     C_R   0.500006 0.094972 0.500002 -0.279744
C5    C     C_1   0.499995 0.807034 0.499999 0.354989
C6    C     C_1   0.500005 0.192966 0.500001 0.354992
C7    C     C_R   0.499989 0.499998 0.365513 0.990031
C8    C     C_R   0.500008 0.500002 0.634487 0.990029
C9    C     C_R   0.565758 0.542493 0.254468 0.345906
C10   C     C_R   0.434200 0.457512 0.745518 0.345908
C11   C     C_R   0.565743 0.542522 0.745536 0.345595
C12   C     C_R   0.660955 0.499929 0.499863 0.951450
C13   C     C_R   0.434212 0.457489 0.254478 0.345598
C14   C     C_R   0.565495 0.543975 0.181371 -0.084016
C15   C     C_R   0.434434 0.456041 0.818615 -0.084016
C16   C     C_R   0.565469 0.544002 0.818633 -0.086137
C17   C     C_R   0.434456 0.456018 0.181381 -0.086135
C18   C     C_R   0.499970 0.500001 0.145497 -0.175313
C19   C     C_R   0.499943 0.500022 0.854503 -0.175313
C20   C     C_R   0.499987 0.499992 0.290154 -0.267696
C21   C     C_R   0.499985 0.500009 0.709846 -0.267695
C22   C     C_R   0.499932 0.500015 0.930112 0.233417
C23   C     C_1   0.823618 0.499728 0.497933 -0.089286
C24   C     C_R   0.499958 0.500006 0.069888 0.233416
C25   C     C_R   0.955489 0.581736 0.497297 -0.051844
C26   C     C_R   0.044512 0.418264 0.502717 -0.051845
C27   C     C_R   0.044044 0.581903 0.498774 -0.050633
C28   C     C_R   0.955957 0.418097 0.501241 -0.050632
C29   C     C_R   0.912953 0.499783 0.497178 -0.026246
C30   C     C_R   0.087047 0.500217 0.502835 -0.026248
C31   C     C_2   0.634598 0.587907 0.141645 0.572551
C32   C     C_2   0.365317 0.412112 0.858327 0.572544
C33   C     C_2   0.634565 0.587937 0.858361 0.574066
C34   C     C_1   0.176383 0.500272 0.502075 -0.089278
C35   C     C_2   0.365343 0.412093 0.141667 0.574058
C36   C     C_2   0.093107 0.665862 0.492645 0.563660
C37   C     C_2   0.906893 0.334138 0.507371 0.563662
C38   C     C_2   0.905937 0.665894 0.499374 0.586592
C39   C     C_2   0.094063 0.334107 0.500641 0.586600
C40   C     C_1   0.251004 0.500219 0.501134 -0.074997
C41   C     C_1   0.748996 0.499781 0.498870 -0.075024
C42   C     C_R   0.423568 0.953107 0.498445 0.324142
C43   C     C_R   0.576432 0.046893 0.501555 0.324142
C44   C     C_R   0.576425 0.952792 0.501552 0.337381
Cl1   Cl    Cl    0.651718 0.586736 0.302309 -0.506414
Cl2   Cl    Cl    0.348259 0.413261 0.697658 -0.506441
Cl3   Cl    Cl    0.651702 0.586784 0.697701 -0.488017
Cl4   Cl    Cl    0.348270 0.413224 0.302333 -0.488033
Cl5   Cl    Cl    0.326966 0.105492 0.496490 -0.403558
Cl6   Cl    Cl    0.673034 0.894508 0.503510 -0.403566
Cl7   Cl    Cl    0.673052 0.104768 0.503521 -0.435427
Cl8   Cl    Cl    0.326948 0.895232 0.496478 -0.435428
H1    H     H_    0.652766 0.563148 0.090704 0.050117
H2    H     H_    0.347129 0.436878 0.909261 0.050127
H3    H     H_    0.652741 0.563166 0.909292 0.050113
H4    H     H_    0.347152 0.436869 0.090741 0.050125
H5    H     H_    0.152411 0.673200 0.520139 0.083118
H6    H     H_    0.847589 0.326800 0.479876 0.083121
H7    H     H_    0.846647 0.670957 0.471509 0.096159
H8    H     H_    0.153353 0.329044 0.528505 0.096167
N1    N     N_R   0.509306 0.422925 0.034557 -0.135942
N2    N     N_R   0.490583 0.577097 0.965443 -0.135947
N3    N     N_R   0.509294 0.422929 0.965427 -0.135274
N4    N     N_R   0.490595 0.577092 0.034573 -0.135279
N5    N     N_1   0.500000 0.270550 0.500000 -0.069077
N6    N     N_1   0.500000 0.729450 0.500000 -0.069080
O1    O     O_R   0.378020 0.573650 0.500020 -0.622832
O2    O     O_2   0.329887 0.346230 0.836001 -0.452139
O3    O     O_2   0.669989 0.653832 0.836052 -0.449838
O4    O     O_2   0.329920 0.346201 0.163982 -0.449836
O5    O     O_2   0.069881 0.725733 0.454332 -0.462648
O6    O     O_2   0.930119 0.274268 0.545684 -0.462649
O7    O     O_2   0.928745 0.728652 0.534811 -0.456117
O8    O     O_2   0.071255 0.271348 0.465204 -0.456114
O9    O     O_R   0.621980 0.426350 0.499980 -0.622826
O10   O     O_R   0.621980 0.573650 0.499980 -0.576806
O11   O     O_R   0.378020 0.426350 0.500020 -0.576790
O12   O     O_R   0.499990 0.573690 0.398140 -0.587442
O13   O     O_R   0.500010 0.426310 0.601860 -0.587438
O14   O     O_R   0.500010 0.573690 0.601860 -0.589179
O15   O     O_R   0.499990 0.426310 0.398140 -0.589176
O16   O     O_2   0.670036 0.653786 0.163966 -0.452138
Zn1   Zn    Zn3+2 0.500000 0.598370 0.500000 1.097327
Zn2   Zn    Zn3+2 0.500000 0.401630 0.500000 1.097336

loop_
_geom_bond_atom_site_label_1
_geom_bond_atom_site_label_2
_ccdc_geom_bond_type
C33   H3    S    
C3    C42   A    
O1    Zn1   S    
C24   N1    A    
C1    O11   A    
C14   C18   A    
C11   Cl3   S    
C14   C31   S    
C43   C44   A    
C15   C32   S    
C15   C19   A    
C31   O16   D    
C18   C24   S    
C23   C29   S    
C28   C29   A    
C10   C15   A    
O13   Zn2   S    
C25   C38   S    
C26   C39   S    
C39   O8    D    
N1    N3    A    
N2    N4    A    
C1    C40   S    
N6    Zn1   S    
O12   Zn1   S    
C6    N5    T    
C35   O4    D    
C10   Cl2   S    
C8    O13   A    
C37   H6    S    
C36   O5    D    
C33   O3    D    
C32   O2    D    
C22   N3    A    
C24   N4    A    
C27   C30   A    
O14   Zn1   S    
O10   Zn1   S    
C32   H2    S    
C17   C18   A    
C10   C21   A    
C25   C29   A    
C3    C44   A    
C30   C34   S    
C19   C22   S    
C4    C6    S    
C36   H5    S    
N5    Zn2   S    
O11   Zn2   S    
C11   C21   A    
C2    C4    A    
C9    C14   A    
C12   C41   S    
C2    Cl5   S    
C16   C33   S    
C22   N2    A    
C11   C16   A    
C9    C20   A    
C8    C21   S    
C31   H1    S    
C7    O12   A    
C7    O15   A    
C9    Cl1   S    
C26   C30   A    
C12   O10   A    
C34   C40   T    
C12   O9    A    
O15   Zn2   S    
C44   Cl6   S    
C13   C20   A    
C35   H4    S    
C5    N6    T    
C3    C5    S    
C13   Cl4   S    
C4    C43   A    
C27   C36   S    
C25   C27   A    
C26   C28   A    
C23   C41   T    
C13   C17   A    
C43   Cl7   S    
C28   C37   S    
C2    C42   A    
C16   C19   A    
C39   H8    S    
C1    O1    A    
O9    Zn2   S    
C38   H7    S    
C7    C20   S    
C37   O6    D    
C8    O14   A    
C17   C35   S    
C42   Cl8   S    
C38   O7    D    
