data_mof_unit_5574.cif
_audit_creation_date              2012-12-10T18:48:42-0500
_audit_creation_method            fapswitch 2.2
_symmetry_space_group_name_H-M    P1
_symmetry_Int_Tables_number       1
_space_group_crystal_system       triclinic
_cell_length_a                    15.148466
_cell_length_b                    15.0619
_cell_length_c                    9.830811
_cell_angle_alpha                 89.920797
_cell_angle_beta                  89.338513
_cell_angle_gamma                 89.855155
_cell_volume                      2242.88513971

loop_
_atom_site_label
_atom_site_type_symbol
_atom_type_description
_atom_site_fract_x
_atom_site_fract_y
_atom_site_fract_z
_atom_type_partial_charge
C1    C     C_R   0.111376 0.371821 0.500267 0.925874
C2    C     C_R   0.977440 0.425565 0.928590 -0.031921
C3    C     C_R   0.977277 0.425531 0.072435 -0.038006
C4    C     C_R   0.021960 0.574623 0.927653 -0.003469
C5    C     C_R   0.479453 0.075169 0.072115 -0.029652
C6    C     C_R   0.521299 0.924988 0.927905 -0.055041
C7    C     C_R   0.521154 0.925026 0.071757 -0.039595
C8    C     C_R   0.480562 0.075362 0.928254 -0.035673
C9    C     C_R   0.740861 0.329301 0.384620 -0.105888
C10   C     C_R   0.259162 0.671438 0.614079 -0.102355
C11   C     C_R   0.246408 0.689293 0.368025 -0.092209
C12   C     C_R   0.885609 0.626448 0.499585 0.912931
C13   C     C_R   0.750750 0.316279 0.630247 -0.085040
C14   C     C_R   0.185863 0.252695 0.629707 -0.045849
C15   C     C_R   0.808595 0.745860 0.369350 -0.081876
C16   C     C_R   0.819616 0.758221 0.617419 -0.057713
C17   C     C_R   0.176673 0.238914 0.383693 -0.066025
C18   C     C_R   0.310853 0.754468 0.370305 -0.042481
C19   C     C_R   0.692979 0.244675 0.629459 -0.073372
C20   C     C_R   0.684320 0.256169 0.380530 -0.070281
C21   C     C_R   0.317988 0.742753 0.618112 -0.074477
C22   C     C_R   0.760184 0.829345 0.614860 -0.101838
C23   C     C_R   0.870667 0.391549 0.501272 0.939269
C24   C     C_R   0.238734 0.169913 0.387433 -0.108696
C25   C     C_R   0.254324 0.191632 0.632415 -0.077447
C26   C     C_R   0.749503 0.816632 0.369216 -0.082634
C27   C     C_R   0.212378 0.656912 0.493148 -0.170578
C28   C     C_R   0.785840 0.346325 0.505612 -0.165578
C29   C     C_R   0.835120 0.709205 0.496206 -0.202561
C30   C     C_R   0.159414 0.287797 0.503556 -0.208780
C31   C     C_R   0.667381 0.207693 0.502408 -0.202673
C32   C     C_R   0.336371 0.790547 0.496935 -0.209396
C33   C     C_R   0.288253 0.158815 0.507189 -0.180249
C34   C     C_R   0.128197 0.610612 0.498461 0.932706
C35   C     C_R   0.714013 0.845625 0.494328 -0.169439
C36   C     C_2   0.747000 0.393116 0.269013 0.974954
C37   C     C_2   0.252877 0.606987 0.729172 0.967469
C38   C     C_2   0.216357 0.657661 0.232922 0.969446
C39   C     C_2   0.770554 0.362637 0.759894 0.953912
C40   C     C_2   0.136444 0.270590 0.757830 0.957878
C41   C     C_2   0.846531 0.717900 0.236136 1.014415
C42   C     C_2   0.873139 0.744059 0.740571 0.980036
C43   C     C_2   0.123540 0.253390 0.260778 0.983398
C44   C     C_2   0.354293 0.778291 0.239072 0.967924
C45   C     C_R   0.629091 0.890968 0.498798 0.934750
C46   C     C_2   0.658046 0.213111 0.762591 1.018589
C47   C     C_2   0.639355 0.236372 0.251277 1.006897
C48   C     C_2   0.363278 0.763247 0.746448 0.991594
C49   C     C_2   0.754151 0.893284 0.729931 0.961260
C50   C     C_2   0.244231 0.103342 0.275386 0.969441
C51   C     C_2   0.287044 0.163754 0.767886 0.950780
C52   C     C_2   0.728879 0.863192 0.239667 0.958672
C53   C     C_R   0.372518 0.112100 0.501551 0.920283
C54   C     C_R   0.386339 0.873265 0.499856 0.919854
C55   C     C_R   0.615610 0.125673 0.500024 0.914264
C56   C     C_R   0.020831 0.574813 0.071519 -0.005220
H1    H     H_    0.036043 0.634623 0.126279 0.148227
H2    H     H_    0.247948 0.478749 0.787292 0.395931
H3    H     H_    0.169443 0.691933 0.048651 0.367566
H4    H     H_    0.782331 0.480274 0.856722 0.354377
H5    H     H_    0.038347 0.231748 0.884961 0.342079
H6    H     H_    0.930209 0.747616 0.082052 0.344246
H7    H     H_    0.983411 0.776517 0.841993 0.337858
H8    H     H_    0.117467 0.303253 0.072533 0.352770
H9    H     H_    0.442394 0.742493 0.093628 0.345284
H10   H     H_    0.669684 0.126526 0.917955 0.360417
H11   H     H_    0.542915 0.270070 0.121316 0.359543
H12   H     H_    0.959743 0.366163 0.874370 0.173674
H13   H     H_    0.359734 0.829164 0.923692 0.357793
H14   H     H_    0.747961 0.914127 0.930986 0.358768
H15   H     H_    0.247945 0.078126 0.074439 0.381788
H16   H     H_    0.335680 0.203152 0.948562 0.363953
H17   H     H_    0.716497 0.980794 0.142400 0.348400
H18   H     H_    0.959002 0.365932 0.127119 0.183075
H19   H     H_    0.040393 0.634005 0.872900 0.134898
H20   H     H_    0.462259 0.135030 0.126747 0.148719
H21   H     H_    0.538502 0.864996 0.873473 0.192127
H22   H     H_    0.537818 0.865194 0.126285 0.178966
H23   H     H_    0.466620 0.135746 0.873560 0.178937
H24   H     H_    0.756218 0.413743 0.068202 0.363087
N1    N     N_R   0.000000 0.500000 0.857200 -0.087082
N2    N     N_R   0.000000 0.500000 0.142800 -0.080394
N3    N     N_R   0.500000 0.000000 0.857200 -0.086908
N4    N     N_R   0.500000 0.000000 0.142800 -0.083616
O1    O     O_R   0.091610 0.408380 0.614620 -0.593973
O2    O     O_R   0.408390 0.091620 0.385380 -0.618206
O3    O     O_R   0.408390 0.091620 0.614620 -0.616029
O4    O     O_R   0.591610 0.908380 0.385380 -0.628248
O5    O     O_R   0.408390 0.908380 0.385380 -0.586749
O6    O     O_R   0.591610 0.091620 0.614620 -0.603179
O7    O     O_R   0.591610 0.091620 0.385380 -0.597044
O8    O     O_R   0.408390 0.908380 0.614620 -0.595650
O9    O     O_2   0.745543 0.472958 0.291802 -0.559993
O10   O     O_R   0.754212 0.362820 0.135409 -0.739279
O11   O     O_2   0.250635 0.632696 0.846906 -0.611936
O12   O     O_R   0.908390 0.591620 0.385380 -0.601942
O13   O     O_R   0.250809 0.516011 0.701471 -0.753618
O14   O     O_2   0.223408 0.579265 0.202247 -0.546632
O15   O     O_R   0.183635 0.719301 0.139595 -0.751398
O16   O     O_2   0.795253 0.320400 0.858661 -0.593379
O17   O     O_R   0.762879 0.455139 0.766423 -0.742689
O18   O     O_2   0.161485 0.328654 0.834837 -0.585449
O19   O     O_R   0.063419 0.218135 0.791327 -0.763531
O20   O     O_2   0.814333 0.655571 0.174578 -0.514350
O21   O     O_R   0.914900 0.767605 0.177783 -0.779460
O22   O     O_2   0.844561 0.698347 0.833976 -0.550251
O23   O     O_R   0.908390 0.591620 0.614620 -0.595760
O24   O     O_R   0.955137 0.785670 0.750178 -0.781268
O25   O     O_2   0.046079 0.230787 0.260048 -0.617862
O26   O     O_R   0.161534 0.295119 0.147865 -0.692621
O27   O     O_2   0.327116 0.841355 0.173085 -0.543299
O28   O     O_R   0.422339 0.724526 0.188350 -0.768416
O29   O     O_2   0.593795 0.249668 0.814131 -0.631968
O30   O     O_R   0.700255 0.143247 0.829448 -0.690528
O31   O     O_2   0.670520 0.181014 0.173509 -0.576046
O32   O     O_R   0.564145 0.284678 0.216044 -0.776448
O33   O     O_2   0.437810 0.734991 0.765768 -0.619819
O34   O     O_R   0.091610 0.408380 0.385380 -0.594644
O35   O     O_R   0.320633 0.816029 0.843650 -0.703881
O36   O     O_2   0.753957 0.973049 0.706379 -0.556609
O37   O     O_R   0.749561 0.863166 0.863989 -0.734862
O38   O     O_2   0.247314 0.024190 0.303107 -0.553932
O39   O     O_R   0.244759 0.130214 0.139491 -0.782703
O40   O     O_2   0.281466 0.086131 0.803562 -0.579519
O41   O     O_R   0.319917 0.228028 0.856318 -0.741291
O42   O     O_2   0.703990 0.821042 0.141215 -0.591217
O43   O     O_R   0.736219 0.955677 0.232758 -0.736732
O44   O     O_R   0.908390 0.408380 0.385380 -0.618021
O45   O     O_R   0.091610 0.591620 0.614620 -0.618716
O46   O     O_R   0.091610 0.591620 0.385380 -0.625133
O47   O     O_R   0.908390 0.408380 0.614620 -0.627650
O48   O     O_R   0.591610 0.908380 0.614620 -0.617870
Zn1   Zn    Zn3+2 0.000000 0.500000 0.653120 1.032479
Zn2   Zn    Zn3+2 1.000000 0.500000 0.346880 1.051526
Zn3   Zn    Zn3+2 0.500000 0.000000 0.653120 1.043658
Zn4   Zn    Zn3+2 0.500000 0.000000 0.346880 1.037064

loop_
_geom_bond_atom_site_label_1
_geom_bond_atom_site_label_2
_ccdc_geom_bond_type
C10   C27   A    
C11   C18   A    
C17   C30   A    
C12   C29   S    
C8    N3    A    
H3    O15   S    
C50   O38   D    
C38   O14   D    
C19   C31   A    
C37   O13   S    
C19   C46   S    
H6    O21   S    
C47   O31   D    
C22   C35   A    
C41   O21   S    
C10   C37   S    
H15   O39   S    
H5    O19   S    
C55   O6    A    
C2    H12   S    
C49   O36   D    
C56   H1    S    
C37   O11   D    
C3    H18   S    
C15   C26   A    
C4    H19   S    
C55   O7    A    
C36   O9    D    
O7    Zn4   S    
C34   O45   A    
C8    H23   S    
C16   C22   A    
C13   C28   A    
C15   C29   A    
C53   O2    A    
C43   O26   S    
N3    Zn3   S    
O34   Zn2   S    
C21   C48   S    
C7    N4    A    
C10   C21   A    
O5    Zn4   S    
C4    C56   A    
C1    O1    A    
C51   O40   D    
O46   Zn2   S    
H2    O13   S    
C14   C30   A    
C32   C54   S    
C52   O43   S    
C39   O17   S    
C48   O35   S    
C27   C34   S    
C33   C53   S    
C47   O32   S    
C21   C32   A    
C17   C24   A    
C13   C19   A    
C51   O41   S    
O3    Zn3   S    
C45   O4    A    
O4    Zn4   S    
C54   O5    A    
C5    N4    A    
C46   O30   S    
C6    H21   S    
O12   Zn2   S    
C16   C29   A    
H17   O43   S    
C40   O18   D    
H13   O35   S    
N2    Zn2   S    
C11   C38   S    
H11   O32   S    
C25   C51   S    
H9    O28   S    
C54   O8    A    
C26   C52   S    
O44   Zn2   S    
C9    C36   S    
C9    C20   A    
H8    O26   S    
C11   C27   A    
C49   O37   S    
C3    N2    A    
C23   O47   A    
C53   O3    A    
C23   C28   S    
N1    Zn1   S    
C42   O22   D    
C24   C50   S    
C15   C41   S    
C48   O33   D    
C7    H22   S    
O45   Zn1   S    
C44   O28   S    
O2    Zn4   S    
C22   C49   S    
O8    Zn3   S    
C18   C32   A    
H24   O10   S    
H4    O17   S    
C35   C45   S    
C16   C42   S    
C18   C44   S    
N4    Zn4   S    
C52   O42   D    
C6    N3    A    
H10   O30   S    
C46   O29   D    
C50   O39   S    
C38   O15   S    
O47   Zn1   S    
C12   O23   A    
C56   N2    A    
C6    C7    A    
C24   C33   A    
C41   O20   D    
H16   O41   S    
C5    H20   S    
C2    C3    A    
O23   Zn1   S    
C40   O19   S    
O6    Zn3   S    
H14   O37   S    
C39   O16   D    
O48   Zn3   S    
C4    N1    A    
C1    C30   S    
C1    O34   A    
C14   C25   A    
C13   C39   S    
C20   C47   S    
C14   C40   S    
C44   O27   D    
C36   O10   S    
C26   C35   A    
C34   O46   A    
C45   O48   A    
O1    Zn1   S    
C17   C43   S    
C5    C8    A    
C12   O12   A    
C2    N1    A    
C43   O25   D    
C31   C55   S    
H7    O24   S    
C42   O24   S    
C9    C28   A    
C25   C33   A    
C23   O44   A    
C20   C31   A    
