data_mof_unit_61877.cif
_audit_creation_date              2013-03-05T16:26:42-0500
_audit_creation_method            fapswitch 2.2
_symmetry_space_group_name_H-M    P1
_symmetry_Int_Tables_number       1
_space_group_crystal_system       triclinic
_cell_length_a                    19.204324
_cell_length_b                    18.296575
_cell_length_c                    27.688524
_cell_angle_alpha                 90.217313
_cell_angle_beta                  89.040186
_cell_angle_gamma                 88.838182
_cell_volume                      9725.56154358

loop_
_atom_site_label
_atom_site_type_symbol
_atom_site_description
_atom_site_fract_x
_atom_site_fract_y
_atom_site_fract_z
_atom_type_partial_charge
O1    O     O_R   0.398130 0.560830 0.500010 -0.607100
O2    O     O_R   0.601870 0.439170 0.499990 -0.613021
O3    O     O_R   0.601870 0.560830 0.499990 -0.613467
O4    O     O_R   0.398130 0.439170 0.500010 -0.615551
C1    C     C_R   0.365035 0.500875 0.499996 0.915388
C2    C     C_R   0.635101 0.499090 0.500647 0.918392
O5    O     O_R   0.500010 0.560810 0.428750 -0.595217
O6    O     O_R   0.499990 0.439190 0.571250 -0.595708
O7    O     O_R   0.499990 0.560810 0.571250 -0.630433
O8    O     O_R   0.500010 0.439190 0.428750 -0.629100
C3    C     C_R   0.498372 0.499998 0.405905 0.924885
C4    C     C_R   0.501925 0.500010 0.594107 0.922645
Zn1   Zn    Zn3+2 0.500000 0.581210 0.500000 0.971006
Zn2   Zn    Zn3+2 0.500000 0.418790 0.500000 0.964780
C5    C     C_R   0.453537 0.457879 0.176354 0.566879
C6    C     C_R   0.558290 0.553229 0.821415 0.564292
O9    O     O_2   0.417576 0.407584 0.201232 -0.494317
O10   O     O_2   0.585188 0.608023 0.795223 -0.493581
N1    N     N_R   0.488414 0.509371 0.201321 -0.344568
N2    N     N_R   0.532069 0.494874 0.797728 -0.344464
C7    C     C_R   0.527587 0.561044 0.179164 0.549137
C8    C     C_R   0.505837 0.435998 0.821203 0.552580
C9    C     C_R   0.542312 0.467655 0.274867 -0.121315
C10   C     C_R   0.469358 0.532811 0.726696 -0.120552
C11   C     C_R   0.546039 0.464691 0.324933 0.136731
C12   C     C_R   0.460417 0.534296 0.676954 0.138350
C13   C     C_R   0.438006 0.538336 0.330988 0.039355
C14   C     C_R   0.570223 0.464784 0.666377 0.039176
C15   C     C_R   0.435590 0.541213 0.280327 0.216560
C16   C     C_R   0.578244 0.463958 0.716726 0.218586
C17   C     C_R   0.488182 0.505858 0.252795 0.175653
C18   C     C_R   0.527207 0.497706 0.746395 0.174628
C19   C     C_R   0.499795 0.507717 0.101571 -0.118147
C20   C     C_R   0.527845 0.496027 0.897649 -0.118055
C21   C     C_R   0.456652 0.456561 0.125651 -0.091955
C22   C     C_R   0.556442 0.556063 0.872168 -0.092530
C23   C     C_R   0.419035 0.405902 0.098083 0.241462
C24   C     C_R   0.580065 0.617101 0.898413 0.238647
C25   C     C_R   0.535595 0.561264 0.128409 -0.030130
C26   C     C_R   0.503894 0.434019 0.872092 -0.029663
C27   C     C_R   0.493821 0.500436 0.353289 -0.141462
C28   C     C_R   0.510787 0.499703 0.646471 -0.137276
C29   C     C_R   0.489235 0.441486 0.973951 0.027595
C30   C     C_R   0.547082 0.557757 0.025968 0.028666
C31   C     C_R   0.549136 0.558160 0.974666 0.026440
C32   C     C_R   0.475644 0.448659 0.024176 0.024845
C33   C     C_R   0.522358 0.498427 0.948809 0.084245
C34   C     C_R   0.507428 0.504853 0.050525 0.084244
C35   C     C_R   0.471794 0.378055 0.948480 -0.193866
C36   C     C_R   0.584290 0.608248 0.053323 -0.190789
C37   C     C_R   0.478692 0.373114 0.898385 0.179424
C38   C     C_R   0.579123 0.611266 0.103602 0.178926
O11   O     O_2   0.480671 0.380794 0.794720 -0.544213
O12   O     O_2   0.558702 0.611131 0.206856 -0.545388
C39   C     C_R   0.429197 0.402484 0.048436 -0.250104
C40   C     C_R   0.575865 0.617366 0.948483 -0.246387
H1    H     H_    0.430723 0.558065 0.750753 0.157181
H2    H     H_    0.582267 0.441223 0.252442 0.156287
H3    H     H_    0.454421 0.330194 0.967512 0.154326
H4    H     H_    0.620461 0.644611 0.036147 0.153001
H5    H     H_    0.397502 0.364640 0.029015 0.166879
H6    H     H_    0.591366 0.666893 0.966118 0.165375
C41   C     C_R   0.249504 0.557962 0.522276 0.088972
C42   C     C_R   0.751086 0.441210 0.477801 0.080672
C43   C     C_R   0.746037 0.553985 0.527139 0.090931
C44   C     C_R   0.255793 0.456160 0.463395 0.084869
C45   C     C_R   0.177733 0.564157 0.515143 0.171977
C46   C     C_R   0.823838 0.447265 0.473893 0.170807
C47   C     C_R   0.817964 0.561124 0.520670 0.163169
C48   C     C_R   0.182871 0.459088 0.460209 0.171889
C49   C     C_R   0.145000 0.513235 0.485873 -0.117565
C50   C     C_R   0.855781 0.508163 0.494080 -0.118977
C51   C     C_R   0.289000 0.503867 0.496116 -0.108270
C52   C     C_R   0.711680 0.497301 0.502402 -0.113672
N3    N     N_R   0.032564 0.537786 0.449578 -0.106816
N4    N     N_R   0.968092 0.486172 0.529259 -0.112025
N5    N     N_R   0.963427 0.537641 0.451926 -0.116712
N6    N     N_R   0.037041 0.486242 0.526896 -0.122341
C53   C     C_R   0.930567 0.512058 0.491911 0.368019
C54   C     C_R   0.070024 0.511792 0.487033 0.365335
C55   C     C_R   0.461652 0.274206 0.467103 -0.032171
C56   C     C_R   0.539784 0.725697 0.532086 -0.030437
C57   C     C_R   0.538883 0.272893 0.532557 -0.022249
C58   C     C_R   0.459972 0.727187 0.468158 -0.010157
H7    H     H_    0.432051 0.305121 0.441020 0.156676
H8    H     H_    0.570452 0.694696 0.557537 0.156822
H9    H     H_    0.569028 0.302755 0.558321 0.181340
H10   H     H_    0.428787 0.697377 0.442993 0.182441
C59   C     C_R   0.460618 0.197349 0.466291 0.078797
C60   C     C_R   0.540975 0.802549 0.532876 0.078796
C61   C     C_R   0.540052 0.196021 0.533284 0.078230
C62   C     C_R   0.459008 0.804057 0.467363 0.076934
C63   C     C_R   0.500294 0.156683 0.499812 -0.042285
C64   C     C_R   0.500081 0.843341 0.500094 -0.044127
N7    N     N_R   0.500000 0.310560 0.500000 -0.122148
N8    N     N_R   0.500000 0.689440 0.500000 -0.123263
N9    N     N_R   0.560860 0.035201 0.496237 -0.117401
N10   N     N_R   0.439558 0.964880 0.503704 -0.116969
N11   N     N_R   0.439596 0.037931 0.503590 -0.114486
N12   N     N_R   0.560812 0.962147 0.496326 -0.114405
C65   C     C_R   0.500160 0.925268 0.500071 0.354875
C66   C     C_R   0.500250 0.074794 0.499855 0.354498
I1    I     I_    0.355935 0.588790 0.373321 -0.270865
I2    I     I_    0.649486 0.415742 0.620986 -0.282981
I3    I     I_    0.116886 0.650445 0.549415 -0.229064
I4    I     I_    0.888849 0.364974 0.438637 -0.231327
I5    I     I_    0.870805 0.652640 0.550837 -0.213516
I6    I     I_    0.127568 0.378998 0.419720 -0.206869
I7    I     I_    0.401318 0.147391 0.411747 -0.224421
I8    I     I_    0.602451 0.852153 0.586373 -0.220373
I9    I     I_    0.599739 0.144196 0.587648 -0.196583
I10   I     I_    0.397645 0.855814 0.413851 -0.191231
I11   I     I_    0.354548 0.598934 0.243712 -0.161129
I12   I     I_    0.666313 0.412978 0.749800 -0.171002
I13   I     I_    0.342305 0.332415 0.124688 -0.168539
I14   I     I_    0.622232 0.715056 0.869015 -0.175078
C67   C     C_3   0.395764 0.570266 0.657397 -0.857323
H11   H     H_    0.366347 0.529324 0.636761 0.231583
H12   H     H_    0.360863 0.592170 0.686643 0.250229
H13   H     H_    0.410251 0.616649 0.633838 0.257570
C68   C     C_3   0.607498 0.426234 0.347220 -0.843040
H14   H     H_    0.589480 0.379602 0.369324 0.255242
H15   H     H_    0.644853 0.404263 0.319471 0.248126
H16   H     H_    0.635602 0.465605 0.370008 0.229680
C69   C     C_3   0.459000 0.301622 0.875090 -0.718786
H17   H     H_    0.412336 0.309906 0.852474 0.269895
H18   H     H_    0.503471 0.279257 0.853125 0.270704
H19   H     H_    0.445674 0.259218 0.902136 0.210872
C70   C     C_3   0.621919 0.668159 0.128780 -0.723481
H20   H     H_    0.659056 0.641185 0.153695 0.264470
H21   H     H_    0.653508 0.700782 0.103076 0.211047
H22   H     H_    0.587099 0.707502 0.148633 0.274712
C71   C     C_3   0.281062 0.608448 0.559058 -0.795018
H23   H     H_    0.334842 0.593663 0.568469 0.233689
H24   H     H_    0.280125 0.665392 0.545336 0.268739
H25   H     H_    0.251097 0.606099 0.593636 0.251778
C72   C     C_3   0.715890 0.374952 0.456960 -0.756581
H26   H     H_    0.693519 0.341889 0.486742 0.261921
H27   H     H_    0.674251 0.392388 0.432318 0.227240
H28   H     H_    0.750365 0.338060 0.435462 0.256724
C73   C     C_3   0.708111 0.604734 0.562612 -0.740803
H29   H     H_    0.657479 0.583342 0.575296 0.231403
H30   H     H_    0.738686 0.610401 0.596025 0.263140
H31   H     H_    0.700148 0.659375 0.546070 0.250517
C74   C     C_3   0.297700 0.402942 0.431782 -0.740407
H32   H     H_    0.346065 0.428157 0.417906 0.230285
H33   H     H_    0.310895 0.353175 0.452790 0.246299
H34   H     H_    0.269767 0.386790 0.398931 0.264769

loop_
_geom_bond_atom_site_label_1
_geom_bond_atom_site_label_2
_geom_bond_distance
_ccdc_geom_bond_type
C9    H2    1.083939 S    
C57   H9    1.079917 S    
C13   C15   1.405422 A    
C12   C67   1.503340 S    
O3    C2    1.286449 A    
N1    C17   1.426876 S    
N9    N12   1.336670 A    
C74   H32   1.109017 S    
C47   I5    2.148926 S    
C44   C48   1.404626 A    
O5    C3    1.278994 A    
C72   H27   1.102881 S    
C29   C32   1.415749 A    
C19   C25   1.422554 A    
C20   C26   1.423188 A    
C38   C70   1.514424 S    
C41   C71   1.514592 S    
C6    N2    1.360588 A    
N1    C7    1.361577 A    
N4    N6    1.324666 A    
C50   C53   1.439688 S    
C73   H30   1.109681 S    
N2    C18   1.427036 S    
C7    O12   1.347981 S    
C55   N7    1.360955 A    
N6    C54   1.352952 A    
C59   I7    2.121937 S    
C24   I14   2.139717 S    
C58   N8    1.360520 A    
C61   I9    2.122108 S    
O7    Zn1   2.009191 S    
C44   C74   1.516626 S    
C4    C28   1.462697 S    
C31   C40   1.406623 A    
C13   C27   1.416464 A    
C35   C37   1.393590 A    
C32   C39   1.405492 A    
C69   H19   1.110984 S    
C36   C38   1.394824 A    
N4    C53   1.351993 A    
C2    C52   1.471971 S    
C48   C49   1.401261 A    
N3    C54   1.354295 A    
C45   C49   1.398246 A    
N9    C66   1.360513 A    
O3    Zn1   1.984117 S    
O6    C4    1.279597 A    
C70   H22   1.110233 S    
C55   C59   1.406863 A    
C31   C33   1.414439 A    
C25   C38   1.422698 A    
C57   N7    1.360729 A    
C19   C34   1.419180 A    
C1    C51   1.465861 S    
O2    C2    1.279910 A    
C46   I4    2.156486 S    
C5    C21   1.404247 A    
C49   C54   1.440461 S    
C74   H33   1.109623 S    
C60   C64   1.415255 A    
C8    O11   1.348144 S    
C32   C34   1.413018 A    
C42   C72   1.516753 S    
N5    C53   1.354822 A    
C72   H28   1.101765 S    
C41   C45   1.398063 A    
C56   N8    1.360856 A    
Zn1   N8    1.980236 S    
C37   C69   1.513899 S    
C64   C65   1.499007 S    
O8    Zn2   2.009194 S    
C67   H13   1.109436 S    
C11   C27   1.411710 A    
C29   C35   1.404970 A    
C41   C51   1.423139 A    
C56   H8    1.081010 S    
C44   C51   1.423137 A    
C59   C63   1.414774 A    
C43   C52   1.420421 A    
C9    C17   1.392025 A    
C47   C50   1.398780 A    
C5    N1    1.360247 A    
C10   C18   1.392219 A    
C61   C63   1.414513 A    
C43   C73   1.516276 S    
C14   I2    2.138619 S    
C7    C25   1.411194 A    
O5    Zn1   2.006411 S    
C46   C50   1.401675 A    
C8    C26   1.409521 A    
C62   C64   1.414982 A    
C24   C40   1.387318 A    
N3    N5    1.328288 A    
C68   H14   1.109548 S    
C71   H25   1.110184 S    
N2    C8    1.361265 A    
C71   H23   1.098197 S    
C40   H6    1.077329 S    
C73   H31   1.110084 S    
O1    Zn1   1.998975 S    
C60   I8    2.122141 S    
C22   C24   1.416509 A    
C26   C37   1.422067 A    
C42   C46   1.406162 A    
Zn2   N7    1.980236 S    
O1    C1    1.278893 A    
C74   H34   1.105998 S    
C30   C31   1.420434 A    
C12   C28   1.411541 A    
C69   H18   1.110511 S    
C70   H20   1.110357 S    
C16   I12   2.136249 S    
C30   C36   1.406159 A    
C5    O9    1.346437 S    
C15   I11   2.135350 S    
O6    Zn2   2.006408 S    
C21   C23   1.415584 A    
C62   I10   2.122414 S    
C58   H10   1.079820 S    
C10   C12   1.391118 A    
C10   H1    1.083929 S    
C56   C60   1.406871 A    
C63   C66   1.498309 S    
C23   I13   2.138550 S    
N10   C65   1.360601 A    
C57   C61   1.406453 A    
C72   H26   1.110412 S    
C35   H3    1.079501 S    
C36   H4    1.077705 S    
C13   I1    2.140363 S    
C67   H12   1.110878 S    
C14   C16   1.405254 A    
C15   C17   1.401301 A    
C48   I6    2.150023 S    
C73   H29   1.107706 S    
C6    C22   1.405885 A    
C16   C18   1.400497 A    
C69   H17   1.110034 S    
C11   C68   1.504314 S    
C43   C47   1.398696 A    
C39   H5    1.079046 S    
C14   C28   1.417384 A    
N12   C65   1.360566 A    
C19   C21   1.422933 A    
C3    C27   1.460987 S    
C20   C22   1.422434 A    
C9    C11   1.390510 A    
O4    Zn2   1.984120 S    
O2    Zn2   1.998971 S    
O7    C4    1.282132 A    
C68   H15   1.110882 S    
O8    C3    1.282006 A    
C23   C39   1.386194 A    
O4    C1    1.284327 A    
N11   C66   1.360418 A    
C45   I3    2.152936 S    
C6    O10   1.346032 S    
N10   N11   1.336620 A    
C68   H16   1.109982 S    
C71   H24   1.110247 S    
C42   C52   1.426829 A    
C20   C33   1.419161 A    
C58   C62   1.406465 A    
C67   H11   1.109733 S    
C29   C33   1.411447 A    
C55   H7    1.080961 S    
C30   C34   1.413053 A    
C70   H21   1.110990 S    
