data_mof_unit_32675.cif
_audit_creation_date              2013-03-05T16:42:23-0500
_audit_creation_method            fapswitch 2.2
_symmetry_space_group_name_H-M    P1
_symmetry_Int_Tables_number       1
_space_group_crystal_system       triclinic
_cell_length_a                    9.947738
_cell_length_b                    10.707346
_cell_length_c                    15.401324
_cell_angle_alpha                 91.336584
_cell_angle_beta                  72.434948
_cell_angle_gamma                 89.435574
_cell_volume                      1563.29728622

loop_
_atom_site_label
_atom_site_type_symbol
_atom_site_description
_atom_site_fract_x
_atom_site_fract_y
_atom_site_fract_z
_atom_type_partial_charge
O1    O     O_R   0.385310 0.683210 0.499990 -0.624100
O2    O     O_R   0.614650 0.683240 0.500000 -0.591897
C1    C     C_R   0.500687 0.739942 0.496806 0.948869
O3    O     O_R   0.319830 0.499970 0.632240 -0.636392
O4    O     O_R   0.549170 0.500000 0.632250 -0.563006
C2    C     C_R   0.416080 0.487439 0.673725 0.939040
Zn1   Zn    Zn3+2 0.346870 0.499980 0.499990 0.987296
Zn2   Zn    Zn3+2 0.653130 0.500020 0.500010 1.047357
O5    O     O_R   0.385350 0.316760 0.500000 -0.606379
O6    O     O_R   0.614690 0.316790 0.500010 -0.587258
O7    O     O_R   0.450830 0.500000 0.367750 -0.627066
O8    O     O_R   0.680170 0.500030 0.367760 -0.633463
C3    C     C_R   0.502730 0.260457 0.495110 0.878453
C4    C     C_R   0.585771 0.495524 0.324848 0.838005
C5    C     C_R   0.372709 0.451018 0.769501 -0.212276
C6    C     C_R   0.629914 0.454219 0.228537 -0.084905
C7    C     C_R   0.180896 0.449298 0.908256 0.097979
C8    C     C_R   0.230426 0.462164 0.816103 -0.204391
C9    C     C_R   0.467773 0.405175 0.814564 0.268460
C10   C     C_R   0.415629 0.375574 0.908537 -0.024929
C11   C     C_R   0.270712 0.401935 0.955420 0.087564
C12   C     C_R   0.503629 0.334001 0.960785 0.068984
C13   C     C_R   0.456195 0.355009 0.056091 0.072558
C14   C     C_R   0.311182 0.368917 0.099749 -0.186082
C15   C     C_R   0.219554 0.383644 0.048886 -0.211812
C16   C     C_R   0.635417 0.272728 0.923621 -0.149354
C17   C     C_R   0.729420 0.260185 0.975074 0.043579
C18   C     C_R   0.694141 0.315350 0.063169 0.131693
C19   C     C_R   0.556124 0.363198 0.103957 0.053298
C20   C     C_R   0.795846 0.332245 0.108619 -0.210424
C21   C     C_R   0.770152 0.416599 0.182942 0.106184
C22   C     C_R   0.524682 0.427785 0.188084 -0.249555
H1    H     H_    0.109241 0.384542 0.083413 0.153570
H2    H     H_    0.419493 0.464399 0.220781 0.163301
H3    H     H_    0.156048 0.488825 0.781880 0.177996
H4    H     H_    0.266892 0.364569 0.172950 0.151303
H5    H     H_    0.665996 0.232104 0.855584 0.210836
H6    H     H_    0.899916 0.290464 0.081323 0.163501
C23   C     C_R   0.381471 0.940214 0.491337 -0.036818
C24   C     C_R   0.505005 0.871514 0.482311 -0.053898
C25   C     C_R   0.634964 0.932253 0.452225 -0.125659
H7    H     H_    0.733748 0.880660 0.433870 0.225178
C26   C     C_R   0.637192 0.062141 0.452640 -0.126208
H8    H     H_    0.737251 0.109077 0.437920 0.200654
C27   C     C_R   0.508878 0.129124 0.478304 -0.116274
C28   C     C_R   0.384653 0.066782 0.485217 0.035126
C29   C     C_3   0.239024 0.086361 0.549264 0.106678
C30   C     C_3   0.234583 0.945210 0.557421 0.046039
H9    H     H_    0.235981 0.140682 0.612402 0.133803
H10   H     H_    0.155688 0.902377 0.528816 0.159986
C31   C     C_R   0.893283 0.539335 0.575195 0.190738
N1    N     N_R   0.856900 0.500860 0.500610 -0.102454
C32   C     C_R   0.962551 0.452013 0.428098 -0.039629
H11   H     H_    0.937154 0.414036 0.369468 0.152432
C33   C     C_R   0.106073 0.453591 0.427552 -0.008253
H12   H     H_    0.187577 0.418036 0.368134 0.145788
N2    N     N_R   0.142540 0.500820 0.500610 -0.114553
C34   C     C_R   0.034599 0.534500 0.577132 0.113986
C35   C     C_3   0.015988 0.659612 0.625460 -0.201429
C36   C     C_3   0.866271 0.665860 0.620629 0.106328
H13   H     H_    0.088596 0.728065 0.585313 0.211460
H14   H     H_    0.782688 0.666964 0.687588 0.182498
N3    N     N_R   0.138238 0.133130 0.504798 0.222987
O9    O     O_R   0.006271 0.148003 0.551992 -0.324303
O10   O     O_R   0.178103 0.160073 0.418868 -0.403359
N4    N     N_R   0.222642 0.909235 0.650738 0.197543
O11   O     O_R   0.104527 0.931196 0.714730 -0.352675
O12   O     O_R   0.329122 0.862265 0.672220 -0.388511
N5    N     N_3   0.017788 0.656735 0.719754 -0.379860
H15   H     H_    0.122440 0.662763 0.719677 0.251587
H16   H     H_    0.974512 0.573604 0.749394 0.221225
N6    N     N_R   0.848359 0.765496 0.561643 0.219344
O13   O     O_R   0.930468 0.770801 0.478064 -0.438453
O14   O     O_R   0.768528 0.861549 0.598059 -0.332238
N7    N     N_3   0.888396 0.469964 0.205106 -0.459400
H17   H     H_    0.858783 0.549495 0.246971 0.210574
H18   H     H_    0.947732 0.512801 0.146398 0.154133
N8    N     N_3   0.864453 0.200869 0.934808 -0.454893
H19   H     H_    0.916287 0.248141 0.875706 0.225016
H20   H     H_    0.847782 0.109477 0.915489 0.231984
N9    N     N_3   0.043264 0.499822 0.952173 -0.446280
H21   H     H_    0.048422 0.564575 0.002742 0.196846
H22   H     H_    0.977619 0.427084 0.978738 0.196765
N10   N     N_R   0.616027 0.400150 0.767529 0.187271
O15   O     O_R   0.700682 0.475032 0.792405 -0.442303
O16   O     O_R   0.667328 0.317314 0.702348 -0.365056

loop_
_geom_bond_atom_site_label_1
_geom_bond_atom_site_label_2
_geom_bond_distance
_ccdc_geom_bond_type
C5    C8    1.382845 A    
N4    O12   1.301218 A    
C33   H12   1.081464 S    
N3    O10   1.302022 A    
C25   H7    1.079397 S    
C9    C10   1.426792 A    
N7    H17   1.040415 S    
C17   N8    1.433298 S    
N9    H21   1.043823 S    
C29   H9    1.113684 S    
C32   H11   1.080349 S    
C6    C21   1.409250 A    
C5    C9    1.421200 A    
C16   C17   1.403641 A    
C14   H4    1.081819 S    
C13   C19   1.407242 A    
C18   C19   1.411619 A    
N10   O16   1.302000 A    
C19   C22   1.401484 A    
C29   N3    1.464752 S    
C20   C21   1.400725 A    
O7    C4    1.304880 A    
N8    H20   1.045478 S    
C36   N6    1.460939 S    
C20   H6    1.080763 S    
C36   H14   1.112051 S    
N5    H16   1.045895 S    
O5    C3    1.289770 A    
C2    C5    1.469716 S    
C13   C14   1.400320 A    
C8    H3    1.070046 S    
Zn2   N1    2.029966 S    
C30   H10   1.107580 S    
N4    O11   1.300760 A    
C35   C36   1.514380 S    
C25   C26   1.391040 A    
O3    Zn1   1.972394 S    
N9    H22   1.031514 S    
C32   C33   1.425477 A    
C35   H13   1.096931 S    
C31   N1    1.360897 A    
N10   O15   1.300985 A    
N6    O14   1.300441 A    
C23   C24   1.394602 A    
N8    H19   1.045928 S    
C34   C35   1.499428 S    
C27   C28   1.387145 A    
C7    C11   1.408219 A    
O1    C1    1.292232 A    
C22   H2    1.080227 S    
Zn1   O7    1.986521 S    
C26   H8    1.083365 S    
N7    H18   1.038689 S    
C21   N7    1.439832 S    
C29   C30   1.519455 S    
Zn2   O8    1.972391 S    
C7    C8    1.365456 A    
C31   C34   1.415524 A    
C14   C15   1.379578 A    
C26   C27   1.401473 A    
C35   N5    1.458788 S    
C23   C28   1.360694 A    
O3    C2    1.309079 A    
C24   C25   1.406432 A    
O8    C4    1.301898 A    
C1    C24   1.430528 S    
C33   N2    1.369976 A    
C4    C6    1.470070 S    
C9    N10   1.433343 S    
N1    C32   1.370698 A    
Zn1   O5    1.995104 S    
C11   C15   1.393723 A    
C28   C29   1.495820 S    
O1    Zn1   2.002519 S    
O2    Zn2   1.995104 S    
C10   C12   1.430458 A    
N6    O13   1.302719 A    
O6    C3    1.292976 A    
O4    Zn2   1.986521 S    
C16   H5    1.078660 S    
C6    C22   1.398348 A    
C18   C20   1.404097 A    
O2    C1    1.295278 A    
C3    C27   1.421256 S    
N2    C34   1.371391 A    
O4    C2    1.294615 A    
C7    N9    1.426200 S    
N5    H15   1.043331 S    
N3    O9    1.300620 A    
C10   C11   1.425984 A    
Zn2   O6    2.002519 S    
C12   C16   1.410449 A    
C17   C18   1.408548 A    
C12   C13   1.411473 A    
C31   C36   1.494090 S    
C30   N4    1.466877 S    
Zn1   N2    2.029690 S    
C15   H1    1.065092 S    
C23   C30   1.507360 S    
