data_mof_unit_7052.cif
_audit_creation_date              2012-12-10T16:56:34-0500
_audit_creation_method            fapswitch 2.2
_symmetry_space_group_name_H-M    P1
_symmetry_Int_Tables_number       1
_space_group_crystal_system       triclinic
_cell_length_a                    10.759003
_cell_length_b                    10.926749
_cell_length_c                    9.759521
_cell_angle_alpha                 89.923887
_cell_angle_beta                  91.261894
_cell_angle_gamma                 89.707562
_cell_volume                      1147.04393088

loop_
_atom_site_label
_atom_site_type_symbol
_atom_type_description
_atom_site_fract_x
_atom_site_fract_y
_atom_site_fract_z
_atom_type_partial_charge
C1    C     C_R   0.498755 0.265576 0.500078 0.838943
C2    C     C_3   0.877434 0.498151 0.501732 0.067537
C3    C     C_3   0.919374 0.629400 0.465481 -0.359485
C4    C     C_3   0.927867 0.407946 0.393412 -0.371960
C5    C     C_2   0.502152 0.933104 0.387573 -0.158901
C6    C     C_2   0.508095 0.866375 0.502786 -0.330852
C7    C     C_2   0.506834 0.067138 0.388111 -0.154340
C8    C     C_2   0.493165 0.133505 0.502239 -0.322332
C9    C     C_2   0.423923 0.560951 0.923862 -0.031348
C10   C     C_2   0.445654 0.580531 0.075648 -0.030655
C11   C     C_R   0.259866 0.503030 0.499060 0.783866
C12   C     C_R   0.501900 0.734384 0.500130 0.865948
C13   C     C_R   0.739710 0.495907 0.501069 0.764757
C14   C     C_3   0.075052 0.465165 0.642495 -0.427820
C15   C     C_3   0.932486 0.460990 0.643665 -0.406413
C16   C     C_3   0.064833 0.639784 0.464380 0.467412
C17   C     C_3   0.070805 0.406813 0.398204 -0.356181
C18   C     C_3   0.121095 0.506567 0.498843 0.040989
Cu1   Cu    Cu3+1 0.500030 0.500020 0.638630 0.915181
Cu2   Cu    Cu3+1 0.499970 0.499980 0.361370 0.969508
H1    H     H_    0.110950 0.525368 0.725584 0.199349
H2    H     H_    0.895290 0.434833 0.288872 0.198322
H3    H     H_    0.877424 0.653297 0.363629 0.207249
H4    H     H_    0.495208 0.888653 0.288208 0.168863
H5    H     H_    0.520342 0.907052 0.603094 0.145427
H6    H     H_    0.520310 0.111969 0.290167 0.164795
H7    H     H_    0.475349 0.092547 0.600758 0.146018
H8    H     H_    0.345508 0.607766 0.875375 0.139143
H9    H     H_    0.416968 0.666651 0.119707 0.194452
H10   H     H_    0.112061 0.372232 0.667772 0.184322
H11   H     H_    0.487945 0.410508 0.117768 0.203739
H12   H     H_    0.901761 0.367012 0.670636 0.173451
H13   H     H_    0.898197 0.523125 0.723743 0.184458
H14   H     H_    0.875303 0.694774 0.536002 0.121913
H15   H     H_    0.107891 0.415548 0.293904 0.230005
H16   H     H_    0.103351 0.314868 0.433569 0.148006
H17   H     H_    0.892627 0.314043 0.412911 0.158373
N1    N     N_2   0.498630 0.498660 0.846910 -0.179509
N2    N     N_2   0.498590 0.498630 0.153040 -0.291727
O1    O     O_R   0.500020 0.321960 0.617040 -0.586202
O2    O     O_R   0.499980 0.321920 0.382900 -0.589557
O3    O     O_R   0.317710 0.500000 0.617070 -0.603389
O4    O     O_R   0.317670 0.499960 0.382930 -0.508252
O5    O     O_R   0.500020 0.678080 0.617100 -0.595469
O6    O     O_R   0.499980 0.678040 0.382960 -0.543540
O7    O     O_R   0.682330 0.500040 0.617070 -0.612693
O8    O     O_R   0.682290 0.500000 0.382930 -0.583644
S1    S     S_3+6 0.105739 0.694440 0.293767 -0.057190
O9    O     O_2   0.079107 0.602668 0.182866 -0.310588
O10   O     O_2   0.030336 0.807631 0.261243 -0.339867
O11   O     O_3   0.256870 0.731735 0.291406 -0.547570
H18   H     H_    0.259433 0.821872 0.301230 0.344733
C19   C     C_3   0.625864 0.471765 0.897336 -0.072039
C20   C     C_3   0.703805 0.589269 0.917353 -0.381045
C21   C     C_3   0.822492 0.564113 0.001188 -0.824229
H19   H     H_    0.798583 0.544153 0.108873 0.270507
H20   H     H_    0.874422 0.485079 0.959182 0.242324
H21   H     H_    0.882860 0.646208 0.999778 0.286458
H22   H     H_    0.727939 0.628828 0.816871 0.225468
H23   H     H_    0.650931 0.661156 0.971392 0.217426
H24   H     H_    0.631261 0.412357 0.987795 0.115489
H25   H     H_    0.671890 0.410003 0.824696 0.181300
C22   C     C_3   0.117580 0.740918 0.567061 -0.416231
C23   C     C_3   0.042907 0.775581 0.695096 -0.422775
C24   C     C_3   0.123549 0.844757 0.799555 -0.786285
H26   H     H_    0.200949 0.785541 0.837957 0.252205
H27   H     H_    0.162433 0.928441 0.752391 0.243393
H28   H     H_    0.066414 0.872124 0.887943 0.265105
H29   H     H_    0.964288 0.836874 0.664573 0.224079
H30   H     H_    0.004286 0.695225 0.746912 0.231204
H31   H     H_    0.213554 0.715737 0.600210 0.192413
H32   H     H_    0.129090 0.829135 0.512010 0.227955

loop_
_geom_bond_atom_site_label_1
_geom_bond_atom_site_label_2
_ccdc_geom_bond_type
C2    C4    S    
C21   H19   S    
C5    C7    S    
C11   C18   S    
C11   O4    A    
C10   N2    D    
C17   H16   S    
C23   H30   S    
C1    C8    S    
C4    H2    S    
C19   H25   S    
C14   C18   S    
C3    H3    S    
Cu1   Cu2   S    
C3    H14   S    
Cu1   O3    S    
Cu1   O5    S    
C24   H28   S    
C23   C24   S    
C16   S1    S    
S1    O10   D    
C17   C18   S    
Cu1   O7    S    
C15   H12   S    
C12   O5    A    
C16   C18   S    
C20   H23   S    
C19   C20   S    
C22   H32   S    
C2    C15   S    
C7    H6    S    
C10   H9    S    
C5    C6    D    
N1    C19   S    
C14   H10   S    
C4    C17   S    
C14   H1    S    
C1    O2    A    
S1    O9    D    
Cu1   N1    S    
C22   H31   S    
Cu2   O2    S    
C2    C3    S    
C20   H22   S    
C21   H20   S    
C6    C12   S    
C13   O7    A    
C6    H5    S    
Cu1   O1    S    
C22   C23   S    
Cu2   O8    S    
C7    C8    D    
Cu2   O4    S    
O11   H18   S    
C4    H17   S    
C11   O3    A    
C13   O8    A    
C24   H26   S    
C9    C10   S    
C21   H21   S    
C20   C21   S    
Cu2   N2    S    
C2    C13   S    
C14   C15   S    
C5    H4    S    
C16   C22   S    
C9    N1    D    
C17   H15   S    
C1    O1    A    
C8    H7    S    
C23   H29   S    
C19   H24   S    
C15   H13   S    
S1    O11   S    
C3    C16   S    
Cu2   O6    S    
C9    H8    S    
H11   N2    S    
C12   O6    A    
C24   H27   S    
