data_mof_unit_45479.cif
_audit_creation_date              2012-12-11T14:49:44-0500
_audit_creation_method            fapswitch 2.2
_symmetry_space_group_name_H-M    P1
_symmetry_Int_Tables_number       1
_space_group_crystal_system       monoclinic
_cell_length_a                    10.890971
_cell_length_b                    10.890971
_cell_length_c                    18.946753
_cell_angle_alpha                 90.0
_cell_angle_beta                  90.0
_cell_angle_gamma                 120.000178
_cell_volume                      1946.24652177

loop_
_atom_site_label
_atom_site_type_symbol
_atom_type_description
_atom_site_fract_x
_atom_site_fract_y
_atom_site_fract_z
_atom_type_partial_charge
C1    C     C_R   0.529017 0.469146 0.646516 0.557901
C2    C     C_R   0.465030 0.530065 0.355043 0.575757
C3    C     C_R   0.469935 0.934965 0.144957 0.575757
C4    C     C_R   0.065035 0.534970 0.355043 0.575756
C5    C     C_R   0.386781 0.017403 0.535900 0.223669
C6    C     C_R   0.630624 0.613218 0.964100 0.223669
C7    C     C_R   0.982597 0.369377 0.535900 0.223669
C8    C     C_R   0.386782 0.017406 0.964100 0.223669
C9    C     C_R   0.630623 0.613220 0.535900 0.223669
C10   C     C_R   0.982595 0.369376 0.964100 0.223669
C11   C     C_R   0.991055 0.378772 0.037849 0.220304
C12   C     C_R   0.940129 0.470983 0.853484 0.557901
C13   C     C_R   0.621228 0.612285 0.462151 0.220303
C14   C     C_R   0.387718 0.008945 0.037849 0.220304
C15   C     C_R   0.991057 0.378773 0.462151 0.220303
C16   C     C_R   0.621228 0.612283 0.037849 0.220304
C17   C     C_R   0.387716 0.008943 0.462151 0.220303
C18   C     C_R   0.481401 0.972770 0.429364 -0.012413
C19   C     C_R   0.491368 0.518599 0.070635 -0.012412
C20   C     C_R   0.027230 0.508632 0.429364 -0.012414
C21   C     C_R   0.481401 0.972769 0.070635 -0.012412
C22   C     C_R   0.491368 0.518599 0.429364 -0.012413
C23   C     C_R   0.530854 0.059871 0.646516 0.557900
C24   C     C_R   0.027231 0.508632 0.070635 -0.012413
C25   C     C_R   0.999712 0.487432 0.924171 -0.025669
C26   C     C_R   0.512567 0.512279 0.575829 -0.025669
C27   C     C_R   0.487720 0.000288 0.924171 -0.025669
C28   C     C_R   0.999712 0.487433 0.575829 -0.025669
C29   C     C_R   0.512568 0.512280 0.924171 -0.025669
C30   C     C_R   0.487720 0.000288 0.575829 -0.025669
C31   C     C_R   0.571228 0.944026 0.470523 -0.139697
C32   C     C_R   0.372796 0.428774 0.029477 -0.139696
C33   C     C_R   0.055974 0.627203 0.470522 -0.139697
C34   C     C_R   0.529017 0.469146 0.853484 0.557901
C35   C     C_R   0.571225 0.944022 0.029477 -0.139697
C36   C     C_R   0.372797 0.428771 0.470523 -0.139697
C37   C     C_R   0.055978 0.627204 0.029477 -0.139696
C38   C     C_R   0.043942 0.617110 0.957441 -0.150921
C39   C     C_R   0.382890 0.426830 0.542559 -0.150921
C40   C     C_R   0.573167 0.956057 0.957440 -0.150921
C41   C     C_R   0.043939 0.617109 0.542559 -0.150921
C42   C     C_R   0.382890 0.426833 0.957440 -0.150920
C43   C     C_R   0.573169 0.956060 0.542559 -0.150921
C44   C     C_R   0.940129 0.470983 0.646516 0.557900
C45   C     C_R   0.530854 0.059871 0.853484 0.557900
C46   C     C_R   0.465030 0.530065 0.144957 0.575758
C47   C     C_R   0.469935 0.934965 0.355043 0.575757
C48   C     C_R   0.065035 0.534970 0.144957 0.575757
Cl1   Cl    Cl    0.256843 0.047284 0.575846 -0.449368
Cl2   Cl    Cl    0.949410 0.225512 0.411912 -0.437843
Cl3   Cl    Cl    0.774489 0.723894 0.088089 -0.437842
Cl4   Cl    Cl    0.276103 0.050590 0.411912 -0.437843
Cl5   Cl    Cl    0.790444 0.743155 0.924154 -0.449366
Cl6   Cl    Cl    0.952716 0.209559 0.575847 -0.449368
Cl7   Cl    Cl    0.256846 0.047290 0.924154 -0.449366
Cl8   Cl    Cl    0.790442 0.743158 0.575847 -0.449367
Cl9   Cl    Cl    0.952711 0.209557 0.924154 -0.449367
Cl10  Cl    Cl    0.949406 0.225512 0.088088 -0.437842
Cl11  Cl    Cl    0.774488 0.723899 0.411912 -0.437842
Cl12  Cl    Cl    0.276108 0.050595 0.088089 -0.437842
Cr1   Cr    Cr6+3 0.776430 0.541680 0.750000 1.159849
Cr2   Cr    Cr6+3 0.765250 0.223570 0.750000 1.159848
Cr3   Cr    Cr6+3 0.458320 0.234750 0.750000 1.159849
Cr4   Cr    Cr6+3 0.541680 0.776430 0.250000 1.169230
Cr5   Cr    Cr6+3 0.223570 0.765250 0.250000 1.169230
Cr6   Cr    Cr6+3 0.234750 0.458320 0.250000 1.169231
H1    H     H_    0.640220 0.910079 0.447284 0.230924
H2    H     H_    0.062260 0.710162 0.571925 0.229501
H3    H     H_    0.289837 0.352103 0.928074 0.229498
H4    H     H_    0.647901 0.937739 0.571925 0.229500
H5    H     H_    0.269857 0.359784 0.052715 0.230921
H6    H     H_    0.089920 0.730141 0.447284 0.230924
H7    H     H_    0.640215 0.910073 0.052715 0.230920
H8    H     H_    0.269859 0.359779 0.447284 0.230924
H9    H     H_    0.089926 0.730142 0.052715 0.230921
H10   H     H_    0.062264 0.710162 0.928074 0.229498
H11   H     H_    0.289838 0.352098 0.571925 0.229501
H12   H     H_    0.647896 0.937735 0.928074 0.229497
O1    O     O_R   0.916700 0.566820 0.669930 -0.481965
O2    O     O_R   0.566820 0.916700 0.330070 -0.481093
O3    O     O_R   0.083300 0.650120 0.169930 -0.481092
O4    O     O_R   0.349880 0.433180 0.330070 -0.481093
O5    O     O_R   0.649840 0.534790 0.674920 -0.453606
O6    O     O_R   0.884950 0.350160 0.825080 -0.453606
O7    O     O_R   0.465210 0.115050 0.674920 -0.453607
O8    O     O_R   0.649840 0.534790 0.825080 -0.453607
O9    O     O_R   0.884950 0.350160 0.674920 -0.453606
O10   O     O_R   0.465210 0.115050 0.825080 -0.453607
O11   O     O_R   0.534790 0.649840 0.174920 -0.461792
O12   O     O_R   0.650120 0.083300 0.830070 -0.481963
O13   O     O_R   0.350160 0.884950 0.325080 -0.461790
O14   O     O_R   0.115050 0.465210 0.174920 -0.461792
O15   O     O_R   0.534790 0.649840 0.325080 -0.461790
O16   O     O_R   0.350160 0.884950 0.174920 -0.461791
O17   O     O_R   0.115050 0.465210 0.325080 -0.461790
O18   O     O_3   0.666667 0.333333 0.750000 -0.309738
O19   O     O_3   0.333333 0.666667 0.250000 -0.339637
O20   O     O_R   0.433180 0.349880 0.669930 -0.481964
O21   O     O_R   0.916700 0.566820 0.830070 -0.481963
O22   O     O_R   0.650120 0.083300 0.669930 -0.481964
O23   O     O_R   0.433180 0.349880 0.830070 -0.481963
O24   O     O_R   0.566820 0.916700 0.169930 -0.481092
O25   O     O_R   0.083300 0.650120 0.330070 -0.481093
O26   O     O_R   0.349880 0.433180 0.169930 -0.481092

loop_
_geom_bond_atom_site_label_1
_geom_bond_atom_site_label_2
_ccdc_geom_bond_type
Cr2   O18   S    
C29   C42   A    
C28   C41   A    
C16   Cl3   S    
C17   Cl4   S    
Cr3   O23   S    
C18   C47   S    
C19   C46   S    
C46   O11   A    
C38   H10   S    
Cr4   O24   S    
C31   C43   A    
C39   H11   S    
C14   C21   A    
Cr4   O15   S    
Cr3   O20   S    
Cr5   O16   S    
Cr3   O10   S    
C26   C39   A    
C5    C17   A    
C4    O25   A    
Cr2   O12   S    
C11   C24   A    
C48   O3    A    
C12   O6    A    
C34   O8    A    
C15   Cl2   S    
C9    C13   A    
C12   O21   A    
C33   H6    S    
C2    C22   S    
C41   H2    S    
C44   O9    A    
C2    O15   A    
C27   C45   S    
C7    C15   A    
C23   O22   A    
C37   H9    S    
Cr3   O7    S    
Cr4   O2    S    
C5    Cl1   S    
Cr1   O21   S    
C47   O2    A    
C19   C32   A    
C8    Cl7   S    
C9    C26   A    
C24   C37   A    
C32   H5    S    
C36   C39   A    
C15   C20   A    
Cr1   O18   S    
C34   O23   A    
Cr1   O8    S    
C24   C48   S    
C23   C30   S    
Cr6   O26   S    
C45   O10   A    
Cr1   O5    S    
Cr6   O14   S    
C46   O26   A    
Cr3   O18   S    
C28   C44   S    
C42   H3    S    
C7    C28   A    
C31   H1    S    
C37   C38   A    
C25   C38   A    
Cr6   O4    S    
C4    O17   A    
Cr5   O3    S    
C27   C40   A    
C10   Cl9   S    
C17   C18   A    
C9    Cl8   S    
C45   O12   A    
C36   H8    S    
Cr2   O22   S    
C20   C33   A    
C3    O24   A    
Cr4   O19   S    
C43   H4    S    
C48   O14   A    
C1    C26   S    
C40   H12   S    
C30   C43   A    
C2    O4    A    
Cr5   O25   S    
C6    Cl5   S    
C11   Cl10  S    
C14   Cl12  S    
Cr6   O19   S    
C5    C30   A    
Cr4   O11   S    
Cr5   O13   S    
Cr2   O6    S    
C35   H7    S    
C8    C14   A    
C47   O13   A    
C44   O1    A    
C1    O20   A    
C21   C35   A    
C1    O5    A    
C22   C36   A    
Cr2   O9    S    
C12   C25   S    
C33   C41   A    
C35   C40   A    
Cr5   O19   S    
C10   C25   A    
Cr1   O1    S    
C16   C19   A    
C29   C34   S    
C13   C22   A    
C3    O16   A    
C3    C21   S    
C10   C11   A    
C6    C16   A    
C4    C20   S    
C6    C29   A    
C23   O7    A    
C8    C27   A    
C32   C42   A    
C18   C31   A    
C7    Cl6   S    
C13   Cl11  S    
Cr6   O17   S    
