data_mof_unit_56177.cif
_audit_creation_date              2012-12-11T17:03:15-0500
_audit_creation_method            fapswitch 2.2
_symmetry_space_group_name_H-M    P1
_symmetry_Int_Tables_number       1
_space_group_crystal_system       triclinic
_cell_length_a                    16.901799
_cell_length_b                    7.283718
_cell_length_c                    15.163384
_cell_angle_alpha                 90.000165
_cell_angle_beta                  93.499019
_cell_angle_gamma                 90.000253
_cell_volume                      1863.25304911

loop_
_atom_site_label
_atom_site_type_symbol
_atom_type_description
_atom_site_fract_x
_atom_site_fract_y
_atom_site_fract_z
_atom_type_partial_charge
O1    O     O_R   0.413460 0.494300 0.415980 -0.553832
O2    O     O_R   0.586540 0.994300 0.584020 -0.553832
O3    O     O_R   0.577100 0.822370 0.413730 -0.531862
O4    O     O_R   0.422900 0.322370 0.586270 -0.531864
C1    C     C_R   0.603121 0.655611 0.393499 0.717466
C2    C     C_R   0.396879 0.155611 0.606501 0.717472
O5    O     O_R   0.413490 0.823910 0.405510 -0.548136
O6    O     O_R   0.586510 0.323910 0.594490 -0.548135
O7    O     O_R   0.421770 0.995890 0.575740 -0.533676
O8    O     O_R   0.578230 0.495890 0.424260 -0.533677
C3    C     C_R   0.388033 0.653492 0.381015 0.686466
C4    C     C_R   0.611967 0.153493 0.618985 0.686473
O9    O     O_3   0.502910 0.661350 0.555860 -0.401594
O10   O     O_3   0.497090 0.161350 0.444140 -0.401594
V1    V     V_3+5 0.499460 0.935550 0.489640 1.319049
V2    V     V_3+5 0.500540 0.435550 0.510360 1.319048
C5    C     C_R   0.714394 0.973395 0.719661 -0.004059
C6    C     C_R   0.285608 0.473394 0.280333 -0.004065
C7    C     C_R   0.678479 0.137680 0.690200 -0.110866
C8    C     C_R   0.321522 0.637678 0.309798 -0.110867
C9    C     C_R   0.715530 0.292996 0.728130 -0.209390
C10   C     C_R   0.284472 0.792994 0.271869 -0.209385
H1    H     H_    0.690841 0.421830 0.710968 0.185771
H2    H     H_    0.309161 0.921828 0.289034 0.185781
C11   C     C_R   0.787070 0.282785 0.782894 -0.229413
C12   C     C_R   0.212933 0.782785 0.217103 -0.229414
H3    H     H_    0.820059 0.400187 0.800862 0.142382
H4    H     H_    0.179946 0.900188 0.199135 0.142380
C13   C     C_R   0.820847 0.117918 0.811396 -0.106220
C14   C     C_R   0.179155 0.617918 0.188601 -0.106214
C15   C     C_R   0.783807 0.966918 0.771917 0.115141
C16   C     C_R   0.216195 0.466918 0.228079 0.115152
C17   C     C_3   0.790155 0.766788 0.772932 0.186172
C18   C     C_3   0.209844 0.266789 0.227063 0.186166
C19   C     C_3   0.705789 0.768574 0.717129 0.101887
C20   C     C_3   0.294210 0.268573 0.282867 0.101888
C21   C     C_1   0.165720 0.119929 0.831455 -0.185778
C22   C     C_1   0.834280 0.619928 0.168545 -0.185779
C23   C     C_1   0.218683 0.128227 0.780177 0.000583
C24   C     C_1   0.781317 0.628226 0.219823 0.000585
C25   C     C_1   0.281166 0.138411 0.719979 -0.000020
C26   C     C_1   0.718833 0.638412 0.280020 -0.000017
C27   C     C_1   0.334076 0.146775 0.668643 -0.182417
C28   C     C_1   0.665924 0.646776 0.331357 -0.182420
O11   O     O_R   0.921840 0.772560 0.075830 -0.533770
O12   O     O_R   0.078160 0.272560 0.924170 -0.533771
O13   O     O_R   0.086520 0.441250 0.094510 -0.536258
O14   O     O_R   0.913480 0.941250 0.905490 -0.536256
C29   C     C_R   0.112288 0.609686 0.118233 0.705583
C30   C     C_R   0.887712 0.109685 0.881766 0.705593
O15   O     O_R   0.922920 0.442940 0.086290 -0.533436
O16   O     O_R   0.077080 0.942940 0.913710 -0.533435
O17   O     O_R   0.913440 0.271120 0.915960 -0.542426
O18   O     O_R   0.086560 0.771120 0.084040 -0.542426
C31   C     C_R   0.897166 0.611227 0.106485 0.712823
C32   C     C_R   0.102834 0.111227 0.893515 0.712825
O19   O     O_3   0.997130 0.604020 0.944190 -0.394282
O20   O     O_3   0.002870 0.104020 0.055810 -0.394279
V3    V     V_3+5 0.000530 0.329760 0.010360 1.346856
V4    V     V_3+5 0.999470 0.829760 0.989640 1.346856
C33   C     C_3   0.790374 0.692900 0.872177 -0.294517
C34   C     C_3   0.754524 0.814766 0.944091 -0.763643
H5    H     H_    0.800770 0.865846 0.992312 0.241780
H6    H     H_    0.721787 0.936791 0.918508 0.207689
H7    H     H_    0.712904 0.733079 0.982414 0.201521
H8    H     H_    0.756451 0.565353 0.876306 0.146598
H9    H     H_    0.850986 0.650929 0.895247 0.220576
C35   C     C_3   0.209626 0.192901 0.127818 -0.294520
C36   C     C_3   0.245473 0.314771 0.055904 -0.763625
H10   H     H_    0.199223 0.365887 0.007695 0.241781
H11   H     H_    0.278226 0.436775 0.081490 0.207683
H12   H     H_    0.287079 0.233074 0.017564 0.201519
H13   H     H_    0.243551 0.065358 0.123688 0.146596
H14   H     H_    0.149014 0.150925 0.104748 0.220577
C37   C     C_3   0.862756 0.714873 0.716282 -0.396321
C38   C     C_3   0.945331 0.789233 0.741730 -0.715773
H15   H     H_    0.946561 0.941180 0.742677 0.205962
H16   H     H_    0.968860 0.729580 0.804228 0.271655
H17   H     H_    0.986270 0.745799 0.691016 0.193190
H18   H     H_    0.870598 0.566171 0.709709 0.180706
H19   H     H_    0.851286 0.772258 0.649159 0.210197
C39   C     C_3   0.137243 0.214874 0.283712 -0.396319
C40   C     C_3   0.054670 0.289252 0.258271 -0.715767
H20   H     H_    0.053445 0.441200 0.257328 0.205959
H21   H     H_    0.031134 0.229608 0.195772 0.271657
H22   H     H_    0.013732 0.245821 0.308988 0.193188
H23   H     H_    0.129394 0.066172 0.290275 0.180697
H24   H     H_    0.148715 0.272239 0.350839 0.210203
C41   C     C_3   0.634328 0.717663 0.777108 -0.415755
C42   C     C_3   0.550041 0.699627 0.736495 -0.301787
C43   C     C_3   0.489875 0.681079 0.807339 -0.804758
H25   H     H_    0.503989 0.559934 0.849972 0.230136
H26   H     H_    0.489785 0.806624 0.848949 0.228494
H27   H     H_    0.429598 0.662604 0.775133 0.232485
H28   H     H_    0.533532 0.822322 0.697175 0.241504
H29   H     H_    0.546389 0.571651 0.697493 0.237021
H30   H     H_    0.645144 0.587051 0.812397 0.181868
H31   H     H_    0.630402 0.822745 0.829338 0.204896
C44   C     C_3   0.365671 0.217654 0.222890 -0.415756
C45   C     C_3   0.449958 0.199621 0.263505 -0.301784
C46   C     C_3   0.510126 0.181065 0.192664 -0.804762
H32   H     H_    0.496017 0.059904 0.150039 0.230136
H33   H     H_    0.510211 0.306595 0.151045 0.228496
H34   H     H_    0.570402 0.162612 0.224871 0.232487
H35   H     H_    0.466466 0.322320 0.302823 0.241501
H36   H     H_    0.453608 0.071649 0.302509 0.237028
H37   H     H_    0.354856 0.087040 0.187603 0.181868
H38   H     H_    0.369599 0.322730 0.170658 0.204891
C47   C     C_3   0.698405 0.710753 0.614981 -0.288062
C48   C     C_3   0.749753 0.563988 0.571616 -0.839707
H39   H     H_    0.782819 0.470797 0.616510 0.237832
H40   H     H_    0.712014 0.476592 0.526373 0.239402
H41   H     H_    0.793242 0.630195 0.529614 0.210890
H42   H     H_    0.637148 0.668714 0.599353 0.233567
H43   H     H_    0.706892 0.833371 0.572991 0.179588
C49   C     C_3   0.301592 0.210760 0.385016 -0.288062
C50   C     C_3   0.250250 0.063976 0.428377 -0.839733
H44   H     H_    0.217171 0.970816 0.383481 0.237833
H45   H     H_    0.287995 0.976552 0.473598 0.239418
H46   H     H_    0.206775 0.130164 0.470401 0.210895
H47   H     H_    0.362851 0.168747 0.400650 0.233569
H48   H     H_    0.293094 0.333379 0.427003 0.179575

loop_
_geom_bond_atom_site_label_1
_geom_bond_atom_site_label_2
_ccdc_geom_bond_type
C22   C24   T    
O11   V4    S    
C46   H32   S    
O12   V3    S    
O1    C3    A    
C38   H17   S    
O2    C4    A    
C2    O7    A    
O17   V3    S    
C42   H28   S    
O13   C29   A    
O18   V4    S    
O5    C3    A    
C44   H38   S    
C45   H35   S    
C49   H48   S    
C10   H2    S    
C7    C9    A    
C38   H16   S    
C50   H45   S    
C35   H14   S    
C39   H23   S    
C49   C50   S    
C36   H11   S    
C48   H39   S    
C34   H6    S    
O16   V4    S    
C17   C19   S    
C21   C32   S    
C33   H8    S    
C17   C37   S    
C22   C31   S    
C44   C45   S    
C35   C36   S    
C15   C17   S    
C37   H18   S    
C6    C8    A    
C19   C47   S    
O14   C30   A    
O6    V2    S    
C25   C27   T    
C36   H10   S    
C26   C28   T    
O14   V4    S    
C13   C30   S    
C11   C13   A    
C21   C23   T    
C3    C8    S    
C30   O17   A    
C49   H47   S    
C38   H15   S    
C23   C25   S    
C50   H46   S    
C18   C35   S    
C43   H25   S    
C37   H19   S    
O19   V4    S    
O5    V1    S    
O20   V3    S    
C41   H30   S    
C16   C18   S    
O4    V2    S    
C36   H12   S    
C37   C38   S    
C34   H5    S    
C43   H26   S    
C33   H9    S    
C40   H20   S    
O6    C4    A    
O1    V2    S    
O2    V1    S    
C48   H41   S    
C47   H42   S    
C19   C41   S    
O4    C2    A    
C40   H21   S    
C14   C29   S    
C8    C10   A    
C12   C14   A    
C46   H34   S    
C2    C27   S    
O9    V1    S    
C5    C15   A    
O10   V2    S    
C6    C16   A    
C20   C49   S    
O3    V1    S    
C46   H33   S    
C9    C11   A    
C18   C39   S    
C34   H7    S    
C45   H36   S    
C1    C28   S    
O3    C1    A    
C42   H29   S    
C11   H3    S    
C44   H37   S    
C12   H4    S    
C41   H31   S    
C9    H1    S    
C35   H13   S    
C1    O8    A    
C13   C15   A    
O8    V2    S    
C47   C48   S    
C43   H27   S    
C14   C16   A    
C42   C43   S    
C39   H24   S    
C4    C7    S    
C24   C26   S    
C45   C46   S    
C5    C7    A    
C18   C20   S    
C20   C44   S    
O15   C31   A    
O7    V1    S    
C33   C34   S    
C48   H40   S    
C47   H43   S    
O13   V3    S    
O16   C32   A    
C40   H22   S    
O15   V3    S    
O11   C31   A    
C17   C33   S    
C39   C40   S    
C10   C12   A    
O9    V2    S    
O12   C32   A    
O10   V1    S    
C5    C19   S    
C41   C42   S    
C50   H44   S    
C6    C20   S    
C29   O18   A    
