data_mof_unit_31887.cif
_audit_creation_date              2012-12-10T17:08:45-0500
_audit_creation_method            fapswitch 2.2
_symmetry_space_group_name_H-M    P1
_symmetry_Int_Tables_number       1
_space_group_crystal_system       triclinic
_cell_length_a                    27.768608
_cell_length_b                    11.025664
_cell_length_c                    9.856818
_cell_angle_alpha                 111.365824
_cell_angle_beta                  97.006164
_cell_angle_gamma                 92.517888
_cell_volume                      2776.66693428

loop_
_atom_site_label
_atom_site_type_symbol
_atom_type_description
_atom_site_fract_x
_atom_site_fract_y
_atom_site_fract_z
_atom_type_partial_charge
C1    C     C_R   0.496881 0.253919 0.439693 0.804562
C2    C     C_R   0.504449 0.746269 0.559902 0.791326
C3    C     C_R   0.100032 0.509737 0.480144 -0.163148
C4    C     C_R   0.894506 0.511488 0.415715 -0.163939
C5    C     C_R   0.121569 0.390822 0.431213 -0.153135
C6    C     C_R   0.873116 0.630250 0.467809 -0.160546
C7    C     C_R   0.092259 0.271997 0.392143 0.477261
C8    C     C_R   0.901773 0.748526 0.498034 0.476249
C9    C     C_R   0.130239 0.629115 0.547430 0.015138
C10   C     C_R   0.864409 0.392028 0.355742 0.013157
C11   C     C_R   0.354191 0.504385 0.506362 -0.146954
C12   C     C_R   0.645777 0.502335 0.489415 -0.119198
C13   C     C_R   0.966968 0.391599 0.371099 0.088089
C14   C     C_R   0.027220 0.629892 0.512964 0.089603
C15   C     C_R   0.975765 0.632336 0.484421 -0.009871
C16   C     C_R   0.018476 0.388727 0.398921 -0.011420
C17   C     C_R   0.945949 0.511957 0.424035 0.007108
C18   C     C_R   0.048402 0.509318 0.463053 0.005248
C19   C     C_R   0.935477 0.278982 0.283835 -0.217035
C20   C     C_R   0.058120 0.743253 0.601200 -0.219843
C21   C     C_R   0.885104 0.276427 0.280699 0.158711
C22   C     C_R   0.108701 0.745352 0.614621 0.155732
C23   C     C_R   0.407397 0.500026 0.502313 0.808234
C24   C     C_R   0.592658 0.500663 0.497841 0.794930
C25   C     C_R   0.041197 0.270658 0.377550 0.048135
C26   C     C_R   0.952732 0.749719 0.504715 0.048606
C27   C     C_2   0.494115 0.113009 0.403090 -0.043437
C28   C     C_2   0.510786 0.887037 0.593904 -0.043880
C29   C     C_2   0.511297 0.067962 0.506469 -0.134467
C30   C     C_2   0.503636 0.929956 0.483080 -0.126463
C31   C     C_2   0.509313 0.493815 0.074869 0.447092
C32   C     C_2   0.497228 0.481632 0.915433 0.468450
C33   C     C_R   0.172281 0.394680 0.429764 0.553724
C34   C     C_R   0.823324 0.626356 0.483142 0.591759
C35   C     C_R   0.181146 0.626711 0.550691 0.557381
C36   C     C_R   0.814508 0.393559 0.369908 0.571298
C37   C     C_R   0.275267 0.532524 0.389396 -0.122958
C38   C     C_R   0.709353 0.478017 0.334138 -0.180028
C39   C     C_R   0.325458 0.529586 0.393392 -0.232809
C40   C     C_R   0.660398 0.474890 0.350174 -0.228429
C41   C     C_R   0.331003 0.482473 0.617448 0.120480
C42   C     C_R   0.682357 0.531940 0.614485 0.072045
C43   C     C_R   0.280456 0.486542 0.613271 0.217982
C44   C     C_R   0.731968 0.533775 0.596582 0.219643
C45   C     C_R   0.252580 0.510649 0.498230 0.254490
C46   C     C_R   0.745214 0.507526 0.456351 0.311572
Cu1   Cu    Cu3+1 0.508480 0.521810 0.644910 0.965277
Cu2   Cu    Cu3+1 0.491520 0.478190 0.355090 0.970677
H1    H     H_    0.550754 0.616343 0.927655 0.169545
H2    H     H_    0.443304 0.421622 0.085252 0.180742
H3    H     H_    0.633934 0.450654 0.251923 0.220520
H4    H     H_    0.341831 0.547354 0.307269 0.179525
H5    H     H_    0.719559 0.457225 0.225861 0.159914
H6    H     H_    0.253828 0.551297 0.300964 0.157632
H7    H     H_    0.948897 0.191804 0.212389 0.175432
H8    H     H_    0.043938 0.831453 0.667433 0.173508
H9    H     H_    0.490601 0.861524 0.372009 0.182420
H10   H     H_    0.530075 0.135175 0.612182 0.177431
N1    N     N_R   0.200674 0.510973 0.490752 -0.478745
N2    N     N_R   0.795621 0.509196 0.436902 -0.462676
N3    N     N_2   0.478780 0.445430 0.137360 -0.313453
N4    N     N_2   0.521220 0.554570 0.862640 -0.313200
O1    O     O_R   0.504520 0.332330 0.577400 -0.548443
O2    O     O_R   0.495480 0.667670 0.422600 -0.588122
O3    O     O_R   0.490210 0.295500 0.332650 -0.572725
O4    O     O_R   0.509790 0.704500 0.667350 -0.575493
O5    O     O_R   0.437420 0.518430 0.622370 -0.541556
O6    O     O_R   0.562580 0.481570 0.377630 -0.518850
O7    O     O_R   0.423110 0.481600 0.377610 -0.579790
O8    O     O_R   0.576890 0.518400 0.622390 -0.595692
O9    O     O_2   0.193269 0.283594 0.366977 -0.484088
O10   O     O_2   0.802771 0.738137 0.546093 -0.488610
O11   O     O_2   0.785202 0.280778 0.321419 -0.502085
O12   O     O_2   0.211110 0.738447 0.611766 -0.497240
N5    N     N_3   0.357143 0.450012 0.731964 -0.531074
H11   H     H_    0.375041 0.367176 0.683106 0.262576
H12   H     H_    0.382103 0.529129 0.798572 0.261076
N6    N     N_3   0.670717 0.560858 0.760161 -0.604651
H13   H     H_    0.650141 0.480074 0.762306 0.246781
H14   H     H_    0.650972 0.642822 0.788673 0.240800
N7    N     N_3   0.525487 0.976426 0.743156 -0.610725
H15   H     H_    0.499360 0.963974 0.806079 0.227324
H16   H     H_    0.558504 0.950634 0.783097 0.230738
N8    N     N_3   0.471690 0.025301 0.259204 -0.601348
H17   H     H_    0.491219 0.040198 0.181493 0.230299
H18   H     H_    0.436312 0.050449 0.240469 0.231855
O13   O     O_3   0.458807 0.394671 0.823004 -0.582751
C47   C     C_3   0.464454 0.265652 0.815884 -0.318464
H19   H     H_    0.442534 0.240962 0.890540 0.157864
H20   H     H_    0.503106 0.246830 0.839340 0.165395
H21   H     H_    0.449365 0.197048 0.703220 0.203619
O14   O     O_3   0.556207 0.540478 0.147487 -0.580652
C48   C     C_3   0.561871 0.678857 0.206444 -0.291893
H22   H     H_    0.529327 0.726408 0.179833 0.124609
H23   H     H_    0.593046 0.713029 0.164768 0.157800
H24   H     H_    0.571866 0.713757 0.327687 0.201858
N9    N     N_3   0.257771 0.465413 0.726963 -0.551654
H25   H     H_    0.232401 0.383283 0.678535 0.221131
H26   H     H_    0.239122 0.546555 0.776914 0.225456
N10   N     N_3   0.769410 0.561337 0.720400 -0.565570
H27   H     H_    0.765785 0.653852 0.797767 0.250092
H28   H     H_    0.763927 0.492291 0.768181 0.233345
O15   O     O_3   0.112794 0.154659 0.365590 -0.541532
C49   C     C_3   0.128776 0.142740 0.501542 -0.224443
H29   H     H_    0.098113 0.140626 0.563442 0.117377
H30   H     H_    0.157086 0.222502 0.572002 0.157365
H31   H     H_    0.145359 0.048954 0.478936 0.203368
O16   O     O_3   0.880857 0.865277 0.524545 -0.543313
C50   C     C_3   0.861374 0.872011 0.388431 -0.229061
H32   H     H_    0.831600 0.793079 0.327608 0.168231
H33   H     H_    0.889886 0.867983 0.317381 0.117043
H34   H     H_    0.845588 0.966832 0.410561 0.205153
N11   N     N_3   0.855391 0.156386 0.196936 -0.514916
H35   H     H_    0.866838 0.085122 0.237103 0.212027
H36   H     H_    0.861520 0.126868 0.087439 0.223735
N12   N     N_3   0.137677 0.865938 0.701445 -0.508805
H37   H     H_    0.128972 0.897112 0.808409 0.225321
H38   H     H_    0.128002 0.936049 0.657377 0.209526
N13   N     N_3   0.013166 0.150542 0.355001 -0.608309
H39   H     H_    0.021958 0.076587 0.261875 0.249125
H40   H     H_    0.021706 0.124847 0.446466 0.233163
N14   N     N_3   0.980098 0.868046 0.517839 -0.607201
H41   H     H_    0.969112 0.890452 0.425257 0.232935
H42   H     H_    0.972829 0.944373 0.611367 0.247075

loop_
_geom_bond_atom_site_label_1
_geom_bond_atom_site_label_2
_ccdc_geom_bond_type
O13   C47   S    
C35   O12   S    
C48   H22   S    
C27   C29   D    
C8    C26   A    
C31   N3    D    
Cu2   O7    S    
C20   H8    S    
Cu1   N4    S    
C49   H30   S    
N9    H25   S    
C24   O8    A    
N12   H37   S    
C27   N8    S    
C19   C21   A    
N8    H18   S    
C50   H33   S    
Cu1   O1    S    
N6    H14   S    
C9    C22   A    
Cu2   O2    S    
C30   H9    S    
C1    O1    A    
O16   C50   S    
C3    C18   A    
C35   N1    A    
C23   O5    A    
C23   O7    A    
N10   H27   S    
C12   C42   A    
N9    H26   S    
C31   C32   S    
C2    O2    A    
C5    C33   A    
C1    O3    A    
Cu2   O3    S    
Cu1   O4    S    
C47   H19   S    
C22   N12   S    
C39   H4    S    
C33   N1    A    
C7    O15   S    
C34   N2    A    
C41   C43   A    
C42   C44   A    
C25   N13   S    
Cu1   O5    S    
C49   H29   S    
N7    H16   S    
C44   C46   A    
N7    H15   S    
N13   H40   S    
C10   C21   A    
C13   C19   A    
C14   C20   A    
N8    H17   S    
C4    C6    A    
C50   H34   S    
C5    C7    A    
C24   O6    A    
N6    H13   S    
C15   C26   A    
C6    C8    A    
C36   N2    A    
C32   O13   S    
C6    C34   A    
C12   C40   A    
N5    H11   S    
Cu1   O8    S    
C29   C30   S    
C3    C9    A    
C41   N5    S    
N5    H12   S    
Cu1   Cu2   S    
C47   H21   S    
N10   H28   S    
C16   C18   A    
Cu2   O6    S    
C11   C39   A    
C43   C45   A    
C37   H6    S    
C21   N11   S    
C47   H20   S    
C42   N6    S    
C48   H24   S    
C4    C17   A    
C37   C45   A    
C34   O10   S    
C1    C27   S    
N11   H35   S    
C19   H7    S    
C16   C25   A    
C15   C17   A    
C45   N1    S    
H1    N4    S    
C46   N2    S    
C28   N7    S    
C14   C18   A    
C43   N9    S    
C4    C10   A    
C20   C22   A    
C3    C5    A    
C2    C28   S    
N13   H39   S    
C2    O4    A    
C40   H3    S    
C12   C24   S    
C7    C25   A    
C13   C17   A    
C28   C30   D    
C32   N4    D    
C37   C39   A    
C50   H32   S    
C38   C40   A    
C44   N10   S    
Cu2   N3    S    
C38   H5    S    
C11   C23   S    
O14   C48   S    
N12   H38   S    
C11   C41   A    
C38   C46   A    
C36   O11   S    
C33   O9    S    
C29   H10   S    
C48   H23   S    
C31   O14   S    
C13   C16   A    
O15   C49   S    
C9    C35   A    
H2    N3    S    
C14   C15   A    
C8    O16   S    
C10   C36   A    
C26   N14   S    
N14   H41   S    
N14   H42   S    
C49   H31   S    
N11   H36   S    
