data_mof_unit_6926.cif
_audit_creation_date              2012-12-11T15:19:34-0500
_audit_creation_method            fapswitch 2.2
_symmetry_space_group_name_H-M    P1
_symmetry_Int_Tables_number       1
_space_group_crystal_system       triclinic
_cell_length_a                    20.012879
_cell_length_b                    6.865917
_cell_length_c                    18.171321
_cell_angle_alpha                 90.042947
_cell_angle_beta                  104.163276
_cell_angle_gamma                 89.91293
_cell_volume                      2420.96080412

loop_
_atom_site_label
_atom_site_type_symbol
_atom_type_description
_atom_site_fract_x
_atom_site_fract_y
_atom_site_fract_z
_atom_type_partial_charge
O1    O     O_R   0.312200 0.620210 0.189560 -0.542409
O2    O     O_R   0.687800 0.379790 0.810440 -0.542409
O3    O     O_R   0.187800 0.120210 0.310440 -0.544054
O4    O     O_R   0.812200 0.879790 0.689560 -0.544051
O5    O     O_R   0.171590 0.286140 0.165000 -0.537760
O6    O     O_R   0.828410 0.713860 0.835000 -0.537759
O7    O     O_R   0.328410 0.786140 0.335000 -0.534100
O8    O     O_R   0.671590 0.213860 0.665000 -0.534100
C1    C     C_R   0.145615 0.459578 0.143815 0.708221
C2    C     C_R   0.854385 0.540422 0.856185 0.708225
C3    C     C_R   0.354399 0.959486 0.356169 0.723462
C4    C     C_R   0.645601 0.040514 0.643831 0.723461
O9    O     O_R   0.310670 0.290220 0.180540 -0.537978
O10   O     O_R   0.689330 0.709780 0.819460 -0.537983
O11   O     O_R   0.189330 0.790220 0.319460 -0.541214
O12   O     O_R   0.810670 0.209780 0.680540 -0.541217
O13   O     O_R   0.327870 0.124170 0.326080 -0.531203
O14   O     O_R   0.672130 0.875830 0.673920 -0.531203
O15   O     O_R   0.172130 0.624170 0.173920 -0.531267
O16   O     O_R   0.827870 0.375830 0.826080 -0.531266
C5    C     C_R   0.333547 0.458659 0.167013 0.712365
C6    C     C_R   0.666453 0.541341 0.832987 0.712361
C7    C     C_R   0.164400 0.959009 0.330522 0.708244
C8    C     C_R   0.835599 0.040990 0.669477 0.708242
O17   O     O_3   0.255480 0.455050 0.297740 -0.363465
O18   O     O_3   0.744520 0.544950 0.702260 -0.363464
O19   O     O_3   0.244520 0.955050 0.202260 -0.366354
O20   O     O_3   0.755480 0.044950 0.797740 -0.366357
V1    V     V_3+5 0.248980 0.178550 0.241140 1.402827
V2    V     V_3+5 0.751020 0.821450 0.758860 1.402821
V3    V     V_3+5 0.251020 0.678550 0.258860 1.405501
V4    V     V_3+5 0.748980 0.321450 0.741140 1.405495
C9    C     C_R   0.941851 0.887495 0.637614 0.106635
C10   C     C_R   0.058130 0.112462 0.362359 0.106618
C11   C     C_R   0.554836 0.649647 0.864135 0.102101
C12   C     C_R   0.445160 0.350339 0.135860 0.102085
C13   C     C_R   0.888576 0.030401 0.624367 -0.127519
C14   C     C_R   0.111418 0.969591 0.375624 -0.127514
C15   C     C_R   0.615222 0.532722 0.879837 -0.112683
C16   C     C_R   0.384777 0.467277 0.120162 -0.112678
C17   C     C_R   0.885334 0.168439 0.566858 -0.258364
C18   C     C_R   0.114661 0.831563 0.433136 -0.258348
C19   C     C_R   0.627727 0.403006 0.940950 -0.262365
C20   C     C_R   0.372274 0.596997 0.059051 -0.262385
C21   C     C_R   0.931100 0.164309 0.519151 0.073781
C22   C     C_R   0.068871 0.835649 0.480816 0.073779
C23   C     C_R   0.582985 0.388058 0.989595 0.081597
C24   C     C_R   0.417011 0.611928 0.010399 0.081560
C25   C     C_R   0.978248 0.007495 0.525559 -0.015658
C26   C     C_R   0.021720 0.992456 0.474404 -0.015657
C27   C     C_R   0.523022 0.506324 0.975691 -0.017863
C28   C     C_R   0.476972 0.493656 0.024301 -0.017839
C29   C     C_R   0.982508 0.866565 0.583542 0.062868
C30   C     C_R   0.017460 0.133379 0.416419 0.062853
C31   C     C_R   0.508979 0.637314 0.913213 0.054298
C32   C     C_R   0.491015 0.362665 0.086779 0.054348
C33   C     C_R   0.930183 0.311454 0.464247 0.137579
C34   C     C_R   0.069769 0.688470 0.535698 0.137613
C35   C     C_R   0.597019 0.258716 0.052336 0.143128
C36   C     C_R   0.402975 0.741260 0.947656 0.143135
C37   C     C_R   0.972982 0.293544 0.414159 -0.231971
C38   C     C_R   0.026969 0.706377 0.585786 -0.231932
C39   C     C_R   0.550953 0.247383 0.099000 -0.223467
C40   C     C_R   0.449039 0.752590 0.900990 -0.223452
H1    H     H_    0.845509 0.278179 0.559229 0.149429
H2    H     H_    0.154506 0.721872 0.440794 0.149414
H3    H     H_    0.673733 0.314685 0.949985 0.140133
H4    H     H_    0.326273 0.685341 0.050023 0.140148
H5    H     H_    0.971352 0.409377 0.373576 0.141834
H6    H     H_    0.028586 0.590520 0.626354 0.141848
H7    H     H_    0.563000 0.144150 0.145088 0.140060
H8    H     H_    0.436990 0.855816 0.854899 0.140058
C41   C     C_1   0.583098 0.027550 0.581649 -0.203303
C42   C     C_1   0.416902 0.972450 0.418351 -0.203302
C43   C     C_1   0.916889 0.527381 0.918359 -0.196432
C44   C     C_1   0.083111 0.472619 0.081642 -0.196433
C45   C     C_1   0.530817 0.010923 0.530219 0.002587
C46   C     C_1   0.469183 0.989077 0.469781 0.002588
C47   C     C_1   0.969178 0.510853 0.969785 0.001652
C48   C     C_1   0.030822 0.489147 0.030215 0.001651
C49   C     C_3   0.959537 0.770428 0.711614 -0.356201
C50   C     C_3   0.030468 0.825148 0.761216 -0.770594
H9    H     H_    0.072459 0.790554 0.733308 0.232734
H10   H     H_    0.032038 0.983346 0.774419 0.228374
H11   H     H_    0.040218 0.742830 0.815414 0.218147
H12   H     H_    0.923795 0.797543 0.747974 0.193432
H13   H     H_    0.956390 0.611702 0.699704 0.165163
C51   C     C_3   0.040445 0.229508 0.288353 -0.356165
C52   C     C_3   0.969524 0.174709 0.238734 -0.770506
H14   H     H_    0.967984 0.016505 0.225524 0.228343
H15   H     H_    0.927517 0.209223 0.266632 0.232713
H16   H     H_    0.959769 0.257048 0.184539 0.218140
H17   H     H_    0.043570 0.388248 0.300256 0.165136
H18   H     H_    0.076205 0.202425 0.252009 0.193419
C53   C     C_3   0.537099 0.774343 0.792273 -0.362997
C54   C     C_3   0.555592 0.988836 0.808781 -0.713292
H19   H     H_    0.532060 0.047661 0.853487 0.222459
H20   H     H_    0.612257 0.007051 0.827502 0.238556
H21   H     H_    0.536691 0.075734 0.756280 0.199109
H22   H     H_    0.563540 0.721621 0.749060 0.172905
H23   H     H_    0.481710 0.759719 0.763242 0.163719
C55   C     C_3   0.462897 0.225642 0.207722 -0.362991
C56   C     C_3   0.444400 0.011152 0.191213 -0.713388
H24   H     H_    0.387738 0.992942 0.172491 0.238570
H25   H     H_    0.467929 0.952318 0.146511 0.222453
H26   H     H_    0.463296 0.924258 0.243710 0.199131
H27   H     H_    0.518287 0.240258 0.236750 0.163724
H28   H     H_    0.436459 0.278369 0.250936 0.172910
C57   C     C_3   0.885292 0.492162 0.457482 -0.349411
C58   C     C_3   0.813571 0.454366 0.406856 -0.757363
H29   H     H_    0.817298 0.414664 0.348704 0.226444
H30   H     H_    0.787592 0.334571 0.429968 0.223764
H31   H     H_    0.781775 0.588264 0.403433 0.218377
H32   H     H_    0.881815 0.545353 0.514116 0.176371
H33   H     H_    0.908836 0.614274 0.432485 0.183842
C59   C     C_3   0.114619 0.507698 0.542421 -0.349502
C60   C     C_3   0.186313 0.545237 0.593136 -0.757486
H34   H     H_    0.212344 0.665102 0.570137 0.223803
H35   H     H_    0.182534 0.584697 0.651289 0.226473
H36   H     H_    0.218085 0.411315 0.596505 0.218410
H37   H     H_    0.091007 0.385556 0.567314 0.183902
H38   H     H_    0.118145 0.454670 0.485785 0.176402
C61   C     C_3   0.660790 0.130179 0.072642 -0.377403
C62   C     C_3   0.651061 0.944699 0.024927 -0.719797
H39   H     H_    0.605948 0.862052 0.033586 0.235030
H40   H     H_    0.643024 0.979568 0.963917 0.231255
H41   H     H_    0.697598 0.851349 0.042319 0.211743
H42   H     H_    0.707383 0.210427 0.067087 0.170967
H43   H     H_    0.671904 0.086394 0.133349 0.175764
C63   C     C_3   0.339200 0.869781 0.927346 -0.377408
C64   C     C_3   0.348936 0.055306 0.975034 -0.719745
H44   H     H_    0.357068 0.020483 0.036062 0.231285
H45   H     H_    0.393999 0.138053 0.966281 0.234983
H46   H     H_    0.302359 0.148540 0.957697 0.211738
H47   H     H_    0.328072 0.913501 0.866632 0.175763
H48   H     H_    0.292613 0.789545 0.932926 0.170965

loop_
_geom_bond_atom_site_label_1
_geom_bond_atom_site_label_2
_ccdc_geom_bond_type
C34   C38   A    
O1    C5    A    
O19   V1    S    
C9    C29   A    
O13   V1    S    
O3    C7    A    
C63   H47   S    
C64   H46   S    
O15   V3    S    
C49   C50   S    
O4    V2    S    
C61   C62   S    
C45   C46   S    
O7    C3    A    
C21   C33   A    
C26   C30   A    
C59   H38   S    
O2    V4    S    
O9    V1    S    
C14   C18   A    
C60   H35   S    
C18   C22   A    
O4    C8    A    
C54   H21   S    
O1    V3    S    
C59   C60   S    
C38   H6    S    
O17   V1    S    
C12   C55   S    
C29   C38   A    
O3    V1    S    
C58   H29   S    
C22   C34   A    
C1    O15   A    
C33   C57   S    
C53   C54   S    
C2    O16   A    
C54   H20   S    
O2    C6    A    
C53   H23   S    
C55   H28   S    
O14   V2    S    
C1    C44   S    
C21   C25   A    
C52   H15   S    
C16   C20   A    
C49   H12   S    
O11   C7    A    
O12   C8    A    
C4    C41   S    
C31   C40   A    
C34   C59   S    
O10   V2    S    
C24   C36   A    
O5    V1    S    
C35   C61   S    
C51   H18   S    
O7    V3    S    
C59   H37   S    
O19   V3    S    
C27   C28   A    
O8    V4    S    
O20   V4    S    
C60   H36   S    
C36   C63   S    
C53   H22   S    
C23   C27   A    
C11   C31   A    
C50   H9    S    
C9    C13   A    
C11   C15   A    
O5    C1    A    
C12   C32   A    
C2    C43   S    
C12   C16   A    
O8    C4    A    
C54   H19   S    
C8    C13   S    
C32   C39   A    
O9    C5    A    
C55   H27   S    
C56   H25   S    
C10   C51   S    
C52   H16   S    
C33   C37   A    
C58   H31   S    
C49   H13   S    
C57   H32   S    
C62   H41   S    
O6    V2    S    
C39   H7    S    
C10   C30   A    
C50   H10   S    
C20   H4    S    
C43   C47   T    
C64   H44   S    
C50   H11   S    
C62   H40   S    
O16   V4    S    
C37   H5    S    
C51   H17   S    
C3    O13   A    
C17   C21   A    
C10   C14   A    
O17   V3    S    
C63   H48   S    
C44   C48   T    
C64   H45   S    
C3    C42   S    
O6    C2    A    
C17   H1    S    
O11   V3    S    
O18   V4    S    
C30   C37   A    
C11   C53   S    
O12   V4    S    
C7    C14   S    
C22   C26   A    
C35   C39   A    
C36   C40   A    
O10   C6    A    
O20   V2    S    
C63   C64   S    
C57   C58   S    
C61   H42   S    
C5    C16   S    
C19   C23   A    
C25   C29   A    
C6    C15   S    
C56   H26   S    
C27   C31   A    
C40   H8    S    
C13   C17   A    
C55   C56   S    
C58   H30   S    
C57   H33   S    
C23   C35   A    
C47   C48   S    
C28   C32   A    
C24   C28   A    
C51   C52   S    
C15   C19   A    
C19   H3    S    
C25   C26   A    
C42   C46   T    
C4    O14   A    
C56   H24   S    
C18   H2    S    
C41   C45   T    
C52   H14   S    
C60   H34   S    
C9    C49   S    
C61   H43   S    
C20   C24   A    
C62   H39   S    
O18   V2    S    
