data_mof_unit_36088.cif
_audit_creation_date              2012-12-11T17:19:11-0500
_audit_creation_method            fapswitch 2.2
_symmetry_space_group_name_H-M    P1
_symmetry_Int_Tables_number       1
_space_group_crystal_system       triclinic
_cell_length_a                    15.014365
_cell_length_b                    7.252672
_cell_length_c                    13.213451
_cell_angle_alpha                 89.99925
_cell_angle_beta                  100.465685
_cell_angle_gamma                 90.000811
_cell_volume                      1414.93182299

loop_
_atom_site_label
_atom_site_type_symbol
_atom_type_description
_atom_site_fract_x
_atom_site_fract_y
_atom_site_fract_z
_atom_type_partial_charge
O1    O     O_R   0.648180 0.355050 0.151550 -0.536997
O2    O     O_R   0.351820 0.644950 0.848450 -0.537004
O3    O     O_R   0.851820 0.855050 0.348450 -0.536996
O4    O     O_R   0.148180 0.144950 0.651550 -0.536996
O5    O     O_R   0.835240 0.681980 0.154280 -0.536596
O6    O     O_R   0.164760 0.318020 0.845720 -0.536597
O7    O     O_R   0.664760 0.181980 0.345720 -0.536592
O8    O     O_R   0.335240 0.818020 0.654280 -0.536593
H1    H     H_    0.654271 0.832754 0.839730 0.132895
H2    H     H_    0.345733 0.167280 0.160276 0.132897
H3    H     H_    0.845729 0.332683 0.660283 0.132894
H4    H     H_    0.154261 0.667399 0.339704 0.132895
C1    C     C_R   0.860972 0.514668 0.129423 0.734001
C2    C     C_R   0.139026 0.485331 0.870575 0.734008
C3    C     C_R   0.639028 0.014665 0.370577 0.733995
C4    C     C_R   0.360973 0.985335 0.629424 0.733996
O9    O     O_R   0.647870 0.684600 0.139630 -0.538196
O10   O     O_R   0.352130 0.315400 0.860370 -0.538196
O11   O     O_R   0.852130 0.184600 0.360370 -0.538198
O12   O     O_R   0.147870 0.815400 0.639630 -0.538199
O13   O     O_R   0.663110 0.857440 0.333700 -0.538594
O14   O     O_R   0.336890 0.142560 0.666300 -0.538593
O15   O     O_R   0.836890 0.357440 0.166300 -0.538589
O16   O     O_R   0.163110 0.642560 0.833700 -0.538587
C5    C     C_R   0.613794 0.516356 0.114875 0.726366
C6    C     C_R   0.386205 0.483644 0.885125 0.726370
C7    C     C_R   0.886206 0.016356 0.385124 0.726360
C8    C     C_R   0.113794 0.983644 0.614875 0.726362
O17   O     O_3   0.755220 0.522230 0.313690 -0.379195
O18   O     O_3   0.244780 0.477770 0.686310 -0.379193
O19   O     O_3   0.744780 0.022230 0.186310 -0.379190
O20   O     O_3   0.255220 0.977770 0.813690 -0.379185
V1    V     V_3+5 0.749030 0.796100 0.238190 1.373788
V2    V     V_3+5 0.250970 0.203900 0.761810 1.373800
V3    V     V_3+5 0.750970 0.296100 0.261810 1.373798
V4    V     V_3+5 0.249030 0.703900 0.738190 1.373808
C9    C     C_1   0.966523 0.005645 0.466131 -0.181511
C10   C     C_1   0.033477 0.994355 0.533869 -0.181506
C11   C     C_1   0.533476 0.505645 0.033869 -0.181510
C12   C     C_1   0.466523 0.494355 0.966131 -0.181504
H5    H     H_    0.236211 0.216208 0.266668 0.141310
H6    H     H_    0.763789 0.783794 0.733337 0.141307
H7    H     H_    0.263797 0.716221 0.233312 0.141312
H8    H     H_    0.736205 0.283785 0.766676 0.141309
C13   C     C_R   0.552098 0.943967 0.718967 0.129391
C14   C     C_R   0.447904 0.056050 0.281035 0.129393
C15   C     C_R   0.947902 0.443926 0.781036 0.129397
C16   C     C_R   0.052094 0.556114 0.218960 0.129404
C17   C     C_R   0.635049 0.863264 0.758325 -0.159619
C18   C     C_R   0.364954 0.136758 0.241679 -0.159622
C19   C     C_R   0.864951 0.363217 0.741684 -0.159613
C20   C     C_R   0.135044 0.636836 0.258305 -0.159613
C21   C     C_R   0.698354 0.837824 0.697162 -0.143739
C22   C     C_R   0.301646 0.162180 0.302842 -0.143738
C23   C     C_R   0.801641 0.337810 0.802847 -0.143743
C24   C     C_R   0.198359 0.662199 0.197144 -0.143743
C25   C     C_R   0.682369 0.897334 0.594946 0.143713
C26   C     C_R   0.317630 0.102649 0.405054 0.143725
C27   C     C_R   0.817626 0.397358 0.905055 0.143733
C28   C     C_R   0.182378 0.602603 0.094945 0.143764
C29   C     C_R   0.592413 0.954233 0.545353 0.015414
C30   C     C_R   0.407587 0.045761 0.454648 0.015416
C31   C     C_R   0.907585 0.454239 0.954648 0.015417
C32   C     C_R   0.092415 0.545748 0.045351 0.015419
C33   C     C_R   0.524029 0.965803 0.608900 0.020006
C34   C     C_R   0.475972 0.034200 0.391101 0.020005
C35   C     C_R   0.975970 0.465786 0.891101 0.019998
C36   C     C_R   0.024028 0.534223 0.108897 0.019996
C37   C     C_R   0.568582 0.999657 0.437229 -0.146202
C38   C     C_R   0.431418 0.000341 0.562772 -0.146201
C39   C     C_R   0.931417 0.499672 0.062771 -0.146200
C40   C     C_R   0.068582 0.500324 0.937228 -0.146198
C41   C     C_3   0.505215 0.029806 0.799627 -0.721690
H9    H     H_    0.551050 0.041635 0.875571 0.182683
H10   H     H_    0.485536 0.173417 0.777291 0.210248
H11   H     H_    0.447156 0.945394 0.813222 0.227635
C42   C     C_3   0.494786 0.970216 0.200372 -0.721685
H12   H     H_    0.448950 0.958393 0.124428 0.182686
H13   H     H_    0.552846 0.054627 0.186779 0.227638
H14   H     H_    0.514464 0.826602 0.222705 0.210247
C43   C     C_3   0.994786 0.529746 0.700368 -0.721708
H15   H     H_    0.948951 0.541558 0.624423 0.182685
H16   H     H_    0.014465 0.673363 0.722692 0.210248
H17   H     H_    0.052845 0.445332 0.686781 0.227642
C44   C     C_3   0.005212 0.470309 0.299634 -0.721712
H18   H     H_    0.051047 0.458515 0.375580 0.182688
H19   H     H_    0.947151 0.554721 0.313216 0.227650
H20   H     H_    0.985535 0.326686 0.277321 0.210247
C45   C     C_3   0.765648 0.899471 0.547084 -0.767400
H21   H     H_    0.774312 0.038837 0.516325 0.185580
H22   H     H_    0.828875 0.873653 0.603626 0.189661
H23   H     H_    0.761965 0.787403 0.489898 0.237044
C46   C     C_3   0.234347 0.100470 0.452910 -0.767437
H24   H     H_    0.225695 0.961097 0.483668 0.185587
H25   H     H_    0.238017 0.212533 0.510096 0.237041
H26   H     H_    0.171121 0.126265 0.396365 0.189666
C47   C     C_3   0.734342 0.399565 0.952908 -0.767456
H27   H     H_    0.725698 0.538941 0.983663 0.185597
H28   H     H_    0.671114 0.373784 0.896361 0.189670
H29   H     H_    0.738002 0.287503 0.010096 0.237036
C48   C     C_3   0.265670 0.600301 0.047106 -0.767533
H30   H     H_    0.274289 0.460911 0.016353 0.185620
H31   H     H_    0.262040 0.712354 0.989916 0.237023
H32   H     H_    0.328897 0.626035 0.103662 0.189682

loop_
_geom_bond_atom_site_label_1
_geom_bond_atom_site_label_2
_ccdc_geom_bond_type
C26   C30   A    
C46   H24   S    
C23   C27   A    
C41   H9    S    
O10   C6    A    
C32   C40   A    
C47   H29   S    
C43   H15   S    
C42   H12   S    
C30   C38   A    
O16   V4    S    
C25   C45   S    
C32   C36   A    
C26   C46   S    
C14   C34   A    
C16   C20   A    
H6    C21   S    
C42   H14   S    
C34   C37   A    
O13   V1    S    
O3    V1    S    
O2    V4    S    
C33   C38   A    
C1    O15   A    
C13   C41   S    
C35   C40   A    
O8    V4    S    
C2    O16   A    
C47   H28   S    
O5    V1    S    
O19   V1    S    
C8    C10   S    
C45   H22   S    
O11   C7    A    
O5    C1    A    
O8    C4    A    
O7    C3    A    
C48   H31   S    
O1    C5    A    
C41   H10   S    
O9    V1    S    
O14   V2    S    
C15   C35   A    
C43   H16   S    
C47   H27   S    
O4    V2    S    
C42   H13   S    
C3    C37   S    
C31   C35   A    
C30   C34   A    
C44   H19   S    
C48   H30   S    
H1    C17   S    
C11   C12   T    
C21   C25   A    
C15   C19   A    
C1    C39   S    
C44   H18   S    
O6    V2    S    
O20   V2    S    
C9    C10   T    
O6    C2    A    
C13   C17   A    
C4    C38   S    
O2    C6    A    
C18   C22   A    
C16   C36   A    
C45   H23   S    
O10   V2    S    
C31   C39   A    
C46   H26   S    
O15   V3    S    
C13   C33   A    
C27   C47   S    
C41   H11   S    
C28   C48   S    
H2    C18   S    
C43   H17   S    
O1    V3    S    
C22   C26   A    
C44   H20   S    
C29   C37   A    
C14   C18   A    
C4    O14   A    
O7    V3    S    
C14   C42   S    
C25   C29   A    
C48   H32   S    
O12   C8    A    
O17   V3    S    
C27   C31   A    
O18   V4    S    
C28   C32   A    
C2    C40   S    
O3    C7    A    
H4    C20   S    
O9    C5    A    
O11   V3    S    
C5    C11   S    
H8    C23   S    
C6    C12   S    
C7    C9    S    
C36   C39   A    
C17   C21   A    
C19   C23   A    
C15   C43   S    
H5    C22   S    
H3    C19   S    
O12   V4    S    
C29   C33   A    
H7    C24   S    
C3    O13   A    
C24   C28   A    
C46   H25   S    
O4    C8    A    
C16   C44   S    
C45   H21   S    
C20   C24   A    
