data_mof_unit_19641.cif
_audit_creation_date              2012-12-10T19:54:19-0500
_audit_creation_method            fapswitch 2.2
_symmetry_space_group_name_H-M    P1
_symmetry_Int_Tables_number       1
_space_group_crystal_system       triclinic
_cell_length_a                    15.670345
_cell_length_b                    14.912423
_cell_length_c                    14.400744
_cell_angle_alpha                 90.759961
_cell_angle_beta                  89.969443
_cell_angle_gamma                 92.078581
_cell_volume                      3362.69631598

loop_
_atom_site_label
_atom_site_type_symbol
_atom_type_description
_atom_site_fract_x
_atom_site_fract_y
_atom_site_fract_z
_atom_type_partial_charge
C1    C     C_R   0.503046 0.328617 0.499379 0.925896
C2    C     C_R   0.498236 0.671312 0.500376 0.915077
C3    C     C_R   0.574287 0.188852 0.455142 0.411577
C4    C     C_R   0.421818 0.810757 0.478604 0.439208
C5    C     C_R   0.506238 0.233045 0.497866 -0.141449
C6    C     C_R   0.496934 0.766659 0.500359 -0.138453
C7    C     C_R   0.438767 0.185224 0.539653 -0.287307
C8    C     C_R   0.573776 0.813996 0.517309 -0.302391
C9    C     C_R   0.437619 0.092913 0.538658 -0.118845
C10   C     C_R   0.576235 0.906457 0.515178 -0.125204
C11   C     C_R   0.503367 0.048135 0.494327 0.064114
C12   C     C_R   0.501963 0.951224 0.493970 0.071452
C13   C     C_R   0.446118 0.444792 0.103595 -0.217236
C14   C     C_R   0.540134 0.570570 0.896372 -0.249711
C15   C     C_R   0.447018 0.441750 0.201606 0.195631
C16   C     C_R   0.535166 0.572708 0.798550 0.186915
C17   C     C_R   0.548501 0.563673 0.204979 0.172212
C18   C     C_R   0.472470 0.425060 0.798958 0.106415
C19   C     C_R   0.530632 0.580127 0.110416 0.312636
C20   C     C_R   0.488101 0.421093 0.897141 0.313891
C21   C     C_R   0.495028 0.509047 0.054652 0.034382
C22   C     C_R   0.505222 0.500856 0.948481 0.011125
C23   C     C_R   0.338247 0.499180 0.499876 0.933307
C24   C     C_R   0.661719 0.501196 0.499995 0.917732
C25   C     C_3   0.970505 0.427121 0.540492 -0.048148
C26   C     C_3   0.029436 0.577590 0.455272 -0.073495
C27   C     C_3   0.025768 0.429487 0.451735 0.486588
C28   C     C_3   0.974170 0.575299 0.544128 0.418270
C29   C     C_1   0.249412 0.500384 0.499213 -0.062258
C30   C     C_1   0.750552 0.501805 0.499818 -0.075192
C31   C     C_3   0.028190 0.501568 0.586654 -0.035691
C32   C     C_3   0.971639 0.503105 0.409321 -0.022209
C33   C     C_3   0.083082 0.503343 0.497488 -0.114914
C34   C     C_3   0.916904 0.501285 0.498397 -0.090273
C35   C     C_1   0.174165 0.502081 0.497985 0.063850
C36   C     C_1   0.825833 0.501537 0.499319 0.066554
C37   C     C_R   0.571157 0.095795 0.452374 -0.261150
C38   C     C_R   0.425387 0.903551 0.474805 -0.248303
H1    H     H_    0.621807 0.060109 0.418694 0.178914
H2    H     H_    0.368672 0.939128 0.457448 0.173590
H3    H     H_    0.386650 0.219336 0.572421 0.161549
H4    H     H_    0.631785 0.779257 0.531472 0.165451
H5    H     H_    0.385716 0.056509 0.572884 0.163738
H6    H     H_    0.635637 0.942911 0.530901 0.154967
H7    H     H_    0.404869 0.397690 0.065788 0.199135
H8    H     H_    0.574457 0.624292 0.931709 0.232182
N1    N     N_R   0.500000 0.499980 0.252470 -0.120627
N2    N     N_R   0.500000 0.500020 0.747530 -0.114909
O1    O     O_R   0.500010 0.369070 0.579480 -0.629034
O2    O     O_R   0.499990 0.630930 0.420520 -0.598051
O3    O     O_R   0.500010 0.369060 0.420520 -0.606233
O4    O     O_R   0.499990 0.630940 0.579480 -0.632667
O5    O     O_R   0.376780 0.500000 0.579460 -0.635425
O6    O     O_R   0.623220 0.500000 0.420540 -0.613385
O7    O     O_R   0.376780 0.499990 0.420510 -0.602472
O8    O     O_R   0.623220 0.500010 0.579490 -0.618195
Zn1   Zn    Zn3+2 0.500000 0.500010 0.606140 0.968005
Zn2   Zn    Zn3+2 0.500000 0.499990 0.393860 1.013010
S1    S     S_3+6 0.067430 0.335609 0.390060 -0.014898
O9    O     O_2   0.128797 0.368824 0.316893 -0.344520
O10   O     O_2   0.114031 0.276800 0.455286 -0.326207
O11   O     O_3   0.986253 0.276209 0.339979 -0.545951
H9    H     H_    0.013722 0.227996 0.304143 0.392302
S2    S     S_3+6 0.930101 0.669378 0.603302 -0.008716
O12   O     O_2   0.870716 0.715813 0.539483 -0.324130
O13   O     O_2   0.879929 0.637818 0.686281 -0.345760
O14   O     O_3   0.008617 0.742313 0.637251 -0.498378
H10   H     H_    0.049838 0.705754 0.670732 0.345905
C39   C     C_3   0.637747 0.593665 0.237132 -0.370905
C40   C     C_3   0.643252 0.678442 0.299469 -0.248336
C41   C     C_3   0.724447 0.735271 0.281170 -0.851596
H11   H     H_    0.781779 0.694937 0.291964 0.247240
H12   H     H_    0.724520 0.760632 0.209008 0.299377
H13   H     H_    0.727525 0.793646 0.329919 0.261343
H14   H     H_    0.587422 0.720697 0.289505 0.279929
H15   H     H_    0.645661 0.659043 0.373234 0.212296
H16   H     H_    0.669505 0.537303 0.270289 0.212400
H17   H     H_    0.677738 0.605942 0.174257 0.207685
C42   C     C_3   0.421876 0.344463 0.757587 -0.313121
C43   C     C_3   0.335355 0.367260 0.714724 -0.354213
C44   C     C_3   0.261678 0.306251 0.749201 -0.895264
H18   H     H_    0.275683 0.234699 0.735946 0.278379
H19   H     H_    0.251417 0.317362 0.824759 0.279277
H20   H     H_    0.202195 0.321261 0.711698 0.248368
H21   H     H_    0.319581 0.437881 0.730774 0.248729
H22   H     H_    0.338667 0.356828 0.638604 0.234990
H23   H     H_    0.461333 0.303556 0.711687 0.227596
H24   H     H_    0.406558 0.295532 0.812542 0.253164
S3    S     S_3+6 0.515097 0.694439 0.083320 -0.004169
O15   O     O_2   0.452007 0.701857 0.005396 -0.298286
O16   O     O_2   0.480671 0.742313 0.167040 -0.275993
O17   O     O_3   0.609139 0.743849 0.053462 -0.602303
H25   H     H_    0.595759 0.806650 0.039463 0.393790
S4    S     S_3+6 0.519635 0.317166 0.945000 -0.015267
O18   O     O_2   0.442299 0.262602 0.975466 -0.363590
O19   O     O_2   0.566110 0.264803 0.872112 -0.273795
O20   O     O_3   0.585623 0.335469 0.036006 -0.544656
H26   H     H_    0.589724 0.276283 0.065786 0.394049
C45   C     C_3   0.926853 0.343072 0.582248 -0.305190
C46   C     C_3   0.987073 0.288437 0.641336 -0.370063
C47   C     C_3   0.951431 0.192911 0.654600 -0.767956
H27   H     H_    0.887505 0.193896 0.687917 0.265564
H28   H     H_    0.946038 0.157162 0.586561 0.278663
H29   H     H_    0.994994 0.155882 0.699858 0.255751
H30   H     H_    0.051057 0.285706 0.609192 0.271670
H31   H     H_    0.995018 0.320466 0.710769 0.222514
H32   H     H_    0.872448 0.363474 0.626291 0.205989
H33   H     H_    0.900404 0.301221 0.523864 0.263756
C48   C     C_3   0.073417 0.660973 0.412437 -0.276718
C49   C     C_3   0.012243 0.718058 0.357288 -0.376890
C50   C     C_3   0.054681 0.807750 0.330860 -0.752982
H34   H     H_    0.072325 0.847431 0.394238 0.298501
H35   H     H_    0.112748 0.796743 0.288541 0.266011
H36   H     H_    0.009556 0.846622 0.289333 0.245713
H37   H     H_    0.992401 0.682432 0.292496 0.219963
H38   H     H_    0.954217 0.731137 0.398145 0.282807
H39   H     H_    0.103107 0.701779 0.469753 0.276284
H40   H     H_    0.125369 0.639317 0.365598 0.222437
C51   C     C_3   0.927323 0.502935 0.314248 -0.368622
C52   C     C_3   0.989922 0.499041 0.232539 -0.284699
C53   C     C_3   0.948350 0.528761 0.142762 -0.876160
H41   H     H_    0.891092 0.485244 0.126596 0.281216
H42   H     H_    0.929245 0.599587 0.149104 0.259790
H43   H     H_    0.994541 0.523532 0.084638 0.260617
H44   H     H_    0.047828 0.542237 0.246310 0.233904
H45   H     H_    0.009839 0.429079 0.222125 0.289541
H46   H     H_    0.881861 0.444081 0.309551 0.245510
H47   H     H_    0.889235 0.564177 0.310574 0.190894
C54   C     C_3   0.072830 0.500097 0.681517 -0.412379
C55   C     C_3   0.011329 0.506049 0.763982 -0.288338
C56   C     C_3   0.051504 0.471339 0.852498 -0.878818
H48   H     H_    0.066557 0.399476 0.844154 0.260074
H49   H     H_    0.111093 0.510866 0.869281 0.274368
H50   H     H_    0.006098 0.477988 0.911172 0.262613
H51   H     H_    0.996264 0.577178 0.776658 0.270321
H52   H     H_    0.950879 0.467182 0.749622 0.243126
H53   H     H_    0.108383 0.437294 0.684577 0.208059
H54   H     H_    0.120573 0.556922 0.686065 0.207205
S5    S     S_3+6 0.667730 0.246487 0.414728 0.014456
O21   O     O_2   0.646246 0.308640 0.337619 -0.267323
O22   O     O_2   0.706772 0.300575 0.493613 -0.363281
O23   O     O_3   0.739404 0.173934 0.374922 -0.518232
H55   H     H_    0.767430 0.151244 0.431160 0.357546
S6    S     S_3+6 0.322658 0.752715 0.459974 0.001575
O24   O     O_2   0.329403 0.688365 0.379322 -0.295984
O25   O     O_2   0.299273 0.701051 0.545691 -0.313317
O26   O     O_3   0.245293 0.824828 0.438299 -0.563964
H56   H     H_    0.255110 0.843851 0.373403 0.357514
C57   C     C_3   0.391208 0.369450 0.245809 -0.369678
C58   C     C_3   0.428351 0.276375 0.232041 -0.352205
C59   C     C_3   0.373377 0.204067 0.279827 -0.788955
H57   H     H_    0.367522 0.219539 0.355123 0.262283
H58   H     H_    0.308619 0.199653 0.248379 0.280763
H59   H     H_    0.403312 0.138070 0.271467 0.259769
H60   H     H_    0.431970 0.259426 0.156957 0.270628
H61   H     H_    0.493965 0.276176 0.260966 0.274161
H62   H     H_    0.382018 0.381610 0.319988 0.254386
H63   H     H_    0.326390 0.369891 0.214378 0.206802
C60   C     C_3   0.563532 0.663266 0.759097 -0.352103
C61   C     C_3   0.652286 0.664156 0.713115 -0.304337
C62   C     C_3   0.698774 0.755588 0.724902 -0.792151
H64   H     H_    0.657575 0.810095 0.701835 0.250968
H65   H     H_    0.716337 0.767473 0.798886 0.272925
H66   H     H_    0.757878 0.757775 0.682543 0.318870
H67   H     H_    0.692346 0.612188 0.743952 0.251915
H68   H     H_    0.646348 0.650424 0.637939 0.238955
H69   H     H_    0.513151 0.693351 0.718060 0.227791
H70   H     H_    0.567214 0.713993 0.816553 0.205265

loop_
_geom_bond_atom_site_label_1
_geom_bond_atom_site_label_2
_ccdc_geom_bond_type
C25   C31   S    
C38   H2    S    
C26   C32   S    
C47   H27   S    
C44   H20   S    
C39   H16   S    
O26   H56   S    
C15   N1    A    
C24   O8    A    
C56   H50   S    
C16   N2    A    
C42   H23   S    
C62   H64   S    
C48   H39   S    
N2    Zn1   S    
C14   H8    S    
C27   C33   S    
C17   C39   S    
C45   H33   S    
C46   H30   S    
O11   H9    S    
C1    C5    S    
C23   C29   S    
C19   C21   A    
C8    H4    S    
C8    C10   A    
S5    O23   S    
C52   H45   S    
C24   O6    A    
O20   H26   S    
O1    Zn1   S    
O8    Zn1   S    
C59   H59   S    
C11   C37   A    
C49   C50   S    
C46   C47   S    
C53   H43   S    
C43   H22   S    
C2    O2    A    
C44   H19   S    
C25   C45   S    
C54   H54   S    
C50   H34   S    
C18   C42   S    
C59   H57   S    
C31   C33   S    
C40   C41   S    
C61   H68   S    
S3    O16   D    
C57   H63   S    
C18   C20   A    
C25   C34   S    
C51   H47   S    
C59   H58   S    
C28   C34   S    
S1    O9    D    
C47   H28   S    
C58   H61   S    
C21   C22   S    
C16   C60   S    
C39   H17   S    
C2    C6    S    
C2    O4    A    
S6    O26   S    
C42   H24   S    
C62   H65   S    
C48   H40   S    
C23   O5    A    
S5    O21   D    
S1    O10   D    
C9    H5    S    
C10   H6    S    
O14   H10   S    
O2    Zn2   S    
S2    O14   S    
C4    C6    A    
C5    C7    A    
O5    Zn1   S    
C52   H44   S    
S6    O24   D    
C6    C8    A    
S4    O20   S    
C3    C5    A    
C44   H18   S    
S2    O13   D    
C43   H21   S    
C19   S3    S    
C9    C11   A    
C26   C33   S    
C60   C61   S    
C51   C52   S    
C13   C21   A    
S4    O18   D    
C50   H35   S    
O3    Zn2   S    
C61   H67   S    
S3    O17   S    
S4    O19   D    
C1    O3    A    
C26   C48   S    
C53   H41   S    
C10   C12   A    
C28   S2    S    
S6    O25   D    
C55   H51   S    
C4    C38   A    
C60   H70   S    
C47   H29   S    
C58   H60   S    
C13   C15   A    
C40   H15   S    
C14   C16   A    
C3    S5    S    
C32   C51   S    
C17   C19   A    
C56   H48   S    
C49   H38   S    
C15   C57   S    
C62   H66   S    
C52   C53   S    
C41   H12   S    
C54   C55   S    
O6    Zn2   S    
C7    C9    A    
C20   S4    S    
S1    O11   S    
C27   C32   S    
O23   H55   S    
C26   C28   S    
C28   C31   S    
C55   H52   S    
C17   N1    A    
C20   C22   A    
C43   C44   S    
C56   H49   S    
C18   N2    A    
C4    S6    S    
C41   H13   S    
C11   C12   S    
C23   O7    A    
C25   C27   S    
C45   H32   S    
C29   C35   T    
C46   H31   S    
C45   C46   S    
C30   C36   T    
C61   C62   S    
C14   C22   A    
C55   C56   S    
C41   H11   S    
C37   H1    S    
C27   S1    S    
C48   C49   S    
S2    O12   D    
N1    Zn2   S    
C13   H7    S    
S5    O22   D    
C1    O1    A    
O17   H25   S    
C33   C35   S    
C60   H69   S    
C50   H36   S    
C34   C36   S    
C7    H3    S    
C12   C38   A    
C39   C40   S    
C24   C30   S    
C53   H42   S    
O4    Zn1   S    
C42   C43   S    
C54   H53   S    
C3    C37   A    
C31   C54   S    
O7    Zn2   S    
C40   H14   S    
C58   C59   S    
S3    O15   D    
C57   C58   S    
C57   H62   S    
C49   H37   S    
C32   C34   S    
C51   H46   S    
