data_mof_unit_59241.cif
_audit_creation_date              2013-03-05T15:52:55-0500
_audit_creation_method            fapswitch 2.2
_symmetry_space_group_name_H-M    P1
_symmetry_Int_Tables_number       1
_space_group_crystal_system       triclinic
_cell_length_a                    14.9435
_cell_length_b                    10.669008
_cell_length_c                    9.946932
_cell_angle_alpha                 90.987934
_cell_angle_beta                  89.236369
_cell_angle_gamma                 92.253022
_cell_volume                      1584.27396647

loop_
_atom_site_label
_atom_site_type_symbol
_atom_site_description
_atom_site_fract_x
_atom_site_fract_y
_atom_site_fract_z
_atom_type_partial_charge
O1    O     O_R   0.500000 0.316780 0.614690 -0.656138
O2    O     O_R   0.499990 0.316750 0.385360 -0.594503
C1    C     C_R   0.510790 0.261471 0.499844 0.884191
O3    O     O_R   0.367850 0.499980 0.614680 -0.624301
O4    O     O_R   0.367840 0.499960 0.385350 -0.575163
C2    C     C_R   0.327073 0.501831 0.500337 0.927147
Zn1   Zn    Zn3+2 0.500010 0.500020 0.653130 0.977634
Zn2   Zn    Zn3+2 0.499990 0.499980 0.346870 0.975677
O5    O     O_R   0.500010 0.683250 0.614640 -0.569621
O6    O     O_R   0.500000 0.683220 0.385310 -0.628176
O7    O     O_R   0.632160 0.500040 0.614650 -0.598362
O8    O     O_R   0.632150 0.500020 0.385320 -0.630962
C3    C     C_R   0.492559 0.739599 0.501834 0.884711
C4    C     C_R   0.672903 0.499649 0.499092 0.892001
C5    C     C_R   0.815937 0.565309 0.398318 -0.246467
C6    C     C_R   0.768372 0.497669 0.496515 -0.053421
C7    C     C_R   0.811576 0.427441 0.591327 -0.245282
C8    C     C_R   0.904159 0.425058 0.589140 0.119642
C9    C     C_R   0.953043 0.496430 0.492671 0.089627
C10   C     C_R   0.908549 0.566325 0.396572 0.124220
C11   C     C_R   0.948528 0.353185 0.681833 -0.206060
C12   C     C_R   0.041501 0.353115 0.680244 -0.184289
C13   C     C_R   0.090404 0.426899 0.587755 0.122111
C14   C     C_R   0.046314 0.498992 0.493318 -0.011136
C15   C     C_R   0.095322 0.574123 0.400140 0.011892
C16   C     C_R   0.050098 0.640888 0.303143 -0.186422
C17   C     C_R   0.957159 0.636820 0.301359 -0.230210
C18   C     C_R   0.182837 0.429016 0.587376 -0.289926
C19   C     C_R   0.231357 0.506526 0.499660 -0.161579
C20   C     C_R   0.188493 0.582806 0.407725 0.431067
H1    H     H_    0.780786 0.619318 0.325619 0.155140
H2    H     H_    0.772987 0.373818 0.665332 0.150523
H3    H     H_    0.911386 0.297279 0.755268 0.151105
H4    H     H_    0.075103 0.296795 0.752266 0.141429
H5    H     H_    0.217551 0.368084 0.652684 0.157161
H6    H     H_    0.086238 0.697349 0.229287 0.197097
H7    H     H_    0.923314 0.690051 0.226787 0.159430
H8    H     H_    0.518218 0.107618 0.284958 0.185705
C21   C     C_R   0.558527 0.120177 0.745629 -0.154279
H9    H     H_    0.599483 0.206122 0.744432 0.158390
C22   C     C_R   0.541067 0.064464 0.869200 -0.174768
H10   H     H_    0.565600 0.109171 0.960802 0.150759
C23   C     C_R   0.486264 0.956417 0.875312 -0.128638
H11   H     H_    0.465008 0.921023 0.972481 0.161543
C24   C     C_R   0.456790 0.896139 0.757041 0.187838
C25   C     C_R   0.486955 0.942406 0.629682 0.058632
C26   C     C_R   0.524101 0.064727 0.625841 0.079405
C27   C     C_R   0.522828 0.128172 0.502040 -0.117558
C28   C     C_R   0.514132 0.061626 0.381225 -0.179203
H12   H     H_    0.495849 0.884756 0.287414 0.178341
C29   C     C_R   0.497952 0.934788 0.383135 -0.226811
C30   C     C_R   0.485320 0.873720 0.505987 -0.138321
H13   H     H_    0.616465 0.613850 0.126979 0.163406
C31   C     C_R   0.347967 0.390387 0.132630 0.252013
C32   C     C_R   0.271007 0.373138 0.055340 -0.150976
H14   H     H_    0.207038 0.347077 0.101844 0.170686
C33   C     C_R   0.280628 0.349890 0.919154 -0.216991
H15   H     H_    0.225045 0.307594 0.864315 0.145974
C34   C     C_R   0.363358 0.371407 0.857372 -0.101178
H16   H     H_    0.371410 0.338632 0.755929 0.200885
C35   C     C_R   0.432483 0.435813 0.926837 0.103520
C36   C     C_R   0.429345 0.439152 0.071303 0.092452
N1    N     N_R   0.499150 0.498800 0.142780 -0.125336
C37   C     C_R   0.564551 0.561897 0.072428 -0.151769
C38   C     C_R   0.563243 0.565662 0.930326 0.214133
N2    N     N_R   0.499120 0.498720 0.857170 -0.128299
I1    I     I_    0.346033 0.767000 0.785513 -0.390666
I2    I     I_    0.334419 0.235530 0.262873 -0.438904
I3    I     I_    0.659708 0.689999 0.841453 -0.356807
O9    O     O_3   0.236859 0.660766 0.320400 -0.639151
C39   C     C_3   0.271697 0.768045 0.390913 0.106077
H17   H     H_    0.329726 0.806112 0.331734 0.180505
H18   H     H_    0.297558 0.745817 0.491530 0.128085
C40   C     C_3   0.202896 0.870641 0.404309 -0.386000
H19   H     H_    0.186238 0.903720 0.302625 0.239255
H20   H     H_    0.140592 0.833005 0.453459 0.227565
C41   C     C_3   0.239286 0.981241 0.489340 -0.874724
H21   H     H_    0.245869 0.953009 0.595526 0.274203
H22   H     H_    0.192556 0.059543 0.486047 0.273001
H23   H     H_    0.305993 0.014425 0.451091 0.288217

loop_
_geom_bond_atom_site_label_1
_geom_bond_atom_site_label_2
_geom_bond_distance
_ccdc_geom_bond_type
C32   H14   1.084823 S    
C8    C11   1.399425 A    
C22   H10   1.082716 S    
C9    C10   1.411520 A    
C21   C22   1.391646 A    
H8    C28   1.083383 S    
C24   C25   1.428479 A    
Zn1   O7    2.006513 S    
C16   C17   1.388139 A    
C36   N1    1.396632 A    
C40   H20   1.110097 S    
C18   C19   1.389856 A    
O4    C2    1.288924 A    
H13   C37   1.081921 S    
C33   C34   1.386011 A    
C31   I2    2.118849 S    
C5    C6    1.394825 A    
C25   C30   1.421189 A    
C1    C27   1.441074 S    
C8    C9    1.413154 A    
O5    C3    1.290242 A    
C31   C32   1.396270 A    
C35   N2    1.366513 A    
C18   H5    1.078777 S    
C6    C7    1.395083 A    
C28   C29   1.365688 A    
C40   C41   1.526711 S    
C24   I1    2.130613 S    
C13   C14   1.410442 A    
O9    C39   1.417105 S    
C34   H16   1.069036 S    
C11   C12   1.389238 A    
C22   C23   1.389270 A    
O3    Zn1   2.016604 S    
C20   O9    1.389100 S    
C7    C8    1.384620 A    
C41   H22   1.110873 S    
C5    C10   1.383451 A    
C12   H4    1.083789 S    
C34   C35   1.401239 A    
C40   H19   1.111509 S    
C29   C30   1.401802 A    
C14   C15   1.413952 A    
O3    C2    1.298259 A    
C21   H9    1.082392 S    
C39   H18   1.110378 S    
C31   C36   1.436342 A    
C15   C16   1.404963 A    
C41   H21   1.109983 S    
O1    C1    1.287839 A    
C23   H11   1.082889 S    
C19   C20   1.411080 A    
C39   C40   1.533873 S    
C3    C30   1.439093 S    
C26   C27   1.416111 A    
Zn2   O8    2.016605 S    
H12   C29   1.083716 S    
C13   C18   1.380531 A    
C23   C24   1.398941 A    
C16   H6    1.083205 S    
C27   C28   1.390179 A    
O8    C4    1.292402 A    
C32   C33   1.379575 A    
C4    C6    1.427511 S    
C21   C26   1.415086 A    
C41   H23   1.109314 S    
C15   C20   1.394696 A    
Zn1   O5    1.998487 S    
C25   C26   1.398905 A    
O1    Zn1   1.985544 S    
O2    Zn2   1.998487 S    
O6    C3    1.302068 A    
O4    Zn2   2.006513 S    
C5    H1    1.085886 S    
C10   C17   1.397706 A    
C37   C38   1.415155 A    
O2    C1    1.306216 A    
C39   H17   1.109220 S    
Zn1   N2    2.029721 S    
C33   H15   1.079442 S    
C17   H7    1.084273 S    
C38   I3    2.115502 S    
O7    C4    1.293572 A    
C9    C14   1.393082 A    
C35   C36   1.437009 A    
Zn2   N1    2.030094 S    
N1    C37   1.358057 A    
C2    C19   1.433289 S    
C11   H3    1.084236 S    
Zn2   O6    1.985544 S    
C38   N2    1.380094 A    
C7    H2    1.085805 S    
C12   C13   1.400686 A    
