data_mof_unit_11356.cif
_audit_creation_date              2013-03-05T16:43:02-0500
_audit_creation_method            fapswitch 2.2
_symmetry_space_group_name_H-M    P1
_symmetry_Int_Tables_number       1
_space_group_crystal_system       triclinic
_cell_length_a                    10.655901
_cell_length_b                    10.711952
_cell_length_c                    9.886604
_cell_angle_alpha                 89.903759
_cell_angle_beta                  90.450864
_cell_angle_gamma                 90.340078
_cell_volume                      1128.45503462

loop_
_atom_site_label
_atom_site_type_symbol
_atom_site_description
_atom_site_fract_x
_atom_site_fract_y
_atom_site_fract_z
_atom_type_partial_charge
O1    O     O_R   0.500020 0.316790 0.614690 -0.615047
O2    O     O_R   0.500000 0.316760 0.385350 -0.585825
C1    C     C_R   0.502243 0.260131 0.500129 0.968019
O3    O     O_R   0.314800 0.500000 0.614670 -0.612465
O4    O     O_R   0.314790 0.499960 0.385330 -0.622773
C2    C     C_R   0.257572 0.499643 0.499557 0.910579
Zn1   Zn    Zn3+2 0.500010 0.500020 0.653130 0.999502
Zn2   Zn    Zn3+2 0.499990 0.499980 0.346870 1.005966
O5    O     O_R   0.500000 0.683240 0.614650 -0.604492
O6    O     O_R   0.499980 0.683210 0.385310 -0.632833
O7    O     O_R   0.685210 0.500040 0.614670 -0.643267
O8    O     O_R   0.685200 0.500000 0.385330 -0.640267
C3    C     C_R   0.504486 0.739709 0.500040 0.908501
C4    C     C_R   0.742129 0.500688 0.500232 0.862319
C5    C     C_3   0.072228 0.379600 0.570653 -0.388647
H1    H     H_    0.111319 0.372314 0.674863 0.178377
H2    H     H_    0.104469 0.296306 0.514225 0.263648
C6    C     C_3   0.927849 0.382085 0.577065 0.164646
H3    H     H_    0.901882 0.391599 0.685665 0.115603
H4    H     H_    0.108730 0.619332 0.679275 0.220047
H5    H     H_    0.895329 0.619580 0.680626 0.188758
C7    C     C_3   0.072839 0.616932 0.573294 -0.328456
C8    C     C_3   0.069542 0.498848 0.352392 -0.391450
C9    C     C_3   0.120886 0.499125 0.499262 0.026123
H6    H     H_    0.107371 0.579624 0.294113 0.186847
H7    H     H_    0.097652 0.410947 0.302033 0.230837
C10   C     C_3   0.878333 0.499687 0.500229 0.037072
C11   C     C_3   0.928619 0.617436 0.574176 -0.476162
C12   C     C_3   0.927485 0.504490 0.352415 -0.362495
H8    H     H_    0.888672 0.426984 0.289965 0.225242
H9    H     H_    0.897223 0.592910 0.302717 0.177410
H10   H     H_    0.107346 0.702191 0.520799 0.233415
H11   H     H_    0.893524 0.703534 0.523558 0.205487
C13   C     C_R   0.512035 0.062563 0.621892 0.013742
C14   C     C_R   0.517222 0.128582 0.500729 0.004280
C15   C     C_R   0.545126 0.065122 0.380569 -0.085787
H12   H     H_    0.558582 0.114262 0.285935 0.204005
C16   C     C_R   0.546823 0.935742 0.380517 -0.179499
H13   H     H_    0.559847 0.887329 0.285586 0.172916
C17   C     C_R   0.522550 0.870989 0.501155 -0.045410
C18   C     C_R   0.518698 0.935995 0.622855 -0.041062
C19   C     C_3   0.441536 0.924459 0.748995 0.095249
C20   C     C_3   0.432100 0.067418 0.746753 0.049947
H14   H     H_    0.496487 0.888453 0.836797 0.101521
H15   H     H_    0.480639 0.114317 0.832859 0.136295
C21   C     C_R   0.390106 0.505950 0.069747 0.109523
N1    N     N_R   0.499150 0.499140 0.142800 -0.097650
C22   C     C_R   0.609408 0.502987 0.072700 -0.076043
H16   H     H_    0.697886 0.503675 0.126800 0.140006
C23   C     C_R   0.609411 0.502711 0.929073 -0.103154
H17   H     H_    0.697859 0.502961 0.876297 0.145699
N2    N     N_R   0.499150 0.499180 0.857150 -0.104458
C24   C     C_R   0.390305 0.507716 0.927264 0.229281
C25   C     C_3   0.283420 0.418812 0.915887 -0.504255
C26   C     C_3   0.284326 0.413162 0.069194 0.095291
H18   H     H_    0.198332 0.464839 0.874178 0.176199
H19   H     H_    0.310191 0.331238 0.864328 0.258167
H20   H     H_    0.197102 0.450548 0.112750 0.094058
N3    N     N_R   0.322036 0.858080 0.728164 0.268377
O9    O     O_R   0.283332 0.779344 0.819233 -0.402196
O10   O     O_R   0.255988 0.873259 0.618065 -0.356647
N4    N     N_R   0.303574 0.112087 0.725137 0.247246
O11   O     O_R   0.224875 0.108159 0.825013 -0.319501
O12   O     O_R   0.263219 0.144784 0.605797 -0.382302
N5    N     N_R   0.320417 0.290644 0.122491 0.265910
O13   O     O_R   0.420522 0.234502 0.079479 -0.406549
O14   O     O_R   0.250940 0.236044 0.212810 -0.349194
N6    N     N_R   0.872462 0.265019 0.526448 0.212868
O15   O     O_R   0.803777 0.196870 0.606295 -0.395705
O16   O     O_R   0.897150 0.223958 0.405794 -0.375389

loop_
_geom_bond_atom_site_label_1
_geom_bond_atom_site_label_2
_geom_bond_distance
_ccdc_geom_bond_type
C19   N3    1.468034 S    
C21   C26   1.498377 S    
C5    C6    1.540681 S    
C23   N2    1.368922 A    
C8    C9    1.547670 S    
C5    H2    1.110714 S    
N4    O11   1.300977 A    
C4    C10   1.451478 S    
C10   C12   1.556944 S    
C6    H3    1.115848 S    
C18   C19   1.503654 S    
C7    H10   1.111792 S    
C14   C15   1.404449 A    
C1    C14   1.419096 S    
Zn2   O8    2.006933 S    
C2    C9    1.456477 S    
C7    C9    1.551455 S    
C15   C16   1.386138 A    
C23   H17   1.080850 S    
Zn2   N1    2.017544 S    
C8    H7    1.109714 S    
N3    O9    1.300486 A    
C12   H9    1.114483 S    
C7    C11   1.536933 S    
C24   C25   1.484004 S    
Zn1   O7    2.012704 S    
C20   H15   1.111769 S    
C12   H8    1.111391 S    
C13   C18   1.358086 A    
C19   H14   1.112985 S    
C15   H12   1.082849 S    
O3    Zn1   2.006935 S    
O1    Zn1   1.999833 S    
C8    C12   1.515307 S    
C21   C24   1.408790 A    
C22   C23   1.419998 A    
C17   C18   1.392192 A    
C16   C17   1.403747 A    
H5    C11   1.113564 S    
H4    C7    1.112870 S    
Zn1   N2    2.017163 S    
C13   C14   1.391341 A    
O2    C1    1.285964 A    
C8    H6    1.114004 S    
O4    C2    1.287596 A    
O7    C4    1.287912 A    
C25   H18   1.110830 S    
N3    O10   1.302051 A    
O4    Zn2   2.012706 S    
N5    O14   1.300402 A    
C11   H11   1.113769 S    
C13   C20   1.506453 S    
C6    N6    1.469684 S    
C5    H1    1.111058 S    
C16   H13   1.083333 S    
N2    C24   1.359499 A    
Zn2   O6    1.999833 S    
N5    O13   1.302292 A    
C19   C20   1.535369 S    
C26   H20   1.104979 S    
C10   C11   1.549661 S    
Zn1   O5    1.998547 S    
N6    O16   1.301411 A    
O5    C3    1.284645 A    
C25   C26   1.516747 S    
C22   H16   1.080287 S    
C3    C17   1.418296 S    
N4    O12   1.300803 A    
C26   N5    1.465763 S    
C21   N1    1.365548 A    
O3    C2    1.286925 A    
C5    C9    1.549555 S    
O6    C3    1.286979 A    
O2    Zn2   1.998547 S    
C6    C10   1.562300 S    
N1    C22   1.369139 A    
C20   N4    1.467366 S    
O8    C4    1.283616 A    
N6    O15   1.300991 A    
O1    C1    1.286330 A    
C25   H19   1.108289 S    
