data_mof_unit_33750.cif
_audit_creation_date              2012-12-11T14:04:21-0500
_audit_creation_method            fapswitch 2.2
_symmetry_space_group_name_H-M    P1
_symmetry_Int_Tables_number       1
_space_group_crystal_system       triclinic
_cell_length_a                    18.946892
_cell_length_b                    10.979744
_cell_length_c                    18.874163
_cell_angle_alpha                 89.781214
_cell_angle_beta                  89.678946
_cell_angle_gamma                 90.206221
_cell_volume                      3926.31432156

loop_
_atom_site_label
_atom_site_type_symbol
_atom_type_description
_atom_site_fract_x
_atom_site_fract_y
_atom_site_fract_z
_atom_type_partial_charge
C1    C     C_R   0.223517 0.525755 0.640197 0.568830
C2    C     C_R   0.014027 0.658361 0.571384 -0.016278
C3    C     C_R   0.501988 0.158515 0.427105 -0.025961
C4    C     C_R   0.491368 0.167753 0.576564 -0.028718
C5    C     C_R   0.009738 0.883499 0.428032 -0.072948
C6    C     C_R   0.986090 0.881377 0.573491 -0.067380
C7    C     C_R   0.528008 0.377225 0.424413 -0.032477
C8    C     C_R   0.498264 0.393100 0.569006 -0.013258
C9    C     C_R   0.005195 0.992806 0.464914 -0.077109
C10   C     C_R   0.988600 0.991589 0.536852 -0.078021
C11   C     C_R   0.533656 0.488420 0.458807 -0.050489
C12   C     C_R   0.760126 0.467946 0.353635 0.532778
C13   C     C_R   0.516680 0.497239 0.530467 -0.031638
C14   C     C_R   0.998534 0.770525 0.537578 -0.006751
C15   C     C_R   0.998540 0.771277 0.463583 -0.008197
C16   C     C_R   0.498741 0.277267 0.536629 0.051650
C17   C     C_R   0.508305 0.271189 0.462033 0.044739
C18   C     C_R   0.016081 0.548328 0.531587 0.001095
C19   C     C_R   0.979773 0.549704 0.469789 0.006487
C20   C     C_R   0.479269 0.057918 0.540257 0.002205
C21   C     C_R   0.498321 0.050257 0.468481 0.004823
C22   C     C_R   0.047820 0.435319 0.550874 -0.074445
C23   C     C_R   0.728207 0.009227 0.637698 0.547704
C24   C     C_R   0.945053 0.439897 0.450745 -0.062740
C25   C     C_R   0.455604 0.951785 0.575865 -0.073623
C26   C     C_R   0.511461 0.933397 0.440084 -0.062022
C27   C     C_R   0.024318 0.326082 0.522472 -0.080212
C28   C     C_R   0.967800 0.328179 0.476500 -0.077693
C29   C     C_R   0.463837 0.837899 0.545112 -0.098916
C30   C     C_R   0.493500 0.828730 0.477941 -0.096274
C31   C     C_2   0.239263 0.897211 0.928377 -0.101341
C32   C     C_2   0.743010 0.935678 0.085541 -0.102717
C33   C     C_2   0.739250 0.397175 0.928390 -0.102191
C34   C     C_R   0.260363 0.967665 0.353480 0.568217
C35   C     C_2   0.243015 0.435669 0.085535 -0.102161
C36   C     C_2   0.248259 0.898996 0.084583 -0.103460
C37   C     C_2   0.729560 0.983616 0.932878 -0.110118
C38   C     C_2   0.748251 0.398967 0.084596 -0.104503
C39   C     C_2   0.229564 0.483609 0.932874 -0.109890
C40   C     C_R   0.227348 0.874204 0.647491 0.583866
C41   C     C_R   0.771516 0.877634 0.350585 0.597237
C42   C     C_R   0.706744 0.322893 0.642164 0.609722
C43   C     C_R   0.272011 0.377356 0.350509 0.611955
C44   C     C_2   0.189309 0.920329 0.048362 -0.157413
C45   C     C_2   0.288436 0.843686 0.535642 0.315702
C46   C     C_2   0.764188 0.057042 0.977547 -0.158477
C47   C     C_2   0.689297 0.420282 0.048377 -0.157350
C48   C     C_2   0.264193 0.557033 0.977542 -0.158653
C49   C     C_2   0.183678 0.895271 0.973109 -0.156889
C50   C     C_2   0.780098 0.021181 0.050628 -0.147943
C51   C     C_2   0.683665 0.395226 0.973122 -0.158456
C52   C     C_2   0.280106 0.521168 0.050621 -0.148306
C53   C     C_2   0.043160 0.656037 0.932742 -0.107846
C54   C     C_2   0.015884 0.663415 0.086424 -0.105800
C55   C     C_2   0.543148 0.156034 0.932742 -0.107729
C56   C     C_2   0.694182 0.888134 0.454376 0.327829
C57   C     C_2   0.515889 0.163415 0.086428 -0.105529
C58   C     C_2   0.035984 0.563055 0.051312 -0.149203
C59   C     C_2   0.058569 0.564488 0.976937 -0.165106
C60   C     C_2   0.535986 0.063055 0.051315 -0.149542
C61   C     C_2   0.558565 0.064489 0.976937 -0.165391
C62   C     C_R   0.033883 0.653836 0.644053 0.548155
C63   C     C_R   0.965472 0.653993 0.356341 0.543726
C64   C     C_R   0.526582 0.156061 0.646654 0.537743
C65   C     C_R   0.472198 0.154192 0.354355 0.527065
C66   C     C_R   0.224634 0.516647 0.858647 0.546674
C67   C     C_2   0.769836 0.294210 0.527888 0.383593
C68   C     C_R   0.760730 0.463804 0.150200 0.557050
C69   C     C_R   0.724634 0.016650 0.858648 0.546068
C70   C     C_R   0.260733 0.963814 0.150195 0.552406
C71   C     C_R   0.225796 0.869741 0.854662 0.540516
C72   C     C_R   0.771562 0.876278 0.148241 0.552143
C73   C     C_R   0.725788 0.369722 0.854670 0.549289
C74   C     C_R   0.271566 0.376270 0.148236 0.550164
C75   C     C_R   0.061543 0.647864 0.858233 0.547278
C76   C     C_R   0.972754 0.652699 0.150348 0.557426
C77   C     C_R   0.561537 0.147864 0.858234 0.546310
C78   C     C_2   0.219856 0.358677 0.466402 0.341914
C79   C     C_R   0.472757 0.152699 0.150350 0.553189
C80   C     C_2   0.250314 0.917373 0.578154 0.349579
C81   C     C_2   0.743514 0.939816 0.412350 0.353439
C82   C     C_2   0.711187 0.324545 0.564917 0.335331
C83   C     C_2   0.250347 0.429883 0.416821 0.355982
C84   C     C_2   0.245926 0.909053 0.420868 -0.068152
C85   C     C_2   0.738296 0.962573 0.566808 -0.081073
C86   C     C_2   0.744517 0.417495 0.423051 -0.134600
C87   C     C_2   0.225037 0.503011 0.565337 -0.089619
C88   C     C_2   0.299444 0.872158 0.461172 -0.035465
C89   C     C_R   0.983608 0.659289 0.429613 -0.014745
C90   C     C_2   0.682971 0.932343 0.526524 -0.089441
C91   C     C_2   0.777250 0.321574 0.451472 -0.067532
C92   C     C_2   0.222806 0.388732 0.541451 -0.099275
Cr1   Cr    Cr6+3 0.113970 0.508630 0.747920 1.023904
Cr2   Cr    Cr6+3 0.887700 0.820070 0.250200 1.027252
Cr3   Cr    Cr6+3 0.612300 0.320070 0.749800 1.025495
Cr4   Cr    Cr6+3 0.387700 0.320070 0.250200 1.038597
Cr5   Cr    Cr6+3 0.886030 0.508630 0.252080 1.017338
Cr6   Cr    Cr6+3 0.613970 0.008630 0.747920 1.021334
Cr7   Cr    Cr6+3 0.386030 0.008630 0.252080 1.029841
Cr8   Cr    Cr6+3 0.269200 0.666740 0.749850 1.046011
Cr9   Cr    Cr6+3 0.730800 0.666740 0.250150 1.055624
Cr10  Cr    Cr6+3 0.769200 0.166740 0.749850 1.067187
Cr11  Cr    Cr6+3 0.230800 0.166740 0.250150 1.061397
Cr12  Cr    Cr6+3 0.112300 0.820070 0.749800 1.025714
F1    F     F_    0.316747 0.737872 0.559692 -0.650749
F2    F     F_    0.658419 0.786350 0.434354 -0.667100
F3    F     F_    0.826954 0.245847 0.560878 -0.640222
F4    F     F_    0.197090 0.244331 0.450301 -0.606466
F5    F     F_    0.224440 0.025200 0.553829 -0.637514
F6    F     F_    0.775068 0.046324 0.431128 -0.687019
F7    F     F_    0.650633 0.351911 0.530737 -0.701557
F8    F     F_    0.281226 0.538314 0.433048 -0.660245
H1    H     H_    0.352456 0.864243 0.439796 0.160167
H2    H     H_    0.706288 0.897904 0.949872 0.107832
H3    H     H_    0.791328 0.347056 0.061620 0.100203
H4    H     H_    0.206294 0.397894 0.949867 0.107622
H5    H     H_    0.293165 0.908307 0.946446 0.100537
H6    H     H_    0.693442 0.901244 0.065019 0.098815
H7    H     H_    0.793152 0.408270 0.946462 0.102072
H8    H     H_    0.193446 0.401238 0.065013 0.099071
H9    H     H_    0.030180 0.473634 0.075530 0.153459
H10   H     H_    0.082488 0.482040 0.956399 0.136004
H11   H     H_    0.530184 0.973635 0.075534 0.153086
H12   H     H_    0.629702 0.932602 0.548084 0.155942
H13   H     H_    0.582487 0.982045 0.956399 0.135916
H14   H     H_    0.024830 0.753954 0.064952 0.096288
H15   H     H_    0.017424 0.738388 0.950820 0.109301
H16   H     H_    0.524834 0.253954 0.064955 0.096518
H17   H     H_    0.517407 0.238380 0.950819 0.108898
H18   H     H_    0.192471 0.912466 0.442090 0.151177
H19   H     H_    0.791982 0.956434 0.546497 0.178719
H20   H     H_    0.708887 0.472755 0.454309 0.199952
H21   H     H_    0.219641 0.581512 0.531084 0.185679
H22   H     H_    0.012692 0.077920 0.436950 0.124151
H23   H     H_    0.816488 0.272628 0.420774 0.180073
H24   H     H_    0.979471 0.075585 0.565005 0.140831
H25   H     H_    0.552265 0.566917 0.429488 0.139631
H26   H     H_    0.520057 0.584092 0.556918 0.109571
H27   H     H_    0.022727 0.888807 0.372344 0.136399
H28   H     H_    0.973273 0.884612 0.629269 0.148605
H29   H     H_    0.542867 0.373659 0.369006 0.119225
H30   H     H_    0.483925 0.404199 0.624130 0.129444
H31   H     H_    0.901144 0.438974 0.416044 0.164032
H32   H     H_    0.090077 0.427779 0.587607 0.164380
H33   H     H_    0.536203 0.922016 0.388727 0.168267
H34   H     H_    0.221517 0.312873 0.578664 0.196790
H35   H     H_    0.433352 0.956585 0.628785 0.143700
H36   H     H_    0.047916 0.241202 0.538863 0.145640
H37   H     H_    0.943173 0.244827 0.458887 0.140846
H38   H     H_    0.448447 0.756902 0.574090 0.176557
H39   H     H_    0.500654 0.740945 0.454080 0.140845
H40   H     H_    0.144679 0.965957 0.072900 0.153365
H41   H     H_    0.788366 0.140530 0.957812 0.141078
H42   H     H_    0.644666 0.465905 0.072917 0.153301
H43   H     H_    0.288370 0.640523 0.957808 0.141463
H44   H     H_    0.130382 0.883132 0.953285 0.147973
H45   H     H_    0.827303 0.060363 0.073851 0.152608
H46   H     H_    0.630370 0.383089 0.953295 0.147547
H47   H     H_    0.327313 0.560345 0.073843 0.152521
H48   H     H_    0.291336 0.847082 0.061608 0.100244
O1    O     O_R   0.043230 0.549300 0.667990 -0.523965
O2    O     O_R   0.832470 0.905110 0.169660 -0.516055
O3    O     O_R   0.667530 0.405110 0.830340 -0.511909
O4    O     O_R   0.332470 0.405110 0.169660 -0.517349
O5    O     O_R   0.054010 0.748440 0.822860 -0.492847
O6    O     O_R   0.945990 0.748440 0.177140 -0.498319
O7    O     O_R   0.554010 0.248440 0.822860 -0.498352
O8    O     O_R   0.445990 0.248440 0.177140 -0.500489
O9    O     O_3   0.165160 0.665150 0.749190 -0.329583
O10   O     O_3   0.834840 0.665150 0.250810 -0.256663
O11   O     O_3   0.665160 0.165150 0.749190 -0.345069
O12   O     O_R   0.956770 0.549300 0.332010 -0.530791
O13   O     O_3   0.334840 0.165150 0.250810 -0.254172
O14   O     O_R   0.178620 0.457600 0.674100 -0.527050
O15   O     O_R   0.821380 0.457600 0.325900 -0.526099
O16   O     O_R   0.678620 0.957600 0.674100 -0.489753
O17   O     O_R   0.321380 0.957600 0.325900 -0.504869
O18   O     O_R   0.284680 0.542100 0.669460 -0.437240
O19   O     O_R   0.715320 0.542100 0.330540 -0.479664
O20   O     O_R   0.784680 0.042100 0.669460 -0.469259
O21   O     O_R   0.215320 0.042100 0.330540 -0.468517
O22   O     O_R   0.262860 0.790390 0.676650 -0.489754
O23   O     O_R   0.543230 0.049300 0.667990 -0.524184
O24   O     O_R   0.737140 0.790390 0.323350 -0.470395
O25   O     O_R   0.762860 0.290390 0.676650 -0.463399
O26   O     O_R   0.237140 0.290390 0.323350 -0.473318
O27   O     O_R   0.167460 0.907030 0.670940 -0.483145
O28   O     O_R   0.832540 0.907030 0.329060 -0.490637
O29   O     O_R   0.667460 0.407030 0.670940 -0.480021
O30   O     O_R   0.332540 0.407030 0.329060 -0.481278
O31   O     O_R   0.053950 0.750220 0.675100 -0.510434
O32   O     O_R   0.946050 0.750220 0.324900 -0.515835
O33   O     O_R   0.553950 0.250220 0.675100 -0.507230
O34   O     O_R   0.456770 0.049300 0.332010 -0.527297
O35   O     O_R   0.446050 0.250220 0.324900 -0.504564
O36   O     O_R   0.043300 0.547370 0.827390 -0.491885
O37   O     O_R   0.956700 0.547370 0.172610 -0.511343
O38   O     O_R   0.543300 0.047370 0.827390 -0.500489
O39   O     O_R   0.456700 0.047370 0.172610 -0.515010
O40   O     O_R   0.178690 0.455820 0.821860 -0.499155
O41   O     O_R   0.821310 0.455820 0.178140 -0.495980
O42   O     O_R   0.678690 0.955820 0.821860 -0.499262
O43   O     O_R   0.321310 0.955820 0.178140 -0.499266
O44   O     O_R   0.284750 0.540170 0.828860 -0.488914
O45   O     O_R   0.262920 0.788600 0.824420 -0.522600
O46   O     O_R   0.715250 0.540170 0.171140 -0.516537
O47   O     O_R   0.784750 0.040170 0.828860 -0.486947
O48   O     O_R   0.215250 0.040170 0.171140 -0.520699
O49   O     O_R   0.737080 0.788600 0.175580 -0.503439
O50   O     O_R   0.762920 0.288600 0.824420 -0.515031
O51   O     O_R   0.237080 0.288600 0.175580 -0.506265
O52   O     O_R   0.167530 0.905110 0.830340 -0.511655

loop_
_geom_bond_atom_site_label_1
_geom_bond_atom_site_label_2
_ccdc_geom_bond_type
C44   C49   S    
C1    C87   S    
C21   C26   A    
C35   C74   S    
C3    C17   A    
C8    C13   A    
Cr5   O15   S    
C37   C69   S    
C2    C18   A    
C43   C83   S    
C87   H21   S    
C49   H44   S    
C42   C82   S    
Cr8   O18   S    
C81   F6    S    
Cr2   O6    S    
C57   H16   S    
C53   C59   D    
C56   C81   D    
C32   C72   S    
C40   O27   A    
C3    C65   S    
C85   H19   S    
C7    C11   A    
C54   H14   S    
Cr7   O34   S    
Cr1   O9    S    
C44   H40   S    
Cr5   O12   S    
Cr9   O19   S    
C10   H24   S    
Cr7   O17   S    
C48   C52   S    
C76   O37   A    
C54   C58   D    
C55   C77   S    
C62   O1    A    
C15   C89   A    
C20   C25   A    
C65   O34   A    
C24   H31   S    
C70   O48   A    
C63   O32   A    
Cr1   O14   S    
Cr11  O13   S    
Cr10  O20   S    
C34   O21   A    
C78   F4    S    
C18   C19   A    
Cr4   O30   S    
C88   H1    S    
C46   H41   S    
C57   C79   S    
C31   H5    S    
C53   H15   S    
C22   H32   S    
C29   H38   S    
C64   O23   A    
C78   C83   D    
Cr4   O35   S    
C43   O30   A    
C36   C70   S    
C27   H36   S    
C7    C17   A    
C80   F5    S    
Cr4   O8    S    
C41   O24   A    
C76   O6    A    
C79   O8    A    
Cr8   O22   S    
Cr10  O47   S    
Cr2   O2    S    
C66   O44   A    
C9    H22   S    
C52   H47   S    
C56   C90   S    
Cr12  O5    S    
C28   H37   S    
Cr3   O33   S    
C18   C22   A    
C87   C92   D    
C68   O41   A    
C35   H8    S    
C53   C75   S    
Cr11  O26   S    
C34   C84   S    
C31   C49   D    
Cr8   O44   S    
C67   C91   S    
C45   F1    S    
C5    H27   S    
C40   O22   A    
C50   H45   S    
C25   C29   A    
C1    O14   A    
C69   O47   A    
Cr10  O25   S    
C79   O39   A    
Cr4   O13   S    
Cr6   O38   S    
C92   H34   S    
Cr5   O37   S    
C73   O50   A    
C45   C88   S    
Cr11  O48   S    
C25   H35   S    
Cr11  O51   S    
C36   H48   S    
C16   C17   A    
C57   C60   D    
C47   C51   S    
C23   O16   A    
C43   O26   A    
Cr9   O49   S    
C58   C59   S    
Cr12  O31   S    
Cr5   O10   S    
Cr4   O4    S    
C41   O28   A    
C60   C61   S    
C4    C16   A    
C60   H11   S    
C83   F8    S    
C5    C9    A    
C29   C30   A    
C19   C89   A    
Cr3   O3    S    
C6    C14   A    
Cr6   O16   S    
C1    O18   A    
C72   O49   A    
Cr7   O13   S    
Cr1   O1    S    
C85   C90   D    
C41   C81   S    
C64   O33   A    
C63   C89   S    
C40   C80   S    
C23   O20   A    
C75   O36   A    
Cr9   O10   S    
C75   O5    A    
Cr10  O11   S    
C56   F2    S    
C38   C47   D    
Cr9   O24   S    
C12   O15   A    
C54   C76   S    
Cr6   O11   S    
Cr2   O28   S    
C42   O25   A    
C33   C73   S    
C48   H43   S    
C38   C68   S    
C26   C30   A    
C22   C27   A    
C68   O46   A    
C39   C66   S    
C36   C44   D    
Cr1   O36   S    
C77   O7    A    
Cr12  O52   S    
C69   O42   A    
Cr1   O40   S    
C7    H29   S    
C24   C28   A    
Cr6   O23   S    
C9    C10   A    
C70   O43   A    
Cr12  O27   S    
C46   C50   S    
C35   C52   D    
C58   H9    S    
Cr7   O43   S    
Cr8   O9    S    
Cr11  O21   S    
C90   H12   S    
Cr6   O42   S    
Cr10  O50   S    
C84   C88   D    
C77   O38   A    
C32   H6    S    
C39   C48   D    
Cr3   O7    S    
C6    C10   A    
C61   H13   S    
Cr8   O45   S    
C33   H7    S    
C62   O31   A    
C37   H2    S    
C47   H42   S    
Cr5   O41   S    
C33   C51   D    
Cr2   O10   S    
C4    C64   S    
C51   H46   S    
C86   H20   S    
C12   C86   S    
C74   O51   A    
C86   C91   D    
C78   C92   S    
C82   F7    S    
C55   H17   S    
C19   C24   A    
C11   H25   S    
C73   O3    A    
C13   H26   S    
C74   O4    A    
C38   H3    S    
C11   C13   A    
C42   O29   A    
C67   F3    S    
C63   O12   A    
C59   H10   S    
C55   C61   D    
C84   H18   S    
C32   C50   D    
C45   C80   D    
C6    H28   S    
C2    C14   A    
Cr2   O32   S    
C26   H33   S    
C5    C15   A    
C3    C21   A    
Cr9   O46   S    
Cr3   O29   S    
C30   H39   S    
C4    C20   A    
C71   O45   A    
C12   O19   A    
C91   H23   S    
C20   C21   A    
C67   C82   D    
C8    C16   A    
C71   O52   A    
C23   C85   S    
Cr7   O39   S    
C27   C28   A    
C39   H4    S    
C72   O2    A    
C14   C15   A    
Cr12  O9    S    
C34   O17   A    
C8    H30   S    
C37   C46   D    
Cr3   O11   S    
C66   O40   A    
C2    C62   S    
C31   C71   S    
C65   O35   A    
