data_mof_unit_11523.cif
_audit_creation_date              2012-12-10T19:11:27-0500
_audit_creation_method            fapswitch 2.2
_symmetry_space_group_name_H-M    P1
_symmetry_Int_Tables_number       1
_space_group_crystal_system       triclinic
_cell_length_a                    10.629598
_cell_length_b                    9.74257
_cell_length_c                    10.488418
_cell_angle_alpha                 90.348435
_cell_angle_beta                  90.646528
_cell_angle_gamma                 89.771456
_cell_volume                      1086.07881892

loop_
_atom_site_label
_atom_site_type_symbol
_atom_type_description
_atom_site_fract_x
_atom_site_fract_y
_atom_site_fract_z
_atom_type_partial_charge
C1    C     C_R   0.258105 0.500270 0.494781 0.851053
C2    C     C_3   0.500264 0.498618 0.122197 0.019375
C3    C     C_3   0.073720 0.477792 0.631235 -0.169550
C4    C     C_3   0.071012 0.381294 0.405632 -0.146362
C5    C     C_3   0.928914 0.480533 0.630674 -0.430139
C6    C     C_3   0.926337 0.382456 0.405825 -0.437783
C7    C     C_3   0.070281 0.640085 0.440933 -0.396108
C8    C     C_3   0.121471 0.500812 0.492675 0.086669
C9    C     C_3   0.878576 0.500308 0.493029 0.141230
C10   C     C_3   0.926919 0.638977 0.440154 -0.401041
C11   C     C_3   0.374914 0.081411 0.459488 -0.273543
C12   C     C_3   0.374930 0.919171 0.459448 -0.274189
C13   C     C_3   0.591953 0.079989 0.405545 -0.250525
C14   C     C_3   0.592089 0.918141 0.405670 -0.250777
C15   C     C_3   0.530122 0.082107 0.626301 -0.070713
C16   C     C_3   0.529973 0.918641 0.626298 -0.076911
C17   C     C_R   0.499959 0.499526 0.257210 0.869881
C18   C     C_R   0.742276 0.499966 0.495709 0.858857
C19   C     C_R   0.500658 0.500530 0.742634 0.892899
C20   C     C_3   0.397488 0.566402 0.041264 -0.144544
C21   C     C_3   0.499464 0.369068 0.039192 -0.147451
C22   C     C_3   0.396639 0.436973 0.955584 -0.147734
C23   C     C_3   0.500927 0.501740 0.877578 0.015720
C24   C     C_3   0.501787 0.631340 0.960527 -0.138902
C25   C     C_3   0.603790 0.434096 0.958475 -0.181591
C26   C     C_3   0.604587 0.563478 0.044205 -0.188173
H1    H     H_    0.312144 0.385858 0.914432 0.139863
H2    H     H_    0.893221 0.726572 0.499489 0.194963
H3    H     H_    0.890860 0.654790 0.341199 0.161156
H4    H     H_    0.347437 0.119520 0.363284 0.161620
H5    H     H_    0.347535 0.880108 0.363208 0.156011
H6    H     H_    0.301561 0.119486 0.525859 0.148082
H7    H     H_    0.301579 0.882511 0.525753 0.153856
H8    H     H_    0.569790 0.117136 0.307732 0.150051
H9    H     H_    0.570209 0.879790 0.307841 0.154773
H10   H     H_    0.455848 0.116860 0.693337 0.104471
H11   H     H_    0.455335 0.885595 0.693011 0.106382
H12   H     H_    0.688115 0.117974 0.428154 0.150795
H13   H     H_    0.688297 0.879897 0.428506 0.149402
H14   H     H_    0.313772 0.620303 0.079809 0.144225
H15   H     H_    0.498443 0.262186 0.075327 0.135228
H16   H     H_    0.502720 0.738206 0.924360 0.137989
H17   H     H_    0.687912 0.380941 0.920072 0.149898
H18   H     H_    0.689068 0.614656 0.085316 0.131112
H19   H     H_    0.105919 0.374946 0.664376 0.122696
H20   H     H_    0.103234 0.281170 0.445226 0.129496
H21   H     H_    0.894317 0.382266 0.669836 0.180439
H22   H     H_    0.893188 0.281463 0.441255 0.172265
H23   H     H_    0.891565 0.563863 0.693153 0.186046
H24   H     H_    0.886012 0.395175 0.307962 0.164215
H25   H     H_    0.103377 0.727265 0.501456 0.184448
H26   H     H_    0.104904 0.658842 0.342837 0.169688
N1    N     N_3   0.499750 0.138610 0.497240 -0.054241
N2    N     N_3   0.499750 0.861390 0.497240 -0.053145
O1    O     O_R   0.314910 0.616040 0.499970 -0.629128
O2    O     O_R   0.314910 0.383960 0.499970 -0.643862
O3    O     O_R   0.500080 0.616020 0.313900 -0.635799
O4    O     O_R   0.500080 0.383980 0.313900 -0.630867
O5    O     O_R   0.685320 0.616040 0.499930 -0.627686
O6    O     O_R   0.685320 0.383960 0.499930 -0.624595
O7    O     O_R   0.500150 0.616060 0.686000 -0.622895
O8    O     O_R   0.500150 0.383940 0.686000 -0.629703
Zn1   Zn    Zn3+2 0.500150 0.654960 0.499940 0.919165
Zn2   Zn    Zn3+2 0.500150 0.345040 0.499940 0.915815
C27   C     C_1   0.648106 0.141304 0.678215 0.217878
N3    N     N_1   0.740490 0.186068 0.719922 -0.257763
C28   C     C_1   0.647505 0.857378 0.678255 0.207999
N4    N     N_1   0.739219 0.810125 0.719601 -0.237261
C29   C     C_1   0.124421 0.579385 0.723754 0.160404
N5    N     N_1   0.164266 0.658751 0.795981 -0.225339
C30   C     C_1   0.118460 0.388038 0.273791 0.140337
N6    N     N_1   0.155465 0.392987 0.170614 -0.238135

loop_
_geom_bond_atom_site_label_1
_geom_bond_atom_site_label_2
_ccdc_geom_bond_type
C7    C10   S    
C1    C8    S    
C24   H16   S    
C4    C8    S    
C25   H17   S    
C6    C9    S    
C26   H18   S    
C7    C8    S    
C4    H20   S    
C5    H21   S    
C6    H22   S    
C15   N1    S    
C3    C29   S    
C1    O2    A    
C24   C26   S    
C7    H26   S    
C20   H14   S    
N1    Zn2   S    
N2    Zn1   S    
C19   O8    A    
C15   C16   S    
C15   C27   S    
O7    Zn1   S    
O8    Zn2   S    
C14   H13   S    
C20   C24   S    
C11   H4    S    
O1    Zn1   S    
C23   C24   S    
O2    Zn2   S    
C9    C10   S    
C11   N1    S    
C16   H11   S    
C21   C22   S    
C2    C17   S    
C5    H23   S    
O3    Zn1   S    
C13   N1    S    
O4    Zn2   S    
C2    C20   S    
C28   N4    T    
C4    C6    S    
C3    C8    S    
C14   H9    S    
C25   C26   S    
C3    H19   S    
C19   C23   S    
C5    C9    S    
C18   O5    A    
C2    C21   S    
C2    C26   S    
C16   C28   S    
C6    H24   S    
C13   H12   S    
C21   H15   S    
C18   O6    A    
C14   N2    S    
C20   C22   S    
C11   H6    S    
C22   H1    S    
C12   H5    S    
C15   H10   S    
C10   H2    S    
C21   C25   S    
C3    C5    S    
C11   C12   S    
C17   O4    A    
O5    Zn1   S    
O6    Zn2   S    
C1    O1    A    
C7    H25   S    
C30   N6    T    
C10   H3    S    
C19   O7    A    
C23   C25   S    
C29   N5    T    
C16   N2    S    
C9    C18   S    
C13   H8    S    
C27   N3    T    
C22   C23   S    
C12   H7    S    
C13   C14   S    
C4    C30   S    
C12   N2    S    
C17   O3    A    
