data_mof_unit_47442.cif
_audit_creation_date              2013-03-05T15:41:01-0500
_audit_creation_method            fapswitch 2.2
_symmetry_space_group_name_H-M    P1
_symmetry_Int_Tables_number       1
_space_group_crystal_system       triclinic
_cell_length_a                    28.166318
_cell_length_b                    7.18995
_cell_length_c                    17.346833
_cell_angle_alpha                 90.00082
_cell_angle_beta                  101.62716
_cell_angle_gamma                 90.000498
_cell_volume                      3440.89673867

loop_
_atom_site_label
_atom_site_type_symbol
_atom_site_description
_atom_site_fract_x
_atom_site_fract_y
_atom_site_fract_z
_atom_type_partial_charge
O1    O     O_R   0.000700 0.436510 0.857920 -0.531432
O2    O     O_R   0.999300 0.563490 0.142080 -0.530784
O3    O     O_R   0.999300 0.936510 0.642080 -0.531378
O4    O     O_R   0.000700 0.063490 0.357920 -0.530764
O5    O     O_R   0.930080 0.766380 0.721890 -0.516790
O6    O     O_R   0.069920 0.233620 0.278110 -0.518109
O7    O     O_R   0.069920 0.266380 0.778110 -0.516649
O8    O     O_R   0.930080 0.733620 0.221890 -0.518070
C1    C     C_R   0.910633 0.598099 0.708017 0.885851
C2    C     C_R   0.089297 0.401846 0.292555 0.885727
C3    C     C_R   0.089370 0.098089 0.791964 0.885881
C4    C     C_R   0.910703 0.901830 0.207428 0.885774
O9    O     O_R   0.996180 0.766230 0.862310 -0.507666
O10   O     O_R   0.003820 0.233770 0.137690 -0.507815
O11   O     O_R   0.003820 0.266230 0.637690 -0.507678
O12   O     O_R   0.996180 0.733770 0.362310 -0.507808
O13   O     O_R   0.065870 0.936460 0.783500 -0.559506
O14   O     O_R   0.934130 0.063540 0.216500 -0.559604
O15   O     O_R   0.934130 0.436460 0.716500 -0.559446
O16   O     O_R   0.065870 0.563540 0.283500 -0.559656
C5    C     C_R   0.998476 0.596072 0.894245 0.823254
C6    C     C_R   0.001531 0.403931 0.105757 0.825345
C7    C     C_R   0.001525 0.096071 0.605755 0.823350
C8    C     C_R   0.998469 0.903931 0.394243 0.825317
O17   O     O_3   0.022790 0.603020 0.723980 -0.252389
O18   O     O_3   0.977210 0.396980 0.276020 -0.252872
O19   O     O_3   0.977210 0.103020 0.776020 -0.252455
O20   O     O_3   0.022790 0.896980 0.223980 -0.252987
V1    V     V_3+5 0.995770 0.877900 0.754830 1.333056
V2    V     V_3+5 0.004230 0.122100 0.245170 1.332223
V3    V     V_3+5 0.004230 0.377900 0.745170 1.333114
V4    V     V_3+5 0.995770 0.622100 0.254830 1.332235
C9    C     C_2   0.002313 0.083051 0.520456 0.097930
C10   C     C_2   0.997666 0.916961 0.479536 0.097536
C11   C     C_2   0.997679 0.583048 0.979542 0.097864
C12   C     C_2   0.002348 0.416967 0.020468 0.097458
C13   C     C_R   0.684242 0.974030 0.024280 0.589339
C14   C     C_R   0.316561 0.036049 0.968996 0.585141
C15   C     C_R   0.315724 0.475759 0.475614 0.589368
C16   C     C_R   0.683451 0.535979 0.530974 0.585174
O21   O     O_2   0.714004 0.982993 0.972365 -0.499207
O22   O     O_2   0.287068 0.042639 0.021391 -0.499475
O23   O     O_2   0.285948 0.485315 0.527490 -0.499184
O24   O     O_2   0.712964 0.541386 0.478590 -0.499476
N1    N     N_R   0.703421 0.956020 0.102804 -0.457121
N2    N     N_R   0.297133 0.039860 0.890177 -0.456220
N3    N     N_R   0.296564 0.456809 0.397126 -0.457126
N4    N     N_R   0.702863 0.540712 0.609786 -0.456255
C17   C     C_R   0.674193 0.948762 0.156991 0.605233
C18   C     C_R   0.326148 0.029975 0.835671 0.604807
C19   C     C_R   0.325804 0.448971 0.342970 0.605263
C20   C     C_R   0.673829 0.532122 0.664293 0.604786
C21   C     C_R   0.781750 0.085179 0.172057 0.024336
C22   C     C_R   0.217962 0.911414 0.823970 0.025034
C23   C     C_R   0.218214 0.585483 0.327764 0.024410
C24   C     C_R   0.781980 0.412048 0.676129 0.024794
C25   C     C_R   0.832015 0.070498 0.197154 -0.121524
C26   C     C_R   0.167595 0.926818 0.800805 -0.120339
C27   C     C_R   0.167955 0.570603 0.302674 -0.121524
C28   C     C_R   0.832356 0.427210 0.699279 -0.120529
C29   C     C_R   0.830182 0.766176 0.135599 0.356624
C30   C     C_R   0.170912 0.235450 0.858788 0.356477
C31   C     C_R   0.169848 0.266498 0.364424 0.356623
C32   C     C_R   0.829153 0.735487 0.640986 0.356472
C33   C     C_R   0.779822 0.782585 0.110831 -0.014757
C34   C     C_R   0.221388 0.218618 0.881326 -0.012822
C35   C     C_R   0.220206 0.283121 0.389203 -0.014817
C36   C     C_R   0.778674 0.718879 0.618446 -0.012911
C37   C     C_R   0.755331 0.941293 0.128820 0.198799
C38   C     C_R   0.245219 0.057138 0.864388 0.196552
C39   C     C_R   0.244661 0.441830 0.371112 0.198937
C40   C     C_R   0.754782 0.557718 0.635558 0.196747
C41   C     C_R   0.602642 0.976165 0.051438 -0.125209
C42   C     C_R   0.397876 0.014603 0.941464 -0.124917
C43   C     C_R   0.397336 0.477584 0.448492 -0.125116
C44   C     C_R   0.602109 0.516092 0.558501 -0.124925
C45   C     C_R   0.633797 0.984129 0.997237 -0.036849
C46   C     C_R   0.366953 0.024372 0.995947 -0.040883
C47   C     C_R   0.366166 0.486199 0.502655 -0.037035
C48   C     C_R   0.633055 0.524582 0.504022 -0.040828
C49   C     C_R   0.614157 0.003363 0.917013 0.045611
C50   C     C_R   0.386777 0.023754 0.076488 0.038071
C51   C     C_R   0.385787 0.506417 0.582838 0.045295
C52   C     C_R   0.613252 0.522968 0.423480 0.038257
C53   C     C_R   0.622927 0.958999 0.132841 -0.087653
C54   C     C_R   0.377378 0.015542 0.859811 -0.088130
C55   C     C_R   0.377065 0.459560 0.367119 -0.087611
C56   C     C_R   0.622590 0.518108 0.640158 -0.088211
C57   C     C_R   0.857089 0.911077 0.179942 -0.140179
C58   C     C_R   0.143152 0.088454 0.817449 -0.141683
C59   C     C_R   0.142913 0.411198 0.319995 -0.140185
C60   C     C_R   0.856855 0.588567 0.682488 -0.141548
H1    H     H_    0.759508 0.671608 0.076965 0.130035
H2    H     H_    0.242299 0.331093 0.913092 0.128988
H3    H     H_    0.240543 0.172320 0.423151 0.130005
H4    H     H_    0.757807 0.831285 0.586549 0.128996
H5    H     H_    0.637357 0.013135 0.874357 0.161781
H6    H     H_    0.363797 0.033279 0.119477 0.172531
H7    H     H_    0.362575 0.516737 0.625457 0.162160
H8    H     H_    0.636250 0.531516 0.380487 0.172089
C61   C     C_R   0.480326 0.999225 0.914225 -0.026095
C62   C     C_R   0.520082 0.982317 0.078568 -0.026432
C63   C     C_R   0.519634 0.502071 0.585718 -0.026085
C64   C     C_R   0.479910 0.483139 0.421393 -0.026425
C65   C     C_R   0.468924 0.999088 0.051293 0.039210
C66   C     C_R   0.531659 0.998016 0.941742 0.041226
C67   C     C_R   0.531075 0.499739 0.448668 0.039213
C68   C     C_R   0.468301 0.500672 0.558171 0.041133
C69   C     C_R   0.449212 0.004161 0.969027 0.056145
C70   C     C_R   0.551291 0.985516 0.023879 0.056295
C71   C     C_R   0.550768 0.505832 0.530930 0.056142
C72   C     C_R   0.448687 0.487150 0.476056 0.056343
C73   C     C_R   0.458928 0.993387 0.833261 -0.120417
C74   C     C_R   0.541185 0.961266 0.159169 -0.117368
C75   C     C_R   0.541015 0.497546 0.666708 -0.120454
C76   C     C_R   0.458812 0.461501 0.340816 -0.117326
C77   C     C_R   0.408899 0.001886 0.805988 0.409628
C78   C     C_R   0.591156 0.950855 0.186388 0.413065
C79   C     C_R   0.591044 0.505916 0.693990 0.409582
C80   C     C_R   0.408843 0.450995 0.313597 0.413053
O25   O     O_2   0.305240 0.037141 0.758718 -0.456088
O26   O     O_2   0.695003 0.929705 0.233608 -0.455230
O27   O     O_2   0.694731 0.540121 0.741233 -0.456063
O28   O     O_2   0.305009 0.428972 0.266392 -0.455201
C81   C     C_R   0.564346 0.011018 0.889790 -0.047215
C82   C     C_R   0.436506 0.012454 0.103675 -0.052053
C83   C     C_R   0.435593 0.514390 0.610067 -0.047447
C84   C     C_R   0.563521 0.511864 0.396287 -0.051843
H9    H     H_    0.147728 0.811660 0.769360 0.150158
H10   H     H_    0.851291 0.184080 0.230722 0.145627
H11   H     H_    0.852185 0.312121 0.730842 0.149725
H12   H     H_    0.148656 0.684030 0.269030 0.145449
H13   H     H_    0.235801 0.785187 0.810963 0.115248
H14   H     H_    0.763305 0.209021 0.186064 0.112812
H15   H     H_    0.764089 0.286065 0.689270 0.114995
H16   H     H_    0.236634 0.709308 0.313671 0.112755
H17   H     H_    0.480224 0.977896 0.788650 0.111999
H18   H     H_    0.519661 0.948808 0.203571 0.112325
H19   H     H_    0.519708 0.483267 0.711360 0.111975
H20   H     H_    0.480328 0.448739 0.296423 0.112317
H21   H     H_    0.552830 0.031167 0.827329 0.087378
H22   H     H_    0.448177 0.018367 0.166621 0.094485
H23   H     H_    0.447082 0.535278 0.672486 0.087917
H24   H     H_    0.551885 0.516823 0.333333 0.094224
N5    N     N_R   0.008200 0.255058 0.481855 0.107121
O29   O     O_R   0.051301 0.311914 0.476720 -0.293656
O30   O     O_R   0.970250 0.349961 0.448713 -0.278811
N6    N     N_R   0.991754 0.744966 0.518128 0.106756
O31   O     O_R   0.948651 0.688440 0.523436 -0.295796
O32   O     O_R   0.029692 0.650041 0.551299 -0.277927
N7    N     N_R   0.991747 0.755032 0.018129 0.107111
O33   O     O_R   0.948630 0.811731 0.023254 -0.293779
O34   O     O_R   0.029671 0.850117 0.051245 -0.278787
N8    N     N_R   0.008314 0.245000 0.981892 0.106719
O35   O     O_R   0.051434 0.188682 0.976585 -0.296089
O36   O     O_R   0.970405 0.149873 0.948744 -0.277816
Cl1   Cl    Cl    0.857500 0.565330 0.105542 -0.618661
Cl2   Cl    Cl    0.144664 0.439565 0.888125 -0.622738
Cl3   Cl    Cl    0.142562 0.065681 0.394569 -0.618467
Cl4   Cl    Cl    0.855482 0.939216 0.611458 -0.622244
Cl5   Cl    Cl    0.389139 0.991677 0.702650 -0.633453
Cl6   Cl    Cl    0.610454 0.927861 0.289417 -0.633628
Cl7   Cl    Cl    0.610768 0.497512 0.797366 -0.633135
Cl8   Cl    Cl    0.389556 0.427500 0.210587 -0.633942

loop_
_geom_bond_atom_site_label_1
_geom_bond_atom_site_label_2
_geom_bond_distance
_ccdc_geom_bond_type
C52   C84   1.387291 A    
O1    C5    1.316453 A    
C23   C27   1.398764 A    
O19   V1    1.762307 S    
O13   V1    1.981737 S    
O3    C7    1.316459 A    
C11   C12   1.381888 D    
C31   Cl3   1.763759 S    
C48   C52   1.396130 A    
O4    V2    2.022683 S    
O15   V3    1.981747 S    
C42   C69   1.430509 A    
N5    O29   1.300947 A    
C12   N8    1.431816 S    
C41   C70   1.430519 A    
O7    C3    1.330012 A    
C66   C81   1.415287 A    
C43   C72   1.430590 A    
C36   H4    1.083370 S    
C25   C57   1.409520 A    
C65   C82   1.415277 A    
C32   C36   1.401635 A    
C63   C71   1.417360 A    
O10   V2    2.027875 S    
C67   C84   1.415329 A    
C14   O22   1.350070 S    
N4    C20   1.370501 A    
C22   C26   1.398771 A    
O4    C8    1.316451 A    
C20   O27   1.347033 S    
C26   H9    1.083133 S    
C61   C69   1.417310 A    
C23   H16   1.082900 S    
O1    V3    2.022672 S    
C61   C73   1.412915 A    
C1    C60   1.491593 S    
C62   C65   1.428264 A    
O2    V4    2.022672 S    
O3    V1    2.022683 S    
C46   C50   1.396177 A    
C50   C82   1.387339 A    
C64   C76   1.412882 A    
C10   N6    1.431829 S    
C1    O15   1.330813 A    
C3    O13   1.330773 A    
C81   H21   1.076336 S    
C7    C9    1.487245 S    
O2    C6    1.316442 A    
N7    O33   1.300966 A    
C30   Cl2   1.763808 S    
C63   C68   1.428457 A    
O14   V2    1.981737 S    
N1    C17   1.369647 A    
C44   C56   1.417770 A    
N8    O36   1.300380 A    
C36   C40   1.401484 A    
C34   H2    1.083368 S    
C68   C72   1.423542 A    
O11   C7    1.339178 A    
C21   C37   1.400547 A    
O12   C8    1.339185 A    
C51   H7    1.083688 S    
N7    O34   1.300388 A    
C35   H3    1.083341 S    
C19   O28   1.347126 S    
C50   H6    1.083659 S    
C31   C59   1.419969 A    
C18   O25   1.347034 S    
C11   N7    1.431813 S    
N4    C40   1.445624 S    
C28   H11   1.083141 S    
N5    O30   1.300374 A    
C29   C57   1.420014 A    
O5    V1    1.991639 S    
C28   C60   1.409950 A    
C31   C35   1.401819 A    
C27   H12   1.083196 S    
O7    V3    1.991662 S    
C30   C34   1.401691 A    
N1    C37   1.444527 S    
O8    V4    1.991659 S    
C17   C53   1.422010 A    
C4    C57   1.490637 S    
C20   C56   1.422940 A    
N6    O31   1.300987 A    
C19   C55   1.422014 A    
C64   C72   1.417568 A    
C21   C25   1.398815 A    
O18   V4    1.762309 S    
C15   O23   1.349875 S    
C14   C46   1.404541 A    
C24   C40   1.400644 A    
C22   H13   1.082923 S    
C13   C45   1.405529 A    
C82   H22   1.075847 S    
C8    C10   1.487244 S    
C76   C80   1.393429 A    
C15   C47   1.405560 A    
C18   C54   1.422911 A    
C63   C75   1.412967 A    
O5    C1    1.329931 A    
C62   C74   1.412834 A    
C29   Cl1   1.763785 S    
C84   H24   1.075633 S    
C25   H10   1.083191 S    
C22   C38   1.400620 A    
C45   C49   1.396946 A    
O8    C4    1.329786 A    
N3    C39   1.444484 S    
C32   Cl4   1.763837 S    
C16   C48   1.404537 A    
C9    C10   1.381877 D    
O9    C5    1.339187 A    
C83   H23   1.076294 S    
C42   C54   1.417748 A    
C56   C79   1.415494 A    
C26   C58   1.409983 A    
C41   C53   1.417902 A    
N8    O35   1.301004 A    
C74   C78   1.393468 A    
C9    N5    1.431824 S    
C73   C77   1.394460 A    
C43   C55   1.417898 A    
O6    V2    1.991639 S    
C75   H19   1.076126 S    
C2    C59   1.490612 S    
C75   C79   1.394444 A    
C73   H17   1.076185 S    
C27   C59   1.409528 A    
C62   C70   1.417525 A    
C32   C60   1.420067 A    
C13   N1    1.366544 A    
C24   H15   1.082921 S    
C15   N3    1.366506 A    
O16   V4    1.981748 S    
O9    V1    2.027875 S    
C61   C66   1.428380 A    
C16   N4    1.366701 A    
C65   C69   1.423632 A    
C78   Cl6   1.767887 S    
C49   C81   1.388293 A    
C67   C71   1.423673 A    
O17   V3    1.762307 S    
C21   H14   1.082896 S    
C44   C48   1.410186 A    
N6    O32   1.300370 A    
O6    C2    1.329850 A    
C52   H8    1.083671 S    
N3    C19   1.369611 A    
O11   V3    2.027852 S    
C5    C11   1.487266 S    
O12   V4    2.027853 S    
C6    C12   1.487261 S    
N2    C18   1.370546 A    
C79   Cl7   1.768173 S    
C77   Cl5   1.768142 S    
O10   C6    1.339196 A    
O20   V2    1.762307 S    
C55   C80   1.414896 A    
N2    C38   1.445691 S    
C47   C51   1.396895 A    
C3    C58   1.491676 S    
C34   C38   1.401554 A    
C2    O16   1.330378 A    
C44   C71   1.430578 A    
C33   C37   1.400766 A    
C17   O26   1.347123 S    
C30   C58   1.420066 A    
C33   H1    1.083343 S    
C49   H5    1.083684 S    
C54   C77   1.415529 A    
C35   C39   1.400792 A    
C74   H18   1.075634 S    
C68   C83   1.415336 A    
C13   O21   1.349878 S    
C53   C78   1.414955 A    
C51   C83   1.388283 A    
C14   N2    1.366748 A    
C80   Cl8   1.767869 S    
C29   C33   1.401746 A    
C16   O24   1.350076 S    
C24   C28   1.398848 A    
C66   C70   1.423502 A    
C42   C46   1.410168 A    
C4    O14   1.330455 A    
C41   C45   1.410622 A    
C43   C47   1.410631 A    
C64   C67   1.428326 A    
C23   C39   1.400492 A    
C76   H20   1.075568 S    
