data_mof_unit_63592.cif
_audit_creation_date              2012-12-10T16:41:32-0500
_audit_creation_method            fapswitch 2.2
_symmetry_space_group_name_H-M    P1
_symmetry_Int_Tables_number       1
_space_group_crystal_system       triclinic
_cell_length_a                    18.922875
_cell_length_b                    18.925275
_cell_length_c                    18.869059
_cell_angle_alpha                 109.334909
_cell_angle_beta                  108.99857
_cell_angle_gamma                 109.076861
_cell_volume                      5265.23665698

loop_
_atom_site_label
_atom_site_type_symbol
_atom_type_description
_atom_site_fract_x
_atom_site_fract_y
_atom_site_fract_z
_atom_type_partial_charge
C1    C     C_R   0.382739 0.386956 0.504224 0.820917
C2    C     C_R   0.493689 0.671628 0.754882 -0.017672
C3    C     C_R   0.494490 0.680287 0.683492 -0.151932
C4    C     C_R   0.497809 0.753359 0.677107 0.179216
C5    C     C_R   0.509268 0.822373 0.746476 0.173177
C6    C     C_R   0.507439 0.813877 0.817530 -0.165142
C7    C     C_2   0.251563 0.254391 0.574389 -0.232130
C8    C     C_2   0.193499 0.177447 0.503961 0.221156
C9    C     C_2   0.325996 0.315113 0.576526 -0.087929
C10   C     C_2   0.314324 0.330216 0.510367 -0.242442
C11   C     C_2   0.426171 0.174952 0.182727 -0.149995
C12   C     C_R   0.497911 0.616232 0.617751 0.821965
C13   C     C_2   0.496714 0.183585 0.176406 -0.311720
C14   C     C_2   0.426215 0.248271 0.243555 -0.146080
C15   C     C_2   0.497013 0.309192 0.318416 -0.289680
C16   C     C_2   0.811123 0.738151 0.480867 -0.167632
C17   C     C_2   0.831377 0.820781 0.517513 -0.320816
C18   C     C_2   0.750012 0.675634 0.491048 0.350625
C19   C     C_2   0.678660 0.678425 0.489087 0.008886
C20   C     C_R   0.383367 0.997637 0.879386 0.811770
C21   C     C_R   0.502942 0.879305 0.881078 0.833906
C22   C     C_R   0.617416 0.998425 0.116089 0.852860
C23   C     C_R   0.616740 0.615427 0.497156 0.839444
C24   C     C_R   0.498225 0.115041 0.113279 0.844307
C25   C     C_R   0.879978 0.997976 0.383157 0.842198
C26   C     C_R   0.120241 0.116579 0.501877 0.788346
C27   C     C_R   0.113059 0.995217 0.616590 0.835955
C28   C     C_R   0.886811 0.883342 0.504538 0.831855
C29   C     C_2   0.189069 0.924150 0.672409 0.280899
C30   C     C_2   0.168511 0.987235 0.684372 -0.281989
C31   C     C_2   0.248690 0.926949 0.748163 -0.273902
C32   C     C_2   0.321173 0.999782 0.811108 0.083038
C33   C     C_2   0.739193 0.992403 0.319356 0.301901
C34   C     C_R   0.498422 0.379868 0.382144 0.871952
C35   C     C_2   0.808388 0.990496 0.314746 -0.373693
C36   C     C_2   0.668795 0.979060 0.242330 -0.189981
C37   C     C_2   0.684712 0.006996 0.189536 -0.361415
C38   C     C_R   0.481134 0.594919 0.758026 -0.190090
C39   C     C_R   0.485040 0.589156 0.830840 0.433330
C40   C     C_R   0.501757 0.659486 0.901776 -0.167684
C41   C     C_R   0.511117 0.734439 0.898806 -0.210341
C42   C     C_R   0.503502 0.740376 0.824018 0.044850
Cu1   Cu    Cu3+1 0.561020 0.499620 0.560640 1.033991
Cu2   Cu    Cu3+1 0.438980 0.500380 0.439360 0.963163
Cu3   Cu    Cu3+1 0.561070 0.057880 0.996780 0.964686
Cu4   Cu    Cu3+1 0.439050 0.935860 0.996810 0.958703
Cu5   Cu    Cu3+1 0.000000 0.061410 0.561410 0.976535
Cu6   Cu    Cu3+1 0.000000 0.938590 0.438590 1.014600
H1    H     H_    0.249613 0.302462 0.459086 0.190750
H2    H     H_    0.366312 0.115106 0.139282 0.170058
H3    H     H_    0.553886 0.245960 0.213106 0.165616
H4    H     H_    0.366286 0.249534 0.228545 0.170822
H5    H     H_    0.554396 0.303001 0.337760 0.166377
H6    H     H_    0.840256 0.715849 0.443763 0.191252
H7    H     H_    0.808777 0.844457 0.561426 0.179965
H8    H     H_    0.466680 0.538286 0.703881 0.157210
H9    H     H_    0.190503 0.034638 0.749420 0.157159
H10   H     H_    0.236281 0.866869 0.748618 0.144842
H11   H     H_    0.808904 0.973320 0.254057 0.140159
H12   H     H_    0.603419 0.948225 0.230151 0.175815
H13   H     H_    0.750187 0.043935 0.204446 0.163196
H14   H     H_    0.506930 0.656038 0.959263 0.169639
H15   H     H_    0.525832 0.787779 0.956297 0.164017
H16   H     H_    0.245965 0.272186 0.632457 0.165175
H17   H     H_    0.388582 0.349420 0.633104 0.196980
O1    O     O_R   0.462500 0.410660 0.551220 -0.578666
O2    O     O_R   0.359500 0.945890 0.908340 -0.594231
O3    O     O_R   0.551580 0.958790 0.907180 -0.560900
O4    O     O_R   0.448540 0.855750 0.907210 -0.594707
O5    O     O_R   0.640630 0.047850 0.085250 -0.585154
O6    O     O_R   0.537580 0.944800 0.085280 -0.592205
O7    O     O_R   0.551590 0.137990 0.086380 -0.585192
O8    O     O_R   0.448540 0.034950 0.086410 -0.577920
O9    O     O_R   0.910970 0.052410 0.463390 -0.560950
O10   O     O_R   0.910970 0.948690 0.359670 -0.578454
O11   O     O_R   0.089030 0.140870 0.551850 -0.602544
O12   O     O_R   0.359440 0.411300 0.448810 -0.592975
O13   O     O_R   0.089030 0.037160 0.448130 -0.531067
O14   O     O_R   0.089030 0.051310 0.640330 -0.598291
O15   O     O_R   0.089030 0.947590 0.536610 -0.550781
O16   O     O_R   0.910970 0.962840 0.551870 -0.596228
O17   O     O_R   0.910970 0.859130 0.448150 -0.583825
O18   O     O_R   0.551530 0.589280 0.640810 -0.593520
O19   O     O_R   0.448470 0.589920 0.538390 -0.570083
O20   O     O_R   0.640560 0.588700 0.551190 -0.540819
O21   O     O_R   0.537500 0.589340 0.448780 -0.589719
O22   O     O_R   0.551530 0.410080 0.461610 -0.560255
O23   O     O_R   0.448470 0.410720 0.359190 -0.586101
O24   O     O_R   0.462540 0.048930 0.908310 -0.581470
N1    N     N_2   0.491710 0.757555 0.601294 -0.423279
H18   H     H_    0.536185 0.814179 0.611690 0.247150
C43   C     C_3   0.405861 0.728386 0.537055 -0.636030
H19   H     H_    0.383370 0.774509 0.558709 0.193253
H20   H     H_    0.360158 0.664840 0.523568 0.246976
H21   H     H_    0.405667 0.722352 0.476423 0.222901
Cl1   Cl    Cl    0.769526 0.591716 0.495561 -0.613164
N2    N     N_2   0.655421 0.736526 0.468131 -0.458602
H22   H     H_    0.621000 0.754858 0.495742 0.257347
C44   C     C_3   0.616913 0.711021 0.377557 -0.643783
H23   H     H_    0.606366 0.762599 0.368765 0.219457
H24   H     H_    0.659461 0.700454 0.351325 0.239553
H25   H     H_    0.554281 0.651275 0.340968 0.238146
N3    N     N_2   0.152920 0.853797 0.589257 -0.400490
H26   H     H_    0.131329 0.795563 0.587981 0.249597
C45   C     C_3   0.208267 0.862813 0.551280 -0.619287
H27   H     H_    0.174035 0.808336 0.484854 0.221884
H28   H     H_    0.267058 0.862754 0.589507 0.201010
H29   H     H_    0.226509 0.923378 0.548184 0.247547
N4    N     N_2   0.346294 0.075326 0.802931 -0.427844
H30   H     H_    0.391770 0.084758 0.783185 0.271385
C46   C     C_3   0.366851 0.152216 0.875123 -0.664206
H31   H     H_    0.374617 0.203820 0.857753 0.244729
H32   H     H_    0.427542 0.174386 0.932101 0.236863
H33   H     H_    0.314472 0.140266 0.891740 0.222485
N5    N     N_2   0.731572 0.001054 0.394645 -0.399060
H34   H     H_    0.751718 0.967306 0.421790 0.253699
C47   C     C_3   0.657620 0.004566 0.398591 -0.672579
H35   H     H_    0.667060 0.021502 0.464441 0.231030
H36   H     H_    0.599327 0.941039 0.352716 0.210625
H37   H     H_    0.649326 0.054586 0.384184 0.244710
Cl2   Cl    Cl    0.469849 0.493616 0.833333 -0.647342
N6    N     N_2   0.520734 0.900023 0.744598 -0.418613
H38   H     H_    0.479778 0.892417 0.687643 0.249150
C48   C     C_3   0.608832 0.962167 0.778166 -0.627426
H39   H     H_    0.633552 0.939886 0.734351 0.195011
H40   H     H_    0.650492 0.973388 0.842397 0.245280
H41   H     H_    0.612639 0.023986 0.784730 0.223712
Cl3   Cl    Cl    0.211100 0.136891 0.415503 -0.596728

loop_
_geom_bond_atom_site_label_1
_geom_bond_atom_site_label_2
_ccdc_geom_bond_type
Cu1   O18   S    
C41   C42   A    
C20   O2    A    
C46   H31   S    
Cu5   O14   S    
N2    H22   S    
C19   N2    S    
C40   H14   S    
C7    C8    D    
Cu3   Cu4   S    
C45   H28   S    
C12   O19   A    
C26   O13   A    
C18   Cl1   S    
C15   H5    S    
C31   H10   S    
C36   C37   D    
Cu5   O11   S    
C18   C19   D    
C27   O14   A    
C47   H36   S    
C38   C39   A    
C11   C14   S    
C24   O8    A    
N5    H34   S    
C30   H9    S    
C11   C13   D    
C33   C36   S    
C8    C26   S    
C29   N3    S    
C35   H11   S    
C25   O9    A    
Cu6   O13   S    
Cu4   O4    S    
C3    C12   S    
C13   H3    S    
C8    Cl3   S    
C14   H4    S    
Cu5   Cu6   S    
C16   C17   D    
N5    C47   S    
C23   O21   A    
C26   O11   A    
Cu3   O24   S    
C9    C10   D    
C17   H7    S    
C15   C34   S    
Cu3   O5    S    
Cu3   O7    S    
Cu6   O10   S    
Cu2   O21   S    
N2    C44   S    
C20   O24   A    
C4    N1    S    
C45   H29   S    
C33   N5    S    
C32   N4    S    
C28   O17   A    
Cu1   O20   S    
N3    C45   S    
C27   O15   A    
C47   H37   S    
C39   C40   A    
C36   H12   S    
C6    C21   S    
C5    N6    S    
C43   H21   S    
C13   C24   S    
C21   O4    A    
C25   O10   A    
C19   C23   S    
Cu1   Cu2   S    
C29   C30   D    
C2    C38   A    
N1    C43   S    
C31   C32   D    
Cu3   O3    S    
C43   H20   S    
C1    O1    A    
C46   H32   S    
C34   O23   A    
Cu4   O6    S    
C25   C35   S    
C48   H41   S    
C40   C41   A    
C44   H24   S    
C21   O3    A    
C6    C42   A    
C41   H15   S    
N6    C48   S    
C3    C4    A    
C22   O6    A    
C24   O7    A    
C48   H40   S    
C20   C32   S    
C7    C9    S    
Cu2   O12   S    
C28   O16   A    
C17   C28   S    
C1    C10   S    
Cu5   O9    S    
C4    C5    A    
Cu2   O19   S    
C37   H13   S    
C45   H27   S    
C39   Cl2   S    
C44   H23   S    
Cu1   O22   S    
Cu6   O15   S    
C16   H6    S    
N4    C46   S    
C2    C3    A    
Cu4   O2    S    
C29   C31   S    
C11   H2    S    
C47   H35   S    
C22   C37   S    
N1    H18   S    
C5    C6    A    
C2    C42   A    
Cu1   O1    S    
C43   H19   S    
C33   C35   D    
Cu6   O17   S    
C46   H33   S    
C34   O22   A    
Cu5   O16   S    
C9    H17   S    
C7    H16   S    
C44   H25   S    
C38   H8    S    
C12   O18   A    
C16   C18   S    
C23   O20   A    
N4    H30   S    
N3    H26   S    
C14   C15   D    
C1    O12   A    
N6    H38   S    
Cu2   O23   S    
C10   H1    S    
C22   O5    A    
Cu4   O8    S    
C48   H39   S    
C27   C30   S    
