data_mof_unit_26964.cif
_audit_creation_date              2013-03-05T15:50:14-0500
_audit_creation_method            fapswitch 2.2
_symmetry_space_group_name_H-M    P1
_symmetry_Int_Tables_number       1
_space_group_crystal_system       triclinic
_cell_length_a                    18.344931
_cell_length_b                    25.842738
_cell_length_c                    18.33289
_cell_angle_alpha                 89.771256
_cell_angle_beta                  89.895762
_cell_angle_gamma                 90.157838
_cell_volume                      8691.1991892

loop_
_atom_site_label
_atom_site_type_symbol
_atom_site_description
_atom_site_fract_x
_atom_site_fract_y
_atom_site_fract_z
_atom_type_partial_charge
Zn1   Zn    Zn3+2 0.249990 0.293780 0.913250 0.962143
Zn2   Zn    Zn3+2 0.249990 0.706220 0.086750 0.945225
Zn3   Zn    Zn3+2 0.249990 0.706220 0.913250 0.949905
Zn4   Zn    Zn3+2 0.249990 0.293780 0.086750 0.950298
Zn5   Zn    Zn3+2 0.749990 0.793780 0.413250 0.945419
Zn6   Zn    Zn3+2 0.749990 0.206220 0.586750 0.960529
Zn7   Zn    Zn3+2 0.749990 0.206220 0.413250 0.948151
Zn8   Zn    Zn3+2 0.749990 0.793780 0.586750 0.954236
Zn9   Zn    Zn3+2 0.336760 0.206240 0.000000 0.962802
Zn10  Zn    Zn3+2 0.336760 0.793760 0.000000 0.972168
Zn11  Zn    Zn3+2 0.836760 0.706240 0.500000 0.975735
Zn12  Zn    Zn3+2 0.836760 0.293760 0.500000 0.969201
Zn13  Zn    Zn3+2 0.163250 0.206230 0.000000 0.961310
Zn14  Zn    Zn3+2 0.163250 0.793770 0.000000 0.959759
Zn15  Zn    Zn3+2 0.663250 0.706230 0.500000 0.953220
Zn16  Zn    Zn3+2 0.663250 0.293770 0.500000 0.959322
O1    O     O_3   0.249990 0.250010 0.000000 -0.484053
O2    O     O_3   0.249990 0.749990 0.000000 -0.483745
O3    O     O_3   0.749990 0.750010 0.500000 -0.480998
O4    O     O_3   0.749990 0.249990 0.500000 -0.483883
O5    O     O_R   0.335430 0.280650 0.146160 -0.651581
O6    O     O_R   0.335430 0.719350 0.853840 -0.629432
O7    O     O_R   0.335430 0.719350 0.146160 -0.648667
O8    O     O_R   0.335430 0.280650 0.853840 -0.624689
O9    O     O_R   0.835430 0.780650 0.646160 -0.626431
O10   O     O_R   0.835430 0.219350 0.353840 -0.634779
O11   O     O_R   0.835430 0.219350 0.646160 -0.639990
O12   O     O_R   0.835430 0.780650 0.353840 -0.645946
O13   O     O_R   0.164550 0.280640 0.853840 -0.637414
O14   O     O_R   0.164550 0.719360 0.146160 -0.631571
O15   O     O_R   0.164550 0.719360 0.853840 -0.644720
O16   O     O_R   0.164550 0.280640 0.146160 -0.639028
O17   O     O_R   0.664550 0.780640 0.353840 -0.645006
O18   O     O_R   0.664550 0.219360 0.646160 -0.639695
O19   O     O_R   0.664550 0.219360 0.353840 -0.645916
O20   O     O_R   0.664550 0.780640 0.646160 -0.643969
O21   O     O_R   0.396160 0.219380 0.914560 -0.643891
O22   O     O_R   0.396160 0.780620 0.085440 -0.614251
O23   O     O_R   0.396160 0.780620 0.914560 -0.634462
O24   O     O_R   0.396160 0.219380 0.085440 -0.616635
O25   O     O_R   0.896160 0.719380 0.414560 -0.616283
O26   O     O_R   0.896160 0.280620 0.585440 -0.626795
O27   O     O_R   0.896160 0.280620 0.414560 -0.640854
O28   O     O_R   0.896160 0.719380 0.585440 -0.643318
O29   O     O_R   0.103840 0.219370 0.085450 -0.635888
O30   O     O_R   0.103840 0.780630 0.914550 -0.630834
O31   O     O_R   0.103840 0.780630 0.085450 -0.644950
O32   O     O_R   0.103840 0.219370 0.914550 -0.638034
O33   O     O_R   0.603840 0.719370 0.585450 -0.640825
O34   O     O_R   0.603840 0.280630 0.414550 -0.643354
O35   O     O_R   0.603840 0.280630 0.585450 -0.631199
O36   O     O_R   0.603840 0.719370 0.414550 -0.649308
O37   O     O_R   0.310730 0.133160 0.000000 -0.644049
O38   O     O_R   0.310730 0.866840 0.000000 -0.641253
O39   O     O_R   0.810730 0.633160 0.500000 -0.633525
O40   O     O_R   0.810730 0.366840 0.500000 -0.636359
O41   O     O_R   0.249970 0.366860 0.060720 -0.648925
O42   O     O_R   0.249970 0.633140 0.939280 -0.650535
O43   O     O_R   0.249970 0.633140 0.060720 -0.654831
O44   O     O_R   0.249970 0.366860 0.939280 -0.645481
O45   O     O_R   0.749970 0.866860 0.560720 -0.647937
O46   O     O_R   0.749970 0.133140 0.439280 -0.652520
O47   O     O_R   0.749970 0.133140 0.560720 -0.644044
O48   O     O_R   0.749970 0.866860 0.439280 -0.656220
O49   O     O_R   0.189290 0.133150 0.000000 -0.642426
O50   O     O_R   0.189290 0.866850 0.000000 -0.642720
O51   O     O_R   0.689290 0.633150 0.500000 -0.641164
O52   O     O_R   0.689290 0.366850 0.500000 -0.641475
C1    C     C_R   0.389109 0.249129 0.140581 0.852932
C2    C     C_R   0.389339 0.750271 0.859637 0.858224
C3    C     C_R   0.394017 0.745751 0.135767 0.805123
C4    C     C_R   0.390267 0.250732 0.860597 0.868318
C5    C     C_R   0.889015 0.749593 0.640696 0.853012
C6    C     C_R   0.888451 0.251248 0.358667 0.869808
C7    C     C_R   0.890620 0.249581 0.639439 0.853152
C8    C     C_R   0.891722 0.751660 0.362021 0.842133
C9    C     C_R   0.109273 0.250783 0.861332 0.787745
C10   C     C_R   0.109480 0.749246 0.138925 0.787769
C11   C     C_R   0.110532 0.750240 0.859917 0.778537
C12   C     C_R   0.110416 0.249908 0.139788 0.784624
C13   C     C_R   0.606704 0.752792 0.362469 0.795023
C14   C     C_R   0.610211 0.249832 0.639782 0.785588
C15   C     C_R   0.609938 0.250015 0.360409 0.772553
C16   C     C_R   0.610433 0.749813 0.639986 0.780876
C17   C     C_R   0.249782 0.109343 0.001000 0.785240
C18   C     C_R   0.250177 0.890611 0.999261 0.786777
C19   C     C_R   0.749827 0.609444 0.501760 0.791623
C20   C     C_R   0.750048 0.390657 0.497571 0.792210
C21   C     C_R   0.250178 0.391343 0.999813 0.739415
C22   C     C_R   0.250138 0.608633 0.000001 0.732476
C23   C     C_R   0.749923 0.891350 0.499810 0.733792
C24   C     C_R   0.749913 0.108639 0.499994 0.735295
C25   C     C_3   0.181310 0.469776 0.038552 -0.393213
C26   C     C_3   0.250976 0.529933 0.920285 -0.377285
C27   C     C_3   0.181299 0.529623 0.038708 -0.394532
C28   C     C_3   0.251026 0.470482 0.920146 -0.381895
C29   C     C_3   0.681405 0.969785 0.539561 -0.397472
C30   C     C_3   0.749246 0.029951 0.420246 -0.378575
C31   C     C_3   0.681411 0.029651 0.539711 -0.397207
C32   C     C_3   0.749285 0.970499 0.420112 -0.385738
H1    H     H_    0.179373 0.455304 0.095785 0.184846
H2    H     H_    0.300168 0.544337 0.890798 0.178947
H3    H     H_    0.179388 0.543648 0.095999 0.183308
H4    H     H_    0.300266 0.456497 0.890675 0.175445
H5    H     H_    0.680301 0.955312 0.596814 0.184266
H6    H     H_    0.797969 0.044333 0.389966 0.179347
H7    H     H_    0.680346 0.043677 0.597021 0.185119
H8    H     H_    0.798048 0.956539 0.389844 0.178302
H9    H     H_    0.131476 0.455362 0.010572 0.151242
H10   H     H_    0.202240 0.544090 0.890169 0.179596
H11   H     H_    0.131471 0.544068 0.010785 0.150165
H12   H     H_    0.202329 0.456304 0.889976 0.180832
H13   H     H_    0.631160 0.955365 0.512335 0.145806
H14   H     H_    0.700038 0.044130 0.390919 0.174187
H15   H     H_    0.631178 0.044105 0.512535 0.146013
H16   H     H_    0.700123 0.956296 0.390719 0.170142
H17   H     H_    0.319933 0.455509 0.096603 0.180525
H18   H     H_    0.368998 0.544565 0.012249 0.147339
H19   H     H_    0.319762 0.543915 0.096876 0.175515
H20   H     H_    0.369064 0.455784 0.011953 0.147919
H21   H     H_    0.820817 0.955588 0.595542 0.184425
H22   H     H_    0.868711 0.044574 0.510393 0.149516
H23   H     H_    0.820757 0.043956 0.595748 0.184913
H24   H     H_    0.868748 0.955842 0.510192 0.148548
C33   C     C_3   0.318811 0.470010 0.039368 -0.398873
C34   C     C_3   0.318753 0.529896 0.039558 -0.401820
C35   C     C_3   0.818894 0.970060 0.538319 -0.396699
C36   C     C_3   0.818875 0.029920 0.538466 -0.393803
C37   C     C_3   0.250344 0.449087 0.999449 0.199896
C38   C     C_3   0.250309 0.550846 0.999708 0.203772
C39   C     C_3   0.749873 0.949106 0.499427 0.206048
C40   C     C_3   0.749861 0.050862 0.499674 0.200473
H25   H     H_    0.925551 0.382190 0.916005 0.119425
H26   H     H_    0.896731 0.650629 0.058989 0.133474
H27   H     H_    0.132352 0.906587 0.709861 0.129654
H28   H     H_    0.192745 0.157022 0.356374 0.132615
H29   H     H_    0.400844 0.635314 0.428746 0.144962
H30   H     H_    0.438270 0.108979 0.596998 0.125902
H31   H     H_    0.569519 0.426819 0.270494 0.148548
H32   H     H_    0.633507 0.594673 0.791562 0.128777
C41   C     C_R   0.110754 0.173661 0.750885 -0.146293
C42   C     C_R   0.133281 0.806952 0.267787 -0.151685
C43   C     C_R   0.009718 0.665853 0.849903 -0.162071
C44   C     C_R   0.976631 0.301706 0.111671 -0.146094
C45   C     C_R   0.596450 0.832342 0.243592 -0.128025
C46   C     C_R   0.612696 0.327279 0.749743 -0.139970
C47   C     C_R   0.535967 0.156041 0.326666 -0.145838
C48   C     C_R   0.510953 0.834508 0.650610 -0.159352
C49   C     C_R   0.117662 0.139471 0.693037 -0.176221
C50   C     C_R   0.148129 0.834035 0.331114 -0.204327
C51   C     C_R   0.956321 0.627668 0.852178 -0.189390
C52   C     C_R   0.913733 0.329547 0.097839 -0.187175
C53   C     C_R   0.612540 0.857386 0.178256 -0.214510
C54   C     C_R   0.613806 0.367020 0.800316 -0.181705
C55   C     C_R   0.504814 0.108943 0.309065 -0.198189
C56   C     C_R   0.458517 0.873162 0.649186 -0.188746
C57   C     C_R   0.589909 0.836157 0.112594 -0.154507
C58   C     C_R   0.559288 0.370408 0.852352 -0.186830
C59   C     C_R   0.451950 0.106517 0.255853 -0.193970
C60   C     C_R   0.396292 0.868434 0.691700 -0.206880
C61   C     C_R   0.075321 0.146125 0.631185 -0.191444
C62   C     C_R   0.100320 0.831301 0.389275 -0.182112
C63   C     C_R   0.893673 0.632964 0.810671 -0.181316
C64   C     C_R   0.862031 0.335302 0.152147 -0.183339
C65   C     C_R   0.544954 0.791835 0.111880 0.287432
C66   C     C_R   0.503394 0.333397 0.855867 0.223503
C67   C     C_R   0.428262 0.151372 0.220076 0.243389
C68   C     C_R   0.387293 0.826160 0.739000 0.218670
C69   C     C_R   0.023381 0.185777 0.628016 0.204794
C70   C     C_R   0.037323 0.800529 0.385623 0.198482
C71   C     C_R   0.885085 0.675422 0.763664 0.223033
C72   C     C_R   0.871384 0.312196 0.220833 0.221395
C73   C     C_R   0.518390 0.771976 0.179812 -0.011782
C74   C     C_R   0.501367 0.291527 0.804548 0.026930
C75   C     C_R   0.462839 0.200582 0.234060 0.028276
C76   C     C_R   0.444812 0.789409 0.747660 0.038488
C77   C     C_R   0.008206 0.216106 0.690774 0.036097
C78   C     C_R   0.017235 0.776166 0.318457 0.025854
C79   C     C_R   0.943731 0.711248 0.753507 0.040516
C80   C     C_R   0.933407 0.280444 0.234893 0.027219
C81   C     C_R   0.057027 0.212957 0.750020 0.042304
C82   C     C_R   0.068211 0.777837 0.260281 0.048989
C83   C     C_R   0.003631 0.708687 0.801922 0.046070
C84   C     C_R   0.987798 0.277211 0.179959 0.041162
C85   C     C_R   0.554459 0.786428 0.244582 0.055269
C86   C     C_R   0.556502 0.289570 0.750147 0.039464
C87   C     C_R   0.517922 0.202121 0.288318 0.039728
C88   C     C_R   0.504315 0.791630 0.698533 0.043185
C89   C     C_R   0.457454 0.738324 0.185274 -0.235223
C90   C     C_R   0.446632 0.252059 0.804708 -0.161556
C91   C     C_R   0.444297 0.248032 0.197694 -0.175146
C92   C     C_R   0.443941 0.749853 0.801837 -0.169864
C93   C     C_R   0.947665 0.250360 0.695255 -0.164029
C94   C     C_R   0.948823 0.750916 0.306563 -0.164682
C95   C     C_R   0.943402 0.750401 0.698793 -0.179278
C96   C     C_R   0.943360 0.251625 0.300831 -0.168081
C97   C     C_R   0.449833 0.706295 0.247660 0.087541
C98   C     C_R   0.444665 0.213437 0.750107 0.065630
C99   C     C_R   0.478811 0.295606 0.215985 0.068848
C100  C     C_R   0.495067 0.708911 0.800301 0.056911
C101  C     C_R   0.940685 0.284919 0.754541 0.064632
C102  C     C_R   0.934179 0.724723 0.240356 0.067418
C103  C     C_R   0.994541 0.791522 0.700474 0.062439
C104  C     C_R   0.006665 0.221627 0.311558 0.065367
C105  C     C_R   0.994810 0.285649 0.809315 0.076123
C106  C     C_R   0.987528 0.724044 0.184824 0.070018
C107  C     C_R   0.048983 0.792081 0.754841 0.077435
C108  C     C_R   0.064566 0.225522 0.261673 0.080447
C109  C     C_R   0.488096 0.718918 0.311884 0.073800
C110  C     C_R   0.499259 0.212532 0.695887 0.078054
C111  C     C_R   0.532149 0.296547 0.271184 0.084073
C112  C     C_R   0.549275 0.708281 0.745594 0.075510
C113  C     C_R   0.052799 0.249935 0.806046 -0.134461
C114  C     C_R   0.054048 0.750342 0.195555 -0.140953
C115  C     C_R   0.054300 0.749959 0.803901 -0.145885
C116  C     C_R   0.053501 0.251088 0.194806 -0.136533
C117  C     C_R   0.546223 0.755438 0.308318 -0.201331
C118  C     C_R   0.554836 0.250296 0.696690 -0.133832
C119  C     C_R   0.552520 0.249614 0.305577 -0.143141
C120  C     C_R   0.554277 0.750125 0.696062 -0.148291
C121  C     C_R   0.405395 0.661378 0.247679 -0.126512
C122  C     C_R   0.387912 0.176047 0.747398 -0.147274
C123  C     C_R   0.462206 0.342759 0.179181 -0.151100
C124  C     C_R   0.492984 0.668050 0.852152 -0.172169
C125  C     C_R   0.881060 0.319435 0.760057 -0.141746
C126  C     C_R   0.867497 0.698022 0.228772 -0.137670
C127  C     C_R   0.991801 0.832883 0.649544 -0.165608
C128  C     C_R   0.013783 0.187580 0.371521 -0.165996
C129  C     C_R   0.389247 0.635326 0.312348 -0.150220
C130  C     C_R   0.385640 0.139086 0.692330 -0.154238
C131  C     C_R   0.494431 0.389346 0.198908 -0.144387
C132  C     C_R   0.542637 0.627404 0.848878 -0.141900
C133  C     C_R   0.875777 0.353901 0.818103 -0.128381
C134  C     C_R   0.854360 0.671715 0.163880 -0.138768
C135  C     C_R   0.041406 0.873716 0.652828 -0.144222
C136  C     C_R   0.080569 0.164773 0.387886 -0.162866
C137  C     C_R   0.929657 0.355140 0.871277 -0.143760
C138  C     C_R   0.906994 0.671163 0.109315 -0.142608
C139  C     C_R   0.094135 0.874662 0.707094 -0.132490
C140  C     C_R   0.140447 0.173888 0.343153 -0.128405
C141  C     C_R   0.416533 0.653691 0.377904 -0.147520
C142  C     C_R   0.439991 0.137875 0.639555 -0.141382
C143  C     C_R   0.544989 0.390443 0.254656 -0.146833
C144  C     C_R   0.595090 0.626350 0.794150 -0.132763
C145  C     C_R   0.988650 0.321412 0.867288 -0.151777
C146  C     C_R   0.973018 0.696893 0.119410 -0.149483
C147  C     C_R   0.097899 0.834540 0.757897 -0.163875
C148  C     C_R   0.132055 0.202701 0.279442 -0.136654
C149  C     C_R   0.465086 0.695249 0.378019 -0.127800
C150  C     C_R   0.496360 0.174065 0.641054 -0.146436
C151  C     C_R   0.564785 0.344782 0.289610 -0.165980
C152  C     C_R   0.598556 0.666191 0.742869 -0.162623
H33   H     H_    0.147900 0.168840 0.796171 0.128492
H34   H     H_    0.173015 0.810003 0.224274 0.125038
H35   H     H_    0.055313 0.661524 0.886716 0.135300
H36   H     H_    0.016428 0.299832 0.068138 0.127410
H37   H     H_    0.614850 0.850563 0.293237 0.161052
H38   H     H_    0.656435 0.326698 0.710063 0.119638
H39   H     H_    0.573715 0.155386 0.371750 0.145494
H40   H     H_    0.556292 0.838550 0.613217 0.134342
H41   H     H_    0.608242 0.854587 0.062810 0.148344
H42   H     H_    0.560429 0.402147 0.890760 0.133539
H43   H     H_    0.426275 0.069588 0.244670 0.136758
H44   H     H_    0.352946 0.896422 0.685062 0.128146
H45   H     H_    0.086173 0.122535 0.583706 0.122927
H46   H     H_    0.114688 0.850531 0.439675 0.134933
H47   H     H_    0.849685 0.605491 0.818330 0.122232
H48   H     H_    0.814285 0.358283 0.140864 0.149472
H49   H     H_    0.384336 0.645143 0.197678 0.151967
H50   H     H_    0.344144 0.175305 0.787034 0.104240
H51   H     H_    0.424358 0.345020 0.134596 0.140221
H52   H     H_    0.453192 0.667010 0.895767 0.116689
H53   H     H_    0.838042 0.320239 0.719743 0.105613
H54   H     H_    0.824993 0.696744 0.269729 0.120511
H55   H     H_    0.951087 0.834407 0.607044 0.116960
H56   H     H_    0.967836 0.178937 0.406342 0.116283
H57   H     H_    0.829689 0.379778 0.821855 0.117160
H58   H     H_    0.803206 0.651508 0.156054 0.148367
H59   H     H_    0.038515 0.904944 0.613411 0.123309
H60   H     H_    0.085961 0.140112 0.435410 0.124259
H61   H     H_    0.354051 0.601641 0.311738 0.140246
H62   H     H_    0.341405 0.111307 0.690569 0.122628
H63   H     H_    0.480046 0.424749 0.170670 0.129326
H64   H     H_    0.540229 0.596519 0.888884 0.124242
H65   H     H_    0.028847 0.323330 0.910353 0.107662
H66   H     H_    0.012410 0.695232 0.075465 0.117742
H67   H     H_    0.139828 0.837106 0.799142 0.127562
H68   H     H_    0.178653 0.207667 0.244590 0.129372
H69   H     H_    0.481726 0.709557 0.430682 0.166975
H70   H     H_    0.537106 0.171803 0.598428 0.113939
H71   H     H_    0.605885 0.348687 0.331016 0.150201
H72   H     H_    0.640651 0.663781 0.701628 0.125811
C153  C     C_R   0.319731 0.054791 0.884740 -0.145050
C154  C     C_R   0.323120 0.947380 0.885591 -0.158450
C155  C     C_R   0.765374 0.552112 0.634313 -0.149218
C156  C     C_R   0.766259 0.444419 0.632098 -0.141032
C157  C     C_R   0.356645 0.028454 0.829952 -0.149687
C158  C     C_R   0.358516 0.974869 0.830503 -0.154808
C159  C     C_R   0.772230 0.524341 0.699206 -0.142007
C160  C     C_R   0.772802 0.470596 0.698083 -0.137611
C161  C     C_R   0.286972 0.973338 0.943357 0.068412
C162  C     C_R   0.285770 0.027705 0.943303 0.072103
C163  C     C_R   0.758521 0.471975 0.565502 0.071324
C164  C     C_R   0.758237 0.526358 0.566747 0.069253
C165  C     C_R   0.250480 0.946243 0.999797 -0.129726
C166  C     C_R   0.249063 0.053670 0.000362 -0.134823
C167  C     C_R   0.749885 0.446418 0.498124 -0.116216
C168  C     C_R   0.748938 0.553826 0.500860 -0.117740
C169  C     C_R   0.212411 0.972130 0.055832 0.042698
C170  C     C_R   0.211173 0.026442 0.056094 0.017337
C171  C     C_R   0.738446 0.474151 0.432277 0.045594
C172  C     C_R   0.736779 0.528394 0.434111 0.020095
C173  C     C_R   0.176039 0.944697 0.112330 -0.254131
C174  C     C_R   0.172824 0.052021 0.112896 -0.230756
C175  C     C_R   0.729596 0.449089 0.364445 -0.280165
C176  C     C_R   0.722158 0.556466 0.369339 -0.221925
C177  C     C_R   0.133741 0.970181 0.163995 0.190757
C178  C     C_R   0.133161 0.024222 0.165266 0.233982
C179  C     C_R   0.717772 0.477380 0.299835 0.187337
C180  C     C_R   0.709166 0.531523 0.302799 0.260382
H73   H     H_    0.317753 0.096421 0.879712 0.135159
H74   H     H_    0.324381 0.905748 0.881657 0.141220
H75   H     H_    0.764487 0.593799 0.637505 0.104657
H76   H     H_    0.766470 0.402557 0.634083 0.111930
H77   H     H_    0.383472 0.049656 0.786569 0.142142
H78   H     H_    0.386939 0.954538 0.787664 0.141012
H79   H     H_    0.776516 0.544552 0.750558 0.113966
H80   H     H_    0.777799 0.449127 0.748565 0.115300
N1    N     N_2   0.093553 0.051037 0.219879 -0.290890
H81   H     H_    0.039984 0.039069 0.223554 0.243564
C181  C     C_3   0.128910 0.051103 0.290318 -0.785636
H82   H     H_    0.093010 0.069997 0.330749 0.245371
H83   H     H_    0.181430 0.072320 0.286983 0.237218
H84   H     H_    0.139173 0.011072 0.309894 0.239061
N2    N     N_2   0.094840 0.941334 0.217468 -0.321344
H85   H     H_    0.126806 0.913865 0.242320 0.228784
C182  C     C_3   0.026455 0.920091 0.192246 -0.761900
H86   H     H_    0.036180 0.891141 0.148614 0.253713
H87   H     H_    0.990786 0.951419 0.171144 0.241132
H88   H     H_    0.998075 0.900607 0.238382 0.243059
N3    N     N_2   0.688401 0.559925 0.238586 -0.313883
H89   H     H_    0.663845 0.538279 0.198341 0.247761
C183  C     C_3   0.656868 0.611047 0.245997 -0.828556
H90   H     H_    0.637823 0.625013 0.191920 0.236003
H91   H     H_    0.698423 0.639043 0.265457 0.236913
H92   H     H_    0.609444 0.609884 0.283799 0.259812
N4    N     N_2   0.714449 0.451169 0.231759 -0.332020
H93   H     H_    0.701249 0.412516 0.235749 0.228196
C184  C     C_3   0.776543 0.460175 0.184453 -0.825145
H94   H     H_    0.766054 0.442458 0.130435 0.232736
H95   H     H_    0.826351 0.442853 0.208636 0.244494
H96   H     H_    0.786160 0.502134 0.175561 0.260894
H97   H     H_    0.179041 0.903111 0.117473 0.159166
H98   H     H_    0.172169 0.093636 0.117335 0.171018
H99   H     H_    0.732680 0.407404 0.360924 0.129395
H100  H     H_    0.720069 0.598122 0.370609 0.153965
H101  H     H_    0.158885 0.109582 0.694515 0.138924
H102  H     H_    0.197801 0.856518 0.335567 0.140388
H103  H     H_    0.961723 0.595269 0.889383 0.138690
H104  H     H_    0.905826 0.347828 0.045250 0.142032
H105  H     H_    0.645195 0.892347 0.178397 0.153029
H106  H     H_    0.656971 0.395668 0.798721 0.137359
H107  H     H_    0.520422 0.074248 0.338379 0.138903
H108  H     H_    0.464375 0.905592 0.612046 0.138475
N5    N     N_2   0.530887 0.764417 0.045338 -0.277247
H109  H     H_    0.520586 0.725388 0.051711 0.196391
C185  C     C_3   0.572097 0.776906 0.980099 -0.759356
H110  H     H_    0.556399 0.750206 0.935599 0.240350
H111  H     H_    0.631436 0.772499 0.990332 0.227176
H112  H     H_    0.559496 0.816821 0.961516 0.249389
N6    N     N_2   0.448215 0.340594 0.909270 -0.309777
H113  H     H_    0.426741 0.377467 0.909383 0.213110
C186  C     C_3   0.467589 0.323363 0.981718 -0.787212
H114  H     H_    0.417351 0.321411 0.015248 0.217937
H115  H     H_    0.506718 0.350848 0.006967 0.220883
H116  H     H_    0.492134 0.284108 0.980243 0.261884
N7    N     N_2   0.366605 0.145925 0.174146 -0.281721
H117  H     H_    0.367004 0.112773 0.142929 0.235922
C187  C     C_3   0.298201 0.152741 0.211593 -0.828926
H118  H     H_    0.253670 0.154833 0.170878 0.222886
H119  H     H_    0.299151 0.189262 0.243342 0.240990
H120  H     H_    0.287984 0.119702 0.249170 0.227721
N8    N     N_2   0.316455 0.816697 0.767719 -0.328973
H121  H     H_    0.288445 0.849812 0.781496 0.192999
C188  C     C_3   0.273329 0.783032 0.721761 -0.736243
H122  H     H_    0.222012 0.772691 0.749878 0.245625
H123  H     H_    0.303063 0.746572 0.710044 0.255806
H124  H     H_    0.259944 0.802864 0.669573 0.225050
N9    N     N_2   0.997995 0.201395 0.558538 -0.325243
H125  H     H_    0.990821 0.170932 0.523347 0.190436
C189  C     C_3   0.040979 0.243438 0.527920 -0.691594
H126  H     H_    0.014960 0.258312 0.477777 0.260286
H127  H     H_    0.096891 0.229904 0.514684 0.226156
H128  H     H_    0.044766 0.276220 0.566809 0.247393
N10   N     N_2   0.002113 0.788732 0.452608 -0.314529
H129  H     H_    0.990781 0.821343 0.482748 0.188608
C190  C     C_3   0.041775 0.750496 0.494833 -0.681248
H130  H     H_    0.016477 0.745344 0.548952 0.242468
H131  H     H_    0.098922 0.763171 0.504371 0.213624
H132  H     H_    0.041791 0.712747 0.466041 0.255540
N11   N     N_2   0.813925 0.686155 0.737051 -0.326736
H133  H     H_    0.783601 0.653489 0.726274 0.193067
C191  C     C_3   0.774027 0.721792 0.782894 -0.737791
H134  H     H_    0.721591 0.731796 0.756793 0.247420
H135  H     H_    0.805395 0.758182 0.790793 0.257639
H136  H     H_    0.762551 0.703794 0.836905 0.224633
N12   N     N_2   0.821086 0.324751 0.276614 -0.330555
H137  H     H_    0.821176 0.363633 0.288815 0.219662
C192  C     C_3   0.748594 0.304584 0.265746 -0.768057
H138  H     H_    0.717029 0.311644 0.315993 0.213713
H139  H     H_    0.750383 0.262345 0.255080 0.281510
H140  H     H_    0.721352 0.324105 0.219228 0.217046

loop_
_geom_bond_atom_site_label_1
_geom_bond_atom_site_label_2
_geom_bond_distance
_ccdc_geom_bond_type
C174  C178  1.398703 A    
C156  C163  1.418503 A    
C57   H41   1.080485 S    
C44   C84   1.416066 A    
C189  H128  1.111541 S    
C151  H71   1.075723 S    
C50   H102  1.082734 S    
C1    C91   1.458035 S    
C103  C127  1.417508 A    
C182  H86   1.111921 S    
C2    C92   1.456918 S    
C12   C116  1.450865 S    
C79   C95   1.421954 A    
C161  C162  1.405217 A    
C101  C125  1.417039 A    
C58   C66   1.401501 A    
O26   C7    1.275381 A    
C166  C170  1.418147 A    
C77   C93   1.424602 A    
C56   H108  1.082673 S    
C191  H135  1.111270 S    
C54   C58   1.384084 A    
C105  C145  1.415798 A    
C190  H131  1.111813 S    
O30   C11   1.281168 A    
C30   H14   1.113653 S    
C23   C39   1.492564 S    
C21   C37   1.492262 S    
C4    C90   1.454589 S    
C127  H55   1.080969 S    
Zn12  O26   1.939127 S    
N11   C191  1.448397 S    
C104  C108  1.403526 A    
C13   C117  1.491690 S    
C96   C104  1.411695 A    
C47   C55   1.382799 A    
C80   C96   1.429569 A    
N1    H81   1.031438 S    
H29   C141  1.082548 S    
C106  C114  1.409628 A    
C43   C51   1.388978 A    
C53   H105  1.082687 S    
H26   C138  1.082712 S    
C10   C114  1.452349 S    
C125  H53   1.082361 S    
C48   H40   1.081454 S    
O11   C7    1.282591 A    
O34   C15   1.276719 A    
C76   C88   1.414799 A    
C83   C115  1.413464 A    
C66   C74   1.437139 A    
C145  H65   1.082504 S    
C141  C149  1.393388 A    
C29   C39   1.551790 S    
C102  C126  1.419527 A    
C186  H116  1.111432 S    
C25   H1    1.112976 S    
N2    C182  1.445464 S    
C169  C173  1.417619 A    
H20   C33   1.113242 S    
C155  C159  1.392992 A    
C112  C120  1.411952 A    
C51   H103  1.082694 S    
Zn5   O48   1.949791 S    
H32   C144  1.082795 S    
Zn6   O47   1.949790 S    
C140  C148  1.391668 A    
Zn7   O46   1.946095 S    
C123  H51   1.074937 S    
O16   C12   1.275704 A    
C64   H48   1.079466 S    
C163  C164  1.405685 A    
C46   C54   1.386483 A    
C129  H61   1.082510 S    
Zn16  O4    1.954996 S    
C149  H69   1.079504 S    
Zn12  O4    1.950218 S    
Zn1   O13   1.940237 S    
C137  C145  1.393444 A    
C26   C28   1.536389 S    
Zn4   O16   1.935507 S    
H24   C35   1.113100 S    
C68   C76   1.430246 A    
C42   C82   1.416512 A    
C70   C78   1.433507 A    
C28   H4    1.113592 S    
N9    H125  1.028145 S    
N8    H121  1.031442 S    
C182  H88   1.110650 S    
Zn6   O4    1.947923 S    
C170  C174  1.421860 A    
C89   C97   1.415612 A    
C130  H62   1.082574 S    
C155  H75   1.079300 S    
C107  C147  1.416922 A    
C154  C158  1.391256 A    
C48   C88   1.416198 A    
C162  C166  1.415426 A    
C30   H6    1.113508 S    
Zn10  O22   1.939127 S    
C135  H59   1.082598 S    
C70   N10   1.418187 S    
C109  C117  1.423303 A    
N5    H109  1.031781 S    
O25   C8    1.274557 A    
Zn13  O29   1.938366 S    
C128  H56   1.078768 S    
C59   C67   1.400168 A    
O29   C12   1.279036 A    
C41   C81   1.417182 A    
C133  H57   1.081677 S    
Zn15  O33   1.938366 S    
C35   C39   1.551586 S    
N2    H85   1.027649 S    
H19   C34   1.113037 S    
C33   C37   1.551861 S    
C95   C103  1.416050 A    
C26   H2    1.113530 S    
O5    C1    1.283929 A    
O37   C17   1.274883 A    
O48   C23   1.279674 A    
C192  H138  1.103247 S    
C80   C84   1.419273 A    
C28   C37   1.553394 S    
C188  H123  1.111523 S    
C184  H94   1.109582 S    
C134  H58   1.082723 S    
C171  C175  1.413819 A    
C175  H99   1.081064 S    
C131  C143  1.381698 A    
Zn16  O35   1.935120 S    
N11   H133  1.029697 S    
C93   C101  1.415348 A    
C66   N6    1.420092 S    
C86   C118  1.414004 A    
C73   C85   1.411492 A    
C26   C38   1.555182 S    
Zn7   O10   1.935465 S    
O33   C16   1.280374 A    
C131  H63   1.082928 S    
C24   C40   1.493138 S    
Zn10  O2    1.950218 S    
C97   C121  1.416604 A    
C53   C57   1.388611 A    
C134  C138  1.389206 A    
O40   C20   1.274269 A    
C72   N12   1.415370 S    
C154  C161  1.420148 A    
C133  C137  1.389919 A    
C16   C120  1.454115 S    
C61   H45   1.083144 S    
C58   H42   1.083318 S    
Zn5   O17   1.940237 S    
C27   C38   1.550627 S    
C185  H112  1.110105 S    
H31   C143  1.082043 S    
C61   C69   1.402299 A    
C92   C100  1.416184 A    
Zn15  O51   1.949341 S    
C25   C27   1.546620 S    
C43   H35   1.081476 S    
C153  C157  1.391488 A    
N1    C181  1.446152 S    
C71   C79   1.428877 A    
H25   C137  1.082298 S    
C69   C77   1.422243 A    
C27   H3    1.112972 S    
N3    C183  1.450474 S    
C32   H8    1.113495 S    
Zn8   O3    1.955283 S    
C143  C151  1.390016 A    
C55   C59   1.378293 A    
C154  H74   1.078909 S    
C56   C60   1.385882 A    
C57   C65   1.409688 A    
O38   C18   1.270921 A    
C187  H120  1.110260 S    
C19   C168  1.437514 S    
C45   C85   1.412942 A    
O32   C9    1.270321 A    
C108  C148  1.410920 A    
C130  C142  1.388571 A    
C15   C119  1.457373 S    
C173  H97   1.080014 S    
Zn11  O28   1.940266 S    
Zn12  O40   1.949298 S    
C192  H140  1.109524 S    
C8    C94   1.458680 S    
Zn2   O43   1.949790 S    
C184  H96   1.109462 S    
C183  H91   1.109890 S    
C46   H38   1.082246 S    
C180  N3    1.437342 S    
O8    C4    1.276355 A    
C157  H77   1.081006 S    
C189  H127  1.111321 S    
C136  C140  1.388661 A    
C136  H60   1.082238 S    
O50   C18   1.273171 A    
C173  C177  1.392159 A    
C111  C119  1.416170 A    
Zn1   O1    1.947924 S    
C126  C134  1.393612 A    
C55   H107  1.082966 S    
Zn2   O14   1.938546 S    
C29   H5    1.112993 S    
C44   C52   1.384770 A    
H28   C140  1.082343 S    
C190  H130  1.102009 S    
C44   H36   1.081984 S    
C54   H106  1.082829 S    
C165  C169  1.412810 A    
O9    C5    1.274811 A    
N12   C192  1.441478 S    
C47   H39   1.079353 S    
O36   C13   1.285841 A    
C98   C110  1.410091 A    
C181  H84   1.110323 S    
N7    C187  1.440842 S    
C64   C72   1.402476 A    
C75   C87   1.419817 A    
C164  C168  1.409472 A    
O13   C9    1.279390 A    
C122  C130  1.393174 A    
Zn1   O8    1.938501 S    
C59   H43   1.083546 S    
C30   C40   1.555257 S    
Zn2   O7    1.940193 S    
C60   H44   1.083110 S    
C101  C105  1.413605 A    
Zn3   O6    1.935465 S    
C81   C113  1.407889 A    
O18   C14   1.277317 A    
O31   C10   1.274391 A    
H17   C33   1.113038 S    
O6    C2    1.274594 A    
C168  C172  1.409182 A    
C25   H9    1.113087 S    
C17   C166  1.438859 S    
C32   H16   1.113541 S    
C183  H90   1.110967 S    
C9    C113  1.450838 S    
C187  H118  1.108858 S    
Zn14  O30   1.940519 S    
C60   C68   1.401283 A    
Zn15  O3    1.949916 S    
C78   C94   1.430410 A    
Zn11  O3    1.955298 S    
C99   C123  1.424505 A    
O41   C21   1.281200 A    
C31   C40   1.551022 S    
C67   C75   1.443637 A    
C106  C146  1.417105 A    
Zn16  O34   1.940519 S    
H21   C35   1.112995 S    
C186  H115  1.111334 S    
C31   H15   1.113120 S    
C84   C116  1.409553 A    
C34   C38   1.551548 S    
N6    H113  1.032132 S    
C94   C102  1.417863 A    
C139  C147  1.392909 A    
Zn8   O20   1.935507 S    
C191  H134  1.105977 S    
C153  H73   1.080107 S    
C178  N1    1.419955 S    
C71   N11   1.422088 S    
C112  C152  1.417283 A    
C63   C71   1.401882 A    
C72   C80   1.427904 A    
C105  C113  1.411649 A    
Zn8   O9    1.940183 S    
C25   C37   1.551468 S    
C182  H87   1.111143 S    
C123  C131  1.389272 A    
C88   C120  1.413606 A    
C50   C62   1.380859 A    
C142  C150  1.392749 A    
O7    C3    1.284963 A    
C191  H136  1.111800 S    
C190  H132  1.111044 S    
N4    H93   1.029468 S    
O19   C15   1.284729 A    
Zn13  O49   1.949341 S    
C47   C87   1.420652 A    
O44   C21   1.279628 A    
C45   H37   1.080587 S    
C62   H46   1.083509 S    
Zn9   O24   1.940266 S    
Zn6   O18   1.938546 S    
Zn10  O23   1.938116 S    
C152  H72   1.081841 S    
C43   C83   1.415921 A    
C181  H82   1.106562 S    
C129  C141  1.387664 A    
C62   C70   1.402903 A    
C49   H101  1.082748 S    
C138  C146  1.393112 A    
C107  C115  1.412952 A    
C185  H111  1.111028 S    
Zn15  O36   1.939381 S    
C3    C89   1.489491 S    
O15   C11   1.279040 A    
O42   C22   1.278557 A    
C74   C90   1.429286 A    
Zn4   O1    1.955283 S    
C30   C32   1.536427 S    
C5    C95   1.460903 S    
C33   C34   1.547624 S    
Zn1   O44   1.949791 S    
C49   C61   1.386022 A    
C35   C36   1.546953 S    
O12   C8    1.286121 A    
Zn11  O39   1.946748 S    
C90   C98   1.416842 A    
C188  H122  1.104147 S    
C159  H79   1.081324 S    
C63   H47   1.081941 S    
C132  C144  1.389298 A    
C68   N8    1.421434 S    
C135  C139  1.389081 A    
C46   C86   1.416604 A    
C176  H100  1.077625 S    
C150  H70   1.082251 S    
N10   H129  1.031042 S    
Zn5   O3    1.947924 S    
C179  N4    1.423714 S    
Zn13  O1    1.949916 S    
C31   H7    1.112953 S    
C175  C179  1.406947 A    
C176  C180  1.402465 A    
C125  C133  1.393861 A    
C42   C50   1.385085 A    
N5    C185  1.448599 S    
C26   H10   1.113544 S    
C160  H80   1.081306 S    
C167  C171  1.417662 A    
H22   C36   1.113098 S    
O28   C5    1.288168 A    
C76   C92   1.422472 A    
C179  C180  1.409753 A    
C22   C38   1.493433 S    
Zn3   O42   1.946095 S    
C42   H34   1.082110 S    
C156  C160  1.393557 A    
C41   H33   1.082064 S    
Zn7   O4    1.955284 S    
O21   C4    1.281151 A    
C121  C129  1.392078 A    
N9    C189  1.451250 S    
C48   C56   1.388905 A    
C109  C149  1.418850 A    
C171  C172  1.402734 A    
Zn2   O2    1.947923 S    
C157  C158  1.385294 A    
Zn14  O2    1.954996 S    
C185  H110  1.108530 S    
C67   N7    1.418366 S    
C159  C160  1.389234 A    
C32   C39   1.553620 S    
C41   C49   1.388910 A    
C189  H126  1.104726 S    
C87   C119  1.417338 A    
C169  C170  1.403847 A    
C28   H12   1.113473 S    
C100  C112  1.411256 A    
C85   C117  1.421524 A    
C98   C122  1.419540 A    
C91   C99   1.422891 A    
Zn12  O27   1.938116 S    
C124  C132  1.393644 A    
C75   C91   1.435410 A    
C77   C81   1.411275 A    
C187  H119  1.110941 S    
C124  H52   1.081914 S    
C65   C73   1.429391 A    
C158  H78   1.080756 S    
Zn3   O2    1.955284 S    
C73   C89   1.417568 A    
C18   C165  1.437770 S    
H27   C139  1.082611 S    
N6    C186  1.444478 S    
O46   C24   1.278351 A    
O47   C24   1.282948 A    
N12   H137  1.030289 S    
Zn16  O52   1.946789 S    
C161  C165  1.413578 A    
C104  C128  1.411779 A    
H30   C142  1.082567 S    
Zn8   O45   1.946097 S    
C188  H124  1.111738 S    
C45   C53   1.390023 A    
O27   C6    1.285415 A    
C11   C115  1.456928 S    
C108  C116  1.405580 A    
O39   C19   1.273145 A    
C36   C40   1.550985 S    
C29   C31   1.547091 S    
C79   C83   1.415340 A    
C6    C96   1.461149 S    
O24   C1    1.279046 A    
C100  C124  1.418357 A    
C147  H67   1.081667 S    
C148  H68   1.073410 S    
C163  C167  1.412002 A    
C103  C107  1.412360 A    
C172  C176  1.415492 A    
O43   C22   1.282900 A    
O14   C10   1.280107 A    
Zn4   O41   1.946097 S    
Zn3   O15   1.940226 S    
N8    C188  1.448143 S    
N4    C184  1.448185 S    
Zn5   O12   1.938501 S    
C65   N5    1.436622 S    
Zn6   O11   1.940193 S    
C14   C118  1.454947 S    
Zn9   O21   1.934870 S    
Zn14  O50   1.946789 S    
C78   C82   1.417617 A    
C132  H64   1.082557 S    
C174  H98   1.078941 S    
C181  H83   1.108724 S    
O35   C14   1.278226 A    
N7    H117  1.032241 S    
C52   C64   1.382560 A    
C7    C93   1.465117 S    
Zn9   O1    1.955298 S    
C51   C63   1.386290 A    
C156  H76   1.082313 S    
O52   C20   1.272265 A    
C192  H139  1.110270 S    
C29   H13   1.113053 S    
C121  H49   1.081196 S    
O22   C3    1.287567 A    
C144  C152  1.392708 A    
Zn7   O19   1.940226 S    
C52   H104  1.082129 S    
Zn13  O32   1.939381 S    
O49   C17   1.270478 A    
Zn14  O31   1.935120 S    
C127  C135  1.393076 A    
O51   C19   1.270192 A    
C110  C118  1.409523 A    
C69   N9    1.414659 S    
C27   H11   1.113109 S    
C186  H114  1.107806 S    
C74   C86   1.420305 A    
Zn4   O5    1.940183 S    
N10   C190  1.450831 S    
H23   C36   1.112953 S    
O20   C16   1.276659 A    
C126  H54   1.081840 S    
O10   C6    1.276676 A    
O23   C2    1.284844 A    
C110  C150  1.417568 A    
Zn11  O25   1.934870 S    
C99   C111  1.409171 A    
C177  C178  1.396919 A    
Zn10  O38   1.949298 S    
C128  C136  1.393696 A    
C97   C109  1.410751 A    
C122  H50   1.082007 S    
O45   C23   1.281350 A    
Zn9   O37   1.946748 S    
C20   C167  1.441123 S    
C184  H95   1.110833 S    
C102  C106  1.411101 A    
C183  H92   1.111554 S    
C82   C114  1.409702 A    
C146  H66   1.082339 S    
N3    H89   1.031163 S    
H18   C34   1.113036 S    
C111  C151  1.423497 A    
C153  C162  1.421260 A    
O17   C13   1.289702 A    
C177  N2    1.419416 S    
C155  C164  1.414612 A    
