data_mof_unit_31851.cif
_audit_creation_date              2012-12-10T18:24:02-0500
_audit_creation_method            fapswitch 2.2
_symmetry_space_group_name_H-M    P1
_symmetry_Int_Tables_number       1
_space_group_crystal_system       triclinic
_cell_length_a                    15.706133
_cell_length_b                    14.921571
_cell_length_c                    14.164287
_cell_angle_alpha                 91.944141
_cell_angle_beta                  87.905048
_cell_angle_gamma                 87.527725
_cell_volume                      3312.14240356

loop_
_atom_site_label
_atom_site_type_symbol
_atom_type_description
_atom_site_fract_x
_atom_site_fract_y
_atom_site_fract_z
_atom_type_partial_charge
C1    C     C_R   0.500353 0.326991 0.498728 0.882143
C2    C     C_R   0.500048 0.046584 0.498639 0.014185
C3    C     C_R   0.446234 0.906651 0.440817 0.069076
C4    C     C_R   0.553715 0.093299 0.559007 0.069292
C5    C     C_R   0.607692 0.954337 0.623006 0.449918
C6    C     C_R   0.392267 0.045594 0.376773 0.450298
C7    C     C_R   0.606676 0.047586 0.620091 -0.264234
C8    C     C_R   0.393243 0.952351 0.379768 -0.263315
C9    C     C_R   0.471691 0.576491 0.804581 0.482009
C10   C     C_R   0.528354 0.423521 0.195434 0.476780
C11   C     C_R   0.522646 0.423442 0.794784 -0.121506
C12   C     C_R   0.499575 0.673003 0.501261 0.883114
C13   C     C_R   0.477272 0.576529 0.205227 -0.119964
C14   C     C_R   0.518676 0.420821 0.894604 0.016524
C15   C     C_R   0.481224 0.579136 0.105418 0.014650
C16   C     C_R   0.338068 0.499854 0.501502 0.907883
C17   C     C_R   0.661924 0.500238 0.498505 0.909190
C18   C     C_R   0.500594 0.500265 0.949625 0.054032
C19   C     C_R   0.499308 0.499689 0.050400 0.055530
C20   C     C_R   0.482453 0.580084 0.904201 -0.101969
C21   C     C_R   0.517506 0.419885 0.095830 -0.102258
C22   C     C_R   0.530902 0.340236 0.940606 -0.182912
C23   C     C_R   0.498413 0.768611 0.503353 -0.086309
C24   C     C_R   0.469021 0.659720 0.059431 -0.182714
C25   C     C_R   0.527989 0.339364 0.039446 -0.063106
C26   C     C_R   0.471994 0.660601 0.960602 -0.048897
C27   C     C_3   0.972005 0.427030 0.538547 0.514297
C28   C     C_3   0.027914 0.574397 0.461701 0.516100
C29   C     C_3   0.034650 0.427027 0.451853 -0.323924
C30   C     C_3   0.965246 0.574401 0.548397 -0.326907
C31   C     C_1   0.249199 0.499860 0.504880 -0.104890
C32   C     C_1   0.750763 0.500759 0.495179 -0.105526
C33   C     C_3   0.021472 0.498918 0.590794 -0.113954
C34   C     C_R   0.501474 0.231367 0.496579 -0.085832
C35   C     C_3   0.978440 0.502507 0.409455 -0.114510
C36   C     C_3   0.083126 0.500135 0.504374 -0.055233
C37   C     C_3   0.916787 0.501283 0.495870 -0.053762
C38   C     C_1   0.173924 0.499934 0.505902 0.065613
C39   C     C_1   0.826012 0.501152 0.494249 0.062900
C40   C     C_R   0.446243 0.814167 0.442150 -0.194858
C41   C     C_R   0.553658 0.185785 0.557747 -0.195074
C42   C     C_R   0.952070 0.507738 0.308555 0.170107
C43   C     C_R   0.986959 0.446646 0.238423 -0.090854
C44   C     C_R   0.962933 0.453163 0.144691 -0.114286
C45   C     C_R   0.551501 0.813427 0.563571 -0.088706
C46   C     C_R   0.903863 0.520397 0.120380 -0.094540
C47   C     C_R   0.868752 0.581294 0.189778 -0.109017
C48   C     C_R   0.892838 0.575184 0.283483 -0.069908
C49   C     C_R   0.047821 0.493724 0.691704 0.171744
C50   C     C_R   0.012890 0.554819 0.761811 -0.092162
C51   C     C_R   0.036896 0.548343 0.855554 -0.113690
C52   C     C_R   0.095988 0.481145 0.879901 -0.094709
C53   C     C_R   0.131140 0.420245 0.810531 -0.110758
C54   C     C_R   0.107074 0.426314 0.716815 -0.070132
C55   C     C_R   0.448406 0.186554 0.436291 -0.091114
C56   C     C_R   0.553602 0.906632 0.563469 -0.016115
C57   C     C_R   0.446382 0.093329 0.436288 -0.016287
C58   C     C_R   0.499950 0.953374 0.501112 0.013809
H1    H     H_    0.064811 0.366102 0.415309 0.204912
H2    H     H_    0.408178 0.225763 0.391410 0.215614
H3    H     H_    0.647425 0.085121 0.665527 0.203747
H4    H     H_    0.352405 0.914801 0.334451 0.203813
H5    H     H_    0.540501 0.363101 0.752971 0.167839
H6    H     H_    0.459394 0.636863 0.247043 0.168007
H7    H     H_    0.986554 0.207159 0.644254 0.403262
H8    H     H_    0.013414 0.794367 0.356217 0.403829
H9    H     H_    0.033136 0.394430 0.255632 0.145205
H10   H     H_    0.990259 0.406173 0.090825 0.149902
H11   H     H_    0.885397 0.525349 0.047794 0.145115
H12   H     H_    0.935055 0.635323 0.584924 0.196106
H13   H     H_    0.822976 0.633354 0.170944 0.152124
H14   H     H_    0.865228 0.622910 0.336495 0.166225
H15   H     H_    0.966693 0.607009 0.744577 0.138277
H16   H     H_    0.009537 0.595334 0.909399 0.149284
H17   H     H_    0.114440 0.476224 0.952496 0.143884
H18   H     H_    0.176934 0.368213 0.829394 0.149559
H19   H     H_    0.134714 0.378583 0.663827 0.165332
H20   H     H_    0.774775 0.793134 0.686771 0.385304
H21   H     H_    0.336997 0.195257 0.188619 0.382447
H22   H     H_    0.327782 0.703777 0.645899 0.381365
H23   H     H_    0.541697 0.277522 0.900239 0.162710
H24   H     H_    0.672684 0.296574 0.353996 0.382005
H25   H     H_    0.458242 0.722435 0.099802 0.163454
H26   H     H_    0.533792 0.274507 0.070840 0.224004
H27   H     H_    0.466278 0.725476 0.929243 0.224576
H28   H     H_    0.405403 0.777277 0.395969 0.160141
H29   H     H_    0.594474 0.222660 0.603970 0.160236
H30   H     H_    0.591620 0.774221 0.608554 0.217642
N1    N     N_R   0.500040 0.500070 0.750030 -0.156854
N2    N     N_R   0.499960 0.499930 0.249970 -0.156990
O1    O     O_R   0.500020 0.367860 0.580280 -0.647830
O2    O     O_2   0.876395 0.283211 0.518273 -0.271792
O3    O     O_3   0.013379 0.258132 0.613617 -0.550100
O4    O     O_2   0.123641 0.718120 0.481970 -0.274017
O5    O     O_2   0.120216 0.647279 0.323169 -0.295121
O6    O     O_3   0.986579 0.743367 0.386793 -0.550052
O7    O     O_2   0.729478 0.967579 0.752363 -0.258485
O8    O     O_2   0.626024 0.850714 0.772195 -0.273992
O9    O     O_3   0.743795 0.827000 0.638743 -0.562507
O10   O     O_2   0.273010 0.031880 0.244557 -0.257348
O11   O     O_2   0.260879 0.162374 0.354742 -0.309539
O12   O     O_R   0.499980 0.632140 0.419720 -0.647181
O13   O     O_3   0.379637 0.158234 0.221649 -0.523458
O14   O     O_2   0.341805 0.699317 0.835950 -0.299765
O15   O     O_2   0.464232 0.743870 0.740968 -0.302445
O16   O     O_3   0.351799 0.644946 0.665069 -0.514673
O17   O     O_2   0.536406 0.256148 0.259114 -0.295713
O18   O     O_2   0.658516 0.301070 0.163907 -0.296143
O19   O     O_3   0.648568 0.355364 0.334828 -0.514023
O20   O     O_R   0.500020 0.367840 0.419730 -0.547456
O21   O     O_R   0.499980 0.632160 0.580270 -0.547238
O22   O     O_R   0.376770 0.500000 0.580260 -0.556511
O23   O     O_R   0.623230 0.500000 0.419740 -0.555551
O24   O     O_R   0.376780 0.499980 0.419710 -0.616730
O25   O     O_R   0.623220 0.500020 0.580290 -0.616431
O26   O     O_2   0.879638 0.354163 0.677038 -0.295479
S1    S     S_3+6 0.931572 0.328479 0.588272 0.037448
S2    S     S_3+6 0.068371 0.672943 0.412001 0.036181
S3    S     S_3+6 0.677592 0.900359 0.701164 0.037247
S4    S     S_3+6 0.322323 0.099461 0.298570 0.036348
S5    S     S_3+6 0.407395 0.667755 0.760683 0.048062
S6    S     S_3+6 0.592950 0.332448 0.239273 0.049590
Zn1   Zn    Zn3+2 0.499990 0.500020 0.607200 1.033885
Zn2   Zn    Zn3+2 0.500010 0.499980 0.392800 1.033482

loop_
_geom_bond_atom_site_label_1
_geom_bond_atom_site_label_2
_ccdc_geom_bond_type
C23   C45   A    
C13   N2    A    
C27   C29   S    
C14   C18   A    
C5    C56   A    
O13   S4    S    
C51   H16   S    
C43   C44   A    
C52   H17   S    
C2    C57   A    
C17   O23   A    
O8    S3    D    
C53   C54   A    
C27   C33   S    
C16   C31   S    
C15   C19   A    
C13   H6    S    
C29   C36   S    
C16   O22   A    
C5    S3    S    
O6    S2    S    
C35   C37   S    
C24   H25   S    
C24   C26   A    
C11   H5    S    
C11   C14   A    
O19   S6    S    
C4    C41   A    
C33   C49   S    
C49   C54   A    
H22   O16   S    
C33   C36   S    
O26   S1    D    
C18   C19   A    
C32   C39   T    
C40   H28   S    
C35   C42   S    
C7    H3    S    
C46   H11   S    
O20   Zn2   S    
C29   H1    S    
C28   C35   S    
C22   C25   A    
C25   H26   S    
C9    S5    S    
O10   S4    D    
C54   H19   S    
O24   Zn2   S    
H7    O3    S    
C34   C55   A    
C1    O1    A    
O1    Zn1   S    
C55   H2    S    
C6    C57   A    
H21   O13   S    
C34   C41   A    
O3    S1    S    
C48   H14   S    
C4    C7    A    
O12   Zn2   S    
C6    S4    S    
C30   H12   S    
C44   C46   A    
C1    C34   S    
C27   S1    S    
O5    S2    D    
C41   H29   S    
O25   Zn1   S    
O21   Zn1   S    
C51   C52   A    
C22   H23   S    
C45   H30   S    
C45   C56   A    
O22   Zn1   S    
C3    C8    A    
C50   H15   S    
C9    N1    A    
C5    C7    A    
C6    C8    A    
O14   S5    D    
N1    Zn1   S    
C30   C37   S    
O7    S3    D    
C2    C4    A    
O2    S1    D    
H24   O19   S    
C12   O12   A    
C1    O20   A    
C11   N1    A    
C9    C20   A    
C47   C48   A    
C12   C23   S    
C50   C51   A    
O15   S5    D    
C42   C48   A    
C47   H13   S    
C15   C24   A    
C3    C40   A    
C55   C57   A    
C44   H10   S    
C53   H18   S    
C42   C43   A    
C52   C53   A    
C17   O25   A    
H8    O6    S    
C21   C25   A    
C46   C47   A    
C30   C33   S    
C19   C21   A    
O11   S4    D    
N2    Zn2   S    
O18   S6    D    
C10   S6    S    
C16   O24   A    
C10   C21   A    
C2    C58   A    
C29   C35   S    
C31   C38   T    
C14   C22   A    
C13   C15   A    
C28   C30   S    
C37   C39   S    
C28   S2    S    
O4    S2    D    
O23   Zn2   S    
C20   C26   A    
C27   C37   S    
C26   H27   S    
O16   S5    S    
C36   C38   S    
C56   C58   A    
C18   C20   A    
O9    S3    S    
C3    C58   A    
C10   N2    A    
C28   C36   S    
C43   H9    S    
C49   C50   A    
H20   O9    S    
C17   C32   S    
O17   S6    D    
C12   O21   A    
C23   C40   A    
C8    H4    S    
