data_mof_unit_6365.cif
_audit_creation_date              2012-12-10T18:52:16-0500
_audit_creation_method            fapswitch 2.2
_symmetry_space_group_name_H-M    P1
_symmetry_Int_Tables_number       1
_space_group_crystal_system       triclinic
_cell_length_a                    15.737202
_cell_length_b                    10.696559
_cell_length_c                    9.898139
_cell_angle_alpha                 89.553934
_cell_angle_beta                  88.489508
_cell_angle_gamma                 90.754639
_cell_volume                      1665.4138686

loop_
_atom_site_label
_atom_site_type_symbol
_atom_type_description
_atom_site_fract_x
_atom_site_fract_y
_atom_site_fract_z
_atom_type_partial_charge
C1    C     C_R   0.499656 0.260076 0.500295 0.859066
C2    C     C_R   0.439516 0.435308 0.076542 -0.119444
C3    C     C_R   0.338084 0.499831 0.501565 0.905308
C4    C     C_R   0.661916 0.500169 0.498435 0.905308
C5    C     C_3   0.970254 0.385803 0.532131 0.168666
C6    C     C_3   0.029745 0.614197 0.467869 0.168668
C7    C     C_3   0.029788 0.417337 0.410729 0.182706
C8    C     C_3   0.970212 0.582662 0.589271 0.182705
C9    C     C_1   0.249361 0.499833 0.504955 -0.193902
C10   C     C_1   0.750639 0.500167 0.495045 -0.193902
C11   C     C_3   0.023506 0.467831 0.626695 0.133155
C12   C     C_R   0.500344 0.739924 0.499705 0.859066
C13   C     C_3   0.976494 0.532168 0.373305 0.133157
C14   C     C_3   0.083467 0.499756 0.504224 -0.065847
C15   C     C_3   0.916533 0.500244 0.495776 -0.065847
C16   C     C_1   0.174220 0.499848 0.505800 -0.023144
C17   C     C_1   0.825780 0.500152 0.494200 -0.023145
C18   C     C_R   0.480759 0.064470 0.381491 -0.190702
C19   C     C_R   0.519241 0.935530 0.618509 -0.190702
C20   C     C_3   0.011541 0.252484 0.241434 -0.763289
C21   C     C_3   0.988459 0.747519 0.758564 -0.763278
C22   C     C_3   0.987863 0.166526 0.603542 -0.809067
C23   C     C_R   0.481437 0.936485 0.380954 -0.202106
C24   C     C_3   0.012136 0.833474 0.396457 -0.809068
C25   C     C_3   0.945488 0.569102 0.234252 -0.867623
C26   C     C_3   0.054512 0.430897 0.765748 -0.867622
C27   C     C_3   0.632732 0.634984 0.131537 -0.842618
C28   C     C_3   0.367268 0.365016 0.868463 -0.842617
C29   C     C_R   0.518562 0.063515 0.619046 -0.202106
C30   C     C_R   0.500568 0.872462 0.499499 -0.012247
C31   C     C_R   0.499432 0.127538 0.500501 -0.012247
C32   C     C_R   0.561353 0.565081 0.066782 0.243654
C33   C     C_R   0.438647 0.434919 0.933218 0.243654
C34   C     C_R   0.560483 0.564692 0.923458 -0.119444
H1    H     H_    0.465221 0.113623 0.289415 0.156234
H2    H     H_    0.971278 0.192821 0.310084 0.259995
H3    H     H_    0.882677 0.720013 0.640622 0.220214
H4    H     H_    0.950982 0.809190 0.826612 0.226617
H5    H     H_    0.028714 0.807192 0.689911 0.259990
H6    H     H_    0.029201 0.689243 0.822295 0.249475
H7    H     H_    0.877708 0.270248 0.625022 0.235015
H8    H     H_    0.956026 0.074635 0.588671 0.241965
H9    H     H_    0.002445 0.175019 0.712134 0.241153
H10   H     H_    0.047788 0.168877 0.542016 0.247514
H11   H     H_    0.122292 0.729752 0.374978 0.235014
H12   H     H_    0.534779 0.886377 0.710585 0.156234
H13   H     H_    0.043973 0.925364 0.411329 0.241966
H14   H     H_    0.952211 0.831122 0.457983 0.247513
H15   H     H_    0.997554 0.824980 0.287865 0.241153
H16   H     H_    0.000625 0.583931 0.163493 0.246246
H17   H     H_    0.902984 0.495136 0.195205 0.238095
H18   H     H_    0.908181 0.656055 0.241777 0.238602
H19   H     H_    0.999375 0.416069 0.836507 0.246246
H20   H     H_    0.091818 0.343944 0.758223 0.238602
H21   H     H_    0.097017 0.504863 0.804796 0.238094
H22   H     H_    0.666859 0.697727 0.057754 0.193553
H23   H     H_    0.466337 0.888066 0.288679 0.159672
H24   H     H_    0.608939 0.695101 0.213861 0.266394
H25   H     H_    0.680057 0.567967 0.168555 0.252656
H26   H     H_    0.333141 0.302273 0.942246 0.193553
H27   H     H_    0.319943 0.432032 0.831445 0.252656
H28   H     H_    0.391061 0.304899 0.786139 0.266394
H29   H     H_    0.533663 0.111934 0.711320 0.159672
H30   H     H_    0.608748 0.615446 0.864612 0.147199
H31   H     H_    0.391252 0.384554 0.135388 0.147200
H32   H     H_    0.117321 0.279984 0.359380 0.220215
H33   H     H_    0.049018 0.190803 0.173396 0.226616
H34   H     H_    0.970807 0.310762 0.177692 0.249477
N1    N     N_R   0.499980 0.499970 0.857200 -0.097942
N2    N     N_R   0.500020 0.500030 0.142800 -0.097941
N3    N     N_2   0.068836 0.329815 0.317482 -0.290903
N4    N     N_2   0.931164 0.670185 0.682519 -0.290904
N5    N     N_2   0.931438 0.264969 0.563591 -0.292949
N6    N     N_2   0.068561 0.735031 0.436408 -0.292948
O1    O     O_R   0.499990 0.316750 0.614620 -0.632834
O2    O     O_R   0.500010 0.683250 0.385380 -0.632833
O3    O     O_R   0.500000 0.316780 0.385290 -0.622379
O4    O     O_R   0.500000 0.683220 0.614710 -0.622379
O5    O     O_R   0.376780 0.499970 0.614640 -0.613228
O6    O     O_R   0.623220 0.500030 0.385360 -0.613228
O7    O     O_R   0.376780 0.500000 0.385310 -0.616254
O8    O     O_R   0.623220 0.500000 0.614690 -0.616254
Zn1   Zn    Zn3+2 0.500000 0.499980 0.653120 0.943319
Zn2   Zn    Zn3+2 0.500000 0.500020 0.346880 0.943319

loop_
_geom_bond_atom_site_label_1
_geom_bond_atom_site_label_2
_ccdc_geom_bond_type
C29   H29   S    
C1    O3    A    
C20   H33   S    
O6    Zn2   S    
C2    H31   S    
C3    O5    A    
C26   H21   S    
O2    Zn2   S    
C19   H12   S    
C3    C9    S    
C9    C16   T    
C4    O6    A    
C7    N3    S    
C11   C14   S    
C10   C17   T    
C1    C31   S    
C15   C17   S    
C25   H16   S    
O4    Zn1   S    
O1    Zn1   S    
C7    C14   S    
C22   H10   S    
C21   H4    S    
H32   N3    S    
C12   O4    A    
C3    O7    A    
C20   N3    S    
N2    Zn2   S    
C18   H1    S    
C33   N1    A    
C28   H27   S    
C13   C25   S    
C26   H20   S    
C6    N6    S    
C28   H26   S    
C8    N4    S    
C21   N4    S    
C18   C23   A    
C1    O1    A    
C23   C30   A    
C5    C7    S    
C27   H22   S    
C32   N2    A    
O3    Zn2   S    
H11   N6    S    
C24   H14   S    
C25   H17   S    
N1    Zn1   S    
C6    C14   S    
C22   H9    S    
C21   H5    S    
C34   H30   S    
C34   N1    A    
C2    C33   A    
C28   C33   S    
C8    C15   S    
C13   C15   S    
C14   C16   S    
C4    C10   S    
C19   C29   A    
C26   H19   S    
O7    Zn2   S    
C24   H15   S    
C23   H23   S    
C12   C30   S    
C27   C32   S    
C24   H13   S    
C20   H34   S    
C27   H24   S    
C6    C8    S    
C5    C11   S    
C11   C26   S    
C12   O2    A    
C25   H18   S    
C29   C31   A    
C27   H25   S    
C6    C13   S    
O5    Zn1   S    
C24   N6    S    
C22   H8    S    
C21   H6    S    
C8    C11   S    
C5    N5    S    
C5    C15   S    
H7    N5    S    
C20   H2    S    
C7    C13   S    
C4    O8    A    
O8    Zn1   S    
H3    N4    S    
C18   C31   A    
C22   N5    S    
C2    N2    A    
C19   C30   A    
C32   C34   A    
C28   H28   S    
