data_mof_unit_59477.cif
_audit_creation_date              2013-03-05T16:34:53-0500
_audit_creation_method            fapswitch 2.2
_symmetry_space_group_name_H-M    P1
_symmetry_Int_Tables_number       1
_space_group_crystal_system       triclinic
_cell_length_a                    15.136638
_cell_length_b                    9.097555
_cell_length_c                    7.777705
_cell_angle_alpha                 89.973741
_cell_angle_beta                  89.999972
_cell_angle_gamma                 89.999921
_cell_volume                      1071.03961782

loop_
_atom_site_label
_atom_site_type_symbol
_atom_site_description
_atom_site_fract_x
_atom_site_fract_y
_atom_site_fract_z
_atom_type_partial_charge
O1    O     O_R   0.500000 0.288390 0.642760 -0.585876
O2    O     O_R   0.500000 0.711610 0.357240 -0.585876
O3    O     O_R   0.500000 0.711610 0.642760 -0.570521
O4    O     O_R   0.500000 0.288390 0.357240 -0.570521
C1    C     C_R   0.500000 0.219990 0.500023 0.833874
C2    C     C_R   0.500000 0.780010 0.499977 0.833874
O5    O     O_R   0.370260 0.500000 0.642800 -0.532327
O6    O     O_R   0.629740 0.500000 0.357200 -0.532329
O7    O     O_R   0.629740 0.500000 0.642800 -0.532328
O8    O     O_R   0.370260 0.500000 0.357200 -0.532327
C3    C     C_R   0.328199 0.500000 0.500000 0.889161
C4    C     C_R   0.671801 0.500000 0.500000 0.889168
Cu1   Cu    Cu3+1 0.500000 0.500000 0.669080 1.135020
Cu2   Cu    Cu3+1 0.500000 0.500000 0.330920 1.135019
N1    N     N_1   0.500000 0.500000 0.076820 0.007919
N2    N     N_1   0.500000 0.500000 0.923180 0.007919
C5    C     C_R   0.814599 0.554346 0.643102 0.639385
C6    C     C_R   0.185401 0.445662 0.356893 0.639384
C7    C     C_R   0.814599 0.445654 0.356897 0.639380
C8    C     C_R   0.185400 0.554340 0.643106 0.639388
C9    C     C_R   0.768493 0.500000 0.500000 -0.373521
C10   C     C_R   0.231506 0.500001 0.500000 -0.373532
C11   C     C_R   0.907047 0.445454 0.355523 -0.164047
C12   C     C_R   0.092953 0.554545 0.644477 -0.164048
C13   C     C_R   0.907046 0.554548 0.644475 -0.164046
C14   C     C_R   0.092953 0.445458 0.355520 -0.164051
C15   C     C_R   0.953486 0.500001 0.499999 -0.184286
C16   C     C_R   0.046513 0.500001 0.499999 -0.184287
C17   C     C_R   0.954074 0.391432 0.212955 0.626405
C18   C     C_R   0.045926 0.608569 0.787041 0.626419
C19   C     C_R   0.954073 0.608571 0.787039 0.626414
C20   C     C_R   0.045926 0.391434 0.212953 0.626411
C21   C     C_1   0.500000 0.065357 0.500032 -0.107637
C22   C     C_1   0.500000 0.934642 0.499968 -0.107637
F1    F     F_    0.911673 0.338227 0.072145 -0.543809
F2    F     F_    0.088326 0.661772 0.927848 -0.543813
F3    F     F_    0.911673 0.661777 0.927844 -0.543814
F4    F     F_    0.088327 0.338233 0.072142 -0.543807
F5    F     F_    0.769118 0.609899 0.779214 -0.547679
F6    F     F_    0.230882 0.390118 0.220774 -0.547671
F7    F     F_    0.769118 0.390101 0.220785 -0.547680
F8    F     F_    0.230881 0.609882 0.779226 -0.547669

loop_
_geom_bond_atom_site_label_1
_geom_bond_atom_site_label_2
_geom_bond_distance
_ccdc_geom_bond_type
C13   C19   1.406499 A    
C8    F8    1.360367 S    
C14   C20   1.406517 A    
C11   C15   1.415483 A    
C13   C15   1.415479 A    
C12   C16   1.415480 A    
C17   F1    1.358711 S    
C3    C10   1.463602 S    
C14   C16   1.415486 A    
O3    Cu1   1.935894 S    
C18   F2    1.358686 S    
O6    C4    1.280191 A    
O3    C2    1.272735 A    
C5    C13   1.399386 A    
C21   C22   1.189188 T    
C6    C10   1.403852 A    
Cu1   Cu2   2.630110 S    
O5    C3    1.280192 A    
O2    C2    1.272922 A    
O1    C1    1.272922 A    
C11   C17   1.406516 A    
C7    C9    1.403846 A    
C8    C10   1.403849 A    
C17   C20   1.390338 A    
C20   F4    1.358714 S    
C1    C21   1.406774 S    
O4    Cu2   1.935895 S    
C18   C19   1.390337 A    
O2    Cu2   1.936080 S    
O7    C4    1.280191 A    
C12   C18   1.406500 A    
O1    Cu1   1.936081 S    
O8    C3    1.280192 A    
N1    N2    1.194967 T    
C2    C22   1.406774 S    
O5    Cu1   1.974437 S    
C5    F5    1.360360 S    
Cu1   N2    1.976314 S    
C15   C16   1.408111 A    
O7    Cu1   1.974436 S    
C7    C11   1.399386 A    
C6    F6    1.360368 S    
O6    Cu2   1.974436 S    
Cu2   N1    1.976314 S    
C4    C9    1.463599 S    
C8    C12   1.399386 A    
C5    C9    1.403842 A    
C7    F7    1.360361 S    
C19   F3    1.358684 S    
O4    C1    1.272735 A    
O8    Cu2   1.974437 S    
C6    C14   1.399386 A    
