data_mof_unit_33327.cif
_audit_creation_date              2012-12-11T15:14:39-0500
_audit_creation_method            fapswitch 2.2
_symmetry_space_group_name_H-M    P1
_symmetry_Int_Tables_number       1
_space_group_crystal_system       triclinic
_cell_length_a                    22.249679
_cell_length_b                    7.22418
_cell_length_c                    19.312763
_cell_angle_alpha                 89.40125
_cell_angle_beta                  98.954726
_cell_angle_gamma                 89.595546
_cell_volume                      3066.12852419

loop_
_atom_site_label
_atom_site_type_symbol
_atom_type_description
_atom_site_fract_x
_atom_site_fract_y
_atom_site_fract_z
_atom_type_partial_charge
O1    O     O_R   0.448470 0.506130 0.415700 -0.528597
O2    O     O_R   0.551530 0.006130 0.584300 -0.528604
O3    O     O_R   0.436320 0.174490 0.555800 -0.531927
O4    O     O_R   0.563680 0.674490 0.444200 -0.526403
C1    C     C_R   0.421345 0.344178 0.575464 0.709036
C2    C     C_R   0.578383 0.844185 0.424140 0.708939
O5    O     O_R   0.441350 0.176340 0.414480 -0.537938
O6    O     O_R   0.558650 0.676340 0.585520 -0.534398
O7    O     O_R   0.556600 0.007100 0.441970 -0.528320
O8    O     O_R   0.443400 0.507100 0.558030 -0.525840
C3    C     C_R   0.428092 0.346343 0.388505 0.712574
C4    C     C_R   0.572396 0.843846 0.611161 0.714576
O9    O     O_3   0.537810 0.339550 0.509190 -0.371173
O10   O     O_3   0.462190 0.839550 0.490810 -0.375216
V1    V     V_3+5 0.492990 0.064280 0.498300 1.485961
V2    V     V_3+5 0.507010 0.564280 0.501700 1.498492
C5    C     C_R   0.864179 0.993363 0.698903 -0.147735
C6    C     C_R   0.132096 0.369910 0.301090 -0.145892
H1    H     H_    0.949607 0.041934 0.763158 0.137920
H2    H     H_    0.045166 0.425456 0.239730 0.136421
H3    H     H_    0.882673 0.028382 0.651828 0.168502
H4    H     H_    0.111926 0.348603 0.348079 0.171264
C7    C     C_R   0.882585 0.945570 0.824078 -0.124617
C8    C     C_R   0.116714 0.430827 0.176398 -0.118336
C9    C     C_R   0.585541 0.843009 0.740876 0.143314
C10   C     C_R   0.415235 0.417561 0.261324 0.145644
C11   C     C_R   0.620872 0.865544 0.806195 -0.147054
C12   C     C_R   0.378987 0.469200 0.198737 -0.151299
C13   C     C_R   0.683430 0.891065 0.812495 -0.174396
C14   C     C_R   0.315848 0.465804 0.192179 -0.172911
C15   C     C_R   0.713713 0.887004 0.753389 0.084669
C16   C     C_R   0.286374 0.399367 0.247112 0.076777
C17   C     C_R   0.676824 0.874197 0.685835 -0.021978
C18   C     C_R   0.323659 0.353110 0.312434 -0.020212
C19   C     C_R   0.778623 0.908027 0.758585 -0.057707
C20   C     C_R   0.221143 0.390009 0.240946 -0.056032
C21   C     C_R   0.802933 0.942746 0.695798 -0.009050
C22   C     C_R   0.195324 0.354553 0.302691 -0.009026
C23   C     C_R   0.766673 0.920816 0.630048 0.423949
C24   C     C_R   0.232560 0.298675 0.365084 0.404668
C25   C     C_R   0.704464 0.888121 0.625503 -0.265666
C26   C     C_R   0.295772 0.301472 0.369857 -0.284971
C27   C     C_R   0.821125 0.892422 0.822636 0.339301
C28   C     C_R   0.180018 0.407933 0.176029 0.347730
C29   C     C_R   0.902820 0.000199 0.762423 -0.256985
C30   C     C_R   0.093690 0.414113 0.239234 -0.253456
C31   C     C_R   0.612626 0.850529 0.679893 -0.102542
C32   C     C_R   0.388294 0.363647 0.319521 -0.104043
H5    H     H_    0.706211 0.921661 0.864279 0.189440
H6    H     H_    0.291456 0.523235 0.144237 0.189348
H7    H     H_    0.599417 0.867232 0.852805 0.166082
H8    H     H_    0.399969 0.517959 0.155059 0.164324
H9    H     H_    0.677848 0.877154 0.573792 0.111952
H10   H     H_    0.322694 0.262167 0.419519 0.124075
C33   C     C_3   0.763051 0.759606 0.290709 0.195772
C34   C     C_3   0.232935 0.273777 0.703975 0.209301
C35   C     C_3   0.799205 0.937473 0.280972 -0.174884
C36   C     C_3   0.198752 0.454657 0.716383 -0.172670
H11   H     H_    0.843746 0.974148 0.311927 0.157665
H12   H     H_    0.154600 0.501307 0.686140 0.158536
H13   H     H_    0.733730 0.184984 0.303647 0.189441
H14   H     H_    0.266061 0.697651 0.696948 0.180191
C37   C     C_1   0.872976 0.939854 0.118122 -0.159311
C38   C     C_1   0.126058 0.440992 0.880605 -0.164194
C39   C     C_1   0.622815 0.852289 0.376409 -0.119267
C40   C     C_1   0.375927 0.353231 0.621929 -0.121584
C41   C     C_3   0.750719 0.732790 0.210421 -0.157579
C42   C     C_3   0.244956 0.233664 0.783781 -0.173998
C43   C     C_3   0.786263 0.911077 0.200972 0.067051
C44   C     C_3   0.211407 0.414958 0.795905 0.067408
C45   C     C_3   0.691051 0.848207 0.206324 -0.145947
C46   C     C_3   0.305772 0.340956 0.789474 -0.147578
C47   C     C_3   0.704184 0.874729 0.286408 0.069999
C48   C     C_3   0.293026 0.380510 0.709855 0.070601
C49   C     C_3   0.727312 0.026115 0.196254 0.210787
C50   C     C_3   0.271491 0.521874 0.802032 0.215048
C51   C     C_3   0.739609 0.053304 0.276589 -0.163523
C52   C     C_3   0.259541 0.562116 0.722143 -0.169360
C53   C     C_1   0.833518 0.928320 0.154940 0.023637
C54   C     C_1   0.164833 0.430678 0.842854 0.021069
C55   C     C_1   0.659397 0.860638 0.335782 0.052879
C56   C     C_1   0.338474 0.364029 0.661410 0.052161
H15   H     H_    0.646428 0.811301 0.175622 0.174622
H16   H     H_    0.349956 0.294247 0.819616 0.174237
H17   H     H_    0.756073 0.600725 0.183230 0.180775
H18   H     H_    0.238509 0.098103 0.809019 0.176343
O11   O     O_R   0.056650 0.288730 0.942060 -0.538605
O12   O     O_R   0.943350 0.788730 0.057940 -0.536703
O13   O     O_R   0.058660 0.616870 0.085540 -0.534264
O14   O     O_R   0.941340 0.116870 0.914460 -0.540082
C57   C     C_R   0.073089 0.446953 0.110557 0.733704
C58   C     C_R   0.926350 0.949583 0.889861 0.735491
O15   O     O_R   0.063700 0.618520 0.944220 -0.528720
O16   O     O_R   0.936300 0.118520 0.055780 -0.532925
O17   O     O_R   0.948460 0.787610 0.915680 -0.545019
O18   O     O_R   0.051540 0.287610 0.084320 -0.544939
C59   C     C_R   0.079222 0.450130 0.925110 0.719136
C60   C     C_R   0.920522 0.949870 0.074584 0.723653
O19   O     O_3   0.962230 0.453430 0.990860 -0.385759
O20   O     O_3   0.037770 0.953430 0.009140 -0.378461
V3    V     V_3+5 0.007010 0.728750 0.001700 1.416273
V4    V     V_3+5 0.992990 0.228750 0.998300 1.399207
I1    I     I_    0.792539 0.536824 0.360930 -0.522223
I2    I     I_    0.199966 0.071097 0.628508 -0.491124
I3    I     I_    0.697643 0.235850 0.119657 -0.408573
I4    I     I_    0.302992 0.719999 0.880348 -0.418052
O21   O     O_3   0.792776 0.932820 0.569552 -0.577356
C61   C     C_3   0.798416 0.753749 0.541755 0.085305
H19   H     H_    0.812547 0.773250 0.489629 0.190479
H20   H     H_    0.754071 0.680289 0.532803 0.126787
C62   C     C_3   0.847336 0.634626 0.587478 -0.369971
H21   H     H_    0.891065 0.710578 0.596110 0.207956
H22   H     H_    0.833273 0.605568 0.639208 0.192154
C63   C     C_3   0.857238 0.449550 0.553482 -0.725349
H23   H     H_    0.813661 0.373598 0.541656 0.258314
H24   H     H_    0.889872 0.363569 0.589894 0.221855
H25   H     H_    0.876576 0.471925 0.504488 0.255351
O22   O     O_3   0.206716 0.238010 0.421911 -0.566890
C64   C     C_3   0.216153 0.044319 0.431680 0.099559
H26   H     H_    0.244282 0.020100 0.483755 0.170495
H27   H     H_    0.240611 0.976750 0.392086 0.097530
C65   C     C_3   0.154724 0.949311 0.429550 -0.313422
H28   H     H_    0.129670 0.011762 0.469118 0.235479
H29   H     H_    0.127223 0.970974 0.376865 0.188166
C66   C     C_3   0.162700 0.741787 0.444247 -0.746879
H30   H     H_    0.187130 0.676601 0.404720 0.231630
H31   H     H_    0.117391 0.676369 0.441424 0.234359
H32   H     H_    0.188821 0.716562 0.497418 0.253209
O23   O     O_3   0.803813 0.823987 0.883655 -0.595618
C67   C     C_3   0.819445 0.633691 0.892705 0.083192
H33   H     H_    0.848124 0.616418 0.944866 0.167200
H34   H     H_    0.846096 0.577134 0.852983 0.109576
C68   C     C_3   0.761861 0.519095 0.892045 -0.342071
H35   H     H_    0.734630 0.575662 0.930726 0.224423
H36   H     H_    0.734006 0.527343 0.839096 0.205393
C69   C     C_3   0.777319 0.316519 0.910190 -0.734441
H37   H     H_    0.803529 0.256767 0.871260 0.225044
H38   H     H_    0.734676 0.237224 0.909308 0.240777
H39   H     H_    0.804556 0.303608 0.963378 0.237926
O24   O     O_3   0.200068 0.388029 0.112115 -0.595879
C70   C     C_3   0.192243 0.202535 0.089039 0.076068
H40   H     H_    0.171923 0.207188 0.032730 0.150202
H41   H     H_    0.160706 0.119582 0.116573 0.118698
C71   C     C_3   0.253779 0.102458 0.096250 -0.334522
H42   H     H_    0.285118 0.182612 0.068041 0.225203
H43   H     H_    0.273954 0.091917 0.152497 0.202676
C72   C     C_3   0.247036 0.907608 0.066298 -0.748615
H44   H     H_    0.217119 0.823431 0.095049 0.230909
H45   H     H_    0.292411 0.839226 0.071826 0.244627
H46   H     H_    0.227349 0.913634 0.009804 0.248468
I5    I     I_    0.490276 0.808368 0.737576 -0.364208
I6    I     I_    0.511184 0.433248 0.265558 -0.366062

loop_
_geom_bond_atom_site_label_1
_geom_bond_atom_site_label_2
_ccdc_geom_bond_type
C24   O22   S    
C7    C29   A    
O18   V4    S    
C11   C13   A    
C46   C48   S    
C42   H18   S    
C62   H21   S    
O1    C3    A    
C46   C50   S    
O2    C4    A    
C2    O7    A    
C63   H23   S    
C23   C25   A    
C37   C53   T    
O5    C3    A    
C16   C20   A    
C22   C24   A    
C5    C29   A    
C37   C60   S    
C71   C72   S    
C35   H11   S    
O16   C60   A    
C36   H12   S    
C33   I1    S    
C7    C27   A    
C61   H19   S    
O22   C64   S    
O14   V4    S    
C57   O18   A    
O14   C58   A    
C2    C39   S    
C72   H44   S    
H13   C51   S    
C18   C26   A    
C66   H32   S    
O21   C61   S    
C15   C17   A    
O13   C57   A    
C19   C27   A    
C9    C31   A    
C7    C58   S    
C10   C32   A    
C4    C31   S    
C14   H6    S    
C28   O24   S    
C45   C49   S    
C13   C15   A    
C38   C54   T    
C3    C32   S    
C48   C56   S    
C69   H39   S    
C6    C30   A    
C47   C55   S    
C11   H7    S    
O12   V3    S    
C45   H15   S    
C64   H27   S    
C41   H17   S    
C34   C48   S    
C44   C54   S    
C35   C51   S    
C27   O23   S    
C72   H46   S    
O24   C70   S    
C34   I2    S    
C71   H43   S    
C70   C71   S    
O15   V3    S    
C45   C47   S    
C36   C44   S    
C13   H5    S    
O5    V1    S    
C34   C42   S    
C58   O17   A    
C5    H3    S    
C42   C46   S    
C41   C43   S    
C70   H41   S    
C16   C18   A    
O4    V2    S    
C67   H34   S    
C40   C56   T    
O11   V4    S    
C39   C55   T    
O6    C4    A    
C62   H22   S    
O1    V2    S    
C5    C21   A    
O2    V1    S    
C49   C51   S    
C25   H9    S    
C46   H16   S    
C68   C69   S    
O4    C2    A    
C38   C59   S    
C49   I3    S    
C33   C35   S    
C44   C50   S    
C68   H35   S    
C17   C31   A    
C15   C19   A    
C43   C53   S    
C67   C68   S    
C18   C32   A    
C65   H29   S    
C20   C22   A    
C8    C57   S    
O15   C59   A    
O3    V1    S    
C19   C21   A    
C69   H38   S    
C66   H31   S    
O23   C67   S    
C64   C65   S    
C50   I4    S    
O13   V3    S    
C6    H4    S    
H14   C52   S    
C50   C52   S    
C1    C40   S    
O3    C1    A    
C23   O21   S    
C63   H24   S    
C64   H26   S    
H1    C29   S    
C9    C11   A    
C72   H45   S    
C10   C12   A    
C61   C62   S    
C9    I5    S    
C71   H42   S    
C8    C30   A    
C65   C66   S    
C10   I6    S    
C67   H33   S    
C6    C22   A    
C17   C25   A    
C12   C14   A    
C21   C23   A    
O8    V2    S    
C70   H40   S    
C26   H10   S    
C14   C16   A    
C12   H8    S    
C66   H30   S    
C61   H20   S    
C33   C41   S    
C8    C28   A    
C24   C26   A    
O20   V3    S    
C34   C36   S    
C43   C49   S    
C62   C63   S    
C41   C45   S    
O7    V1    S    
O12   C60   A    
C63   H25   S    
C20   C28   A    
C36   C52   S    
C33   C47   S    
C1    O8    A    
O19   V4    S    
O16   V4    S    
O6    V2    S    
C48   C52   S    
O9    V2    S    
C68   H36   S    
C42   C44   S    
C47   C51   S    
O10   V1    S    
C69   H37   S    
C35   C43   S    
C65   H28   S    
H2    C30   S    
O17   V3    S    
O11   C59   A    
