data_mof_unit_40449.cif
_audit_creation_date              2012-12-10T17:07:02-0500
_audit_creation_method            fapswitch 2.2
_symmetry_space_group_name_H-M    P1
_symmetry_Int_Tables_number       1
_space_group_crystal_system       triclinic
_cell_length_a                    18.250769
_cell_length_b                    18.43401
_cell_length_c                    18.400327
_cell_angle_alpha                 120.462563
_cell_angle_beta                  120.414918
_cell_angle_gamma                 59.470944
_cell_volume                      4330.67776056

loop_
_atom_site_label
_atom_site_type_symbol
_atom_type_description
_atom_site_fract_x
_atom_site_fract_y
_atom_site_fract_z
_atom_type_partial_charge
C1    C     C_R   0.141095 0.860782 0.640931 0.573974
C2    C     C_R   0.917619 0.351563 0.963093 -0.078906
C3    C     C_R   0.964617 0.307540 0.903707 0.126156
C4    C     C_R   0.856225 0.140381 0.359866 0.531068
C5    C     C_R   0.927841 0.255342 0.816863 -0.096312
C6    C     C_R   0.743662 0.336849 0.423862 0.063223
C7    C     C_R   0.741193 0.426710 0.470452 0.119412
C8    C     C_R   0.745196 0.471842 0.430084 0.132653
C9    C     C_R   0.744762 0.429345 0.340733 0.153905
C10   C     C_R   0.737658 0.342595 0.292006 -0.027571
C11   C     C_R   0.758197 0.291469 0.340267 -0.053026
C12   C     C_R   0.568271 0.263964 0.679016 -0.135276
C13   C     C_R   0.795374 0.197131 0.303441 0.030461
C14   C     C_R   0.787141 0.157272 0.212973 -0.151876
C15   C     C_R   0.744132 0.208585 0.158498 0.017070
C16   C     C_R   0.140762 0.139460 0.645444 0.503633
C17   C     C_R   0.713790 0.303275 0.197194 0.008164
C18   C     C_R   0.697001 0.909980 0.396219 -0.101110
C19   C     C_R   0.623217 0.929741 0.415958 -0.114529
C20   C     C_R   0.568518 0.877206 0.361651 -0.121128
C21   C     C_R   0.588320 0.803474 0.288226 -0.101083
C22   C     C_R   0.665941 0.778818 0.269657 0.010723
C23   C     C_R   0.660273 0.257149 0.716366 -0.022499
C24   C     C_R   0.721020 0.833253 0.324065 -0.003460
C25   C     C_R   0.796853 0.810611 0.303190 0.046480
C26   C     C_R   0.815128 0.737074 0.227571 0.097406
C27   C     C_R   0.761119 0.684065 0.175531 -0.127302
C28   C     C_R   0.858168 0.861847 0.359847 0.520475
C29   C     C_R   0.688503 0.703003 0.196559 -0.004023
C30   C     C_R   0.107384 0.901187 0.797389 -0.118884
C31   C     C_R   0.070718 0.907827 0.851617 -0.157993
C32   C     C_R   0.092351 0.832615 0.869355 0.068526
C33   C     C_R   0.158596 0.751792 0.838066 0.166538
C34   C     C_R   0.712895 0.205345 0.660320 0.008276
C35   C     C_R   0.210884 0.752678 0.801126 -0.020577
C36   C     C_R   0.173289 0.821165 0.766433 -0.043035
C37   C     C_R   0.200009 0.806667 0.699249 0.048086
C38   C     C_R   0.275858 0.732672 0.679413 0.088307
C39   C     C_R   0.326059 0.674063 0.728776 0.029751
C40   C     C_R   0.140359 0.861286 0.360340 0.540476
C41   C     C_R   0.296149 0.686806 0.793166 -0.016440
C42   C     C_R   0.145749 0.938089 0.253516 0.178932
C43   C     C_R   0.144660 0.966754 0.194804 0.164251
C44   C     C_R   0.198337 0.909098 0.140545 -0.100085
C45   C     C_R   0.699537 0.302727 0.807955 0.034845
C46   C     C_R   0.250927 0.822450 0.141499 -0.105330
C47   C     C_R   0.249978 0.789746 0.195610 -0.038677
C48   C     C_R   0.196360 0.847436 0.252055 0.004723
C49   C     C_R   0.197229 0.811911 0.305650 0.009070
C50   C     C_R   0.252864 0.725522 0.307191 -0.150658
C51   C     C_R   0.307020 0.670263 0.254083 0.107504
C52   C     C_R   0.860324 0.140348 0.639986 0.494098
C53   C     C_R   0.303802 0.701134 0.196432 0.062856
C54   C     C_R   0.282490 0.121242 0.829972 0.025454
C55   C     C_R   0.349001 0.117883 0.914212 0.108763
C56   C     C_R   0.790822 0.299557 0.844539 -0.009941
C57   C     C_R   0.387307 0.184552 0.969633 -0.127255
C58   C     C_R   0.363508 0.254007 0.942793 0.046659
C59   C     C_R   0.309249 0.250397 0.852383 -0.004916
C60   C     C_R   0.262256 0.187215 0.796144 -0.064597
C61   C     C_R   0.198093 0.194634 0.709818 0.013032
C62   C     C_R   0.185104 0.259348 0.682005 -0.136888
C63   C     C_R   0.237107 0.313521 0.733332 -0.131798
C64   C     C_R   0.671470 0.165916 0.567635 -0.090061
C65   C     C_R   0.300878 0.307515 0.816012 0.054563
C66   C     C_R   0.637686 0.642006 0.140129 0.521150
C67   C     C_R   0.841269 0.250642 0.785795 -0.025923
C68   C     C_R   0.359192 0.360497 0.860883 0.536580
C69   C     C_R   0.646362 0.359782 0.140241 0.566549
C70   C     C_R   0.357995 0.638228 0.857518 0.540121
C71   C     C_R   0.359711 0.640787 0.139897 0.517616
C72   C     C_R   0.641244 0.360003 0.861772 0.524313
C73   C     C_R   0.579012 0.178131 0.530394 0.095992
C74   C     C_R   0.527893 0.223604 0.587526 0.037947
C75   C     C_3   0.121128 0.279558 0.000443 -0.307238
C76   C     C_2   0.716880 0.295073 0.454295 0.618023
C77   C     C_3   0.828301 0.453650 0.627220 -0.241504
C78   C     C_R   0.804234 0.198761 0.696577 0.038998
C79   C     C_3   0.666970 0.631593 0.469544 -0.312843
C80   C     C_3   0.851173 0.426102 0.296291 -0.311961
C81   C     C_2   0.739742 0.159455 0.063715 0.593607
C82   C     C_3   0.870019 0.737918 0.133420 -0.260815
C83   C     C_3   0.358337 0.752103 0.622760 -0.212579
C84   C     C_2   0.041218 0.839781 0.916300 0.547596
C85   C     C_3   0.129096 0.611294 0.730221 -0.273686
C86   C     C_2   0.404929 0.594656 0.707402 0.598842
C87   C     C_3   0.154901 0.050937 0.399787 -0.271817
C88   C     C_3   0.001879 0.066574 0.130341 -0.276946
C89   C     C_R   0.833776 0.345171 0.936594 0.049826
C90   C     C_3   0.478205 0.216232 0.395383 -0.270654
C91   C     C_3   0.446709 0.575150 0.328577 -0.276888
C92   C     C_2   0.239299 0.052460 0.781063 0.622354
C93   C     C_3   0.320061 0.063744 0.989308 -0.302275
C94   C     C_2   0.385989 0.334306 0.015244 0.560326
C95   C     C_2   0.432048 0.230452 0.553842 0.588909
C96   C     C_2   0.799998 0.380589 0.010316 0.547049
H1    H     H_    0.733109 0.956822 0.437473 0.130776
H2    H     H_    0.199338 0.931644 0.097045 0.110147
H3    H     H_    0.292126 0.781419 0.098899 0.128766
H4    H     H_    0.136484 0.265446 0.617471 0.123989
H5    H     H_    0.431986 0.185011 0.037074 0.151329
H6    H     H_    0.228946 0.359318 0.707236 0.132569
H7    H     H_    0.526208 0.301083 0.720479 0.149574
H8    H     H_    0.947827 0.389492 0.031565 0.137249
H9    H     H_    0.967554 0.220124 0.773673 0.131548
H10   H     H_    0.816204 0.085338 0.184526 0.163763
H11   H     H_    0.068833 0.298447 0.879065 0.246097
H12   H     H_    0.607307 0.987297 0.472654 0.126703
H13   H     H_    0.184638 0.285789 0.013848 0.154786
H14   H     H_    0.131627 0.207764 0.978948 0.134229
H15   H     H_    0.105308 0.316510 0.063519 0.153835
H16   H     H_    0.669636 0.200212 0.420417 0.317929
H17   H     H_    0.700724 0.536612 0.575120 0.270171
H18   H     H_    0.821064 0.483776 0.693972 0.158179
H19   H     H_    0.868094 0.484235 0.628322 0.140411
H20   H     H_    0.865273 0.380680 0.613824 0.186262
H21   H     H_    0.801819 0.567334 0.477614 0.253309
H22   H     H_    0.636676 0.632554 0.400198 0.144536
H23   H     H_    0.509650 0.894436 0.375659 0.117136
H24   H     H_    0.678271 0.696145 0.516650 0.158274
H25   H     H_    0.618718 0.625140 0.483874 0.141182
H26   H     H_    0.741536 0.537180 0.326568 0.268190
H27   H     H_    0.856260 0.458054 0.262333 0.168248
H28   H     H_    0.864026 0.353923 0.256026 0.154942
H29   H     H_    0.903280 0.433821 0.363993 0.137339
H30   H     H_    0.716872 0.053679 0.952862 0.353260
H31   H     H_    0.931244 0.646470 0.197754 0.248967
H32   H     H_    0.933517 0.723522 0.126472 0.154935
H33   H     H_    0.831276 0.810549 0.146387 0.185605
H34   H     H_    0.541051 0.767598 0.246004 0.128932
H35   H     H_    0.829785 0.699188 0.069708 0.136936
H36   H     H_    0.307497 0.647886 0.562004 0.255489
H37   H     H_    0.327194 0.789321 0.576303 0.171339
H38   H     H_    0.421715 0.698640 0.611169 0.154464
H39   H     H_    0.375538 0.798613 0.692724 0.207287
H40   H     H_    0.041698 0.805653 0.004907 0.344958
H41   H     H_    0.136409 0.665462 0.863838 0.302026
H42   H     H_    0.177438 0.541975 0.723913 0.170779
H43   H     H_    0.127790 0.633140 0.683153 0.153090
H44   H     H_    0.060574 0.611373 0.710466 0.132034
H45   H     H_    0.709561 0.128934 0.522396 0.098217
H46   H     H_    0.469102 0.461708 0.682257 0.344448
H47   H     H_    0.037157 0.043839 0.291658 0.264791
H48   H     H_    0.117188 0.094158 0.447768 0.132292
H49   H     H_    0.170322 0.093837 0.387240 0.168259
H50   H     H_    0.219025 0.003920 0.430366 0.163066
H51   H     H_    0.125211 0.083959 0.188095 0.249116
H52   H     H_    0.963472 0.138729 0.139665 0.167853
H53   H     H_    0.966213 0.040134 0.140502 0.161231
H54   H     H_    0.003566 0.031005 0.060876 0.186882
H55   H     H_    0.582854 0.097049 0.401956 0.245069
H56   H     H_    0.777178 0.626472 0.118731 0.179955
H57   H     H_    0.450375 0.185271 0.321741 0.145688
H58   H     H_    0.515318 0.257153 0.409774 0.163130
H59   H     H_    0.420705 0.260553 0.420938 0.187244
H60   H     H_    0.327269 0.548376 0.251098 0.255217
H61   H     H_    0.434920 0.608326 0.393572 0.123222
H62   H     H_    0.484952 0.606896 0.329139 0.176238
H63   H     H_    0.488184 0.503658 0.320418 0.166327
H64   H     H_    0.119461 0.141374 0.794566 0.265277
H65   H     H_    0.443870 0.028935 0.982558 0.261324
H66   H     H_    0.346181 0.006069 0.010745 0.149483
H67   H     H_    0.084189 0.959345 0.780344 0.168016
H68   H     H_    0.249760 0.070262 0.942821 0.169388
H69   H     H_    0.320777 0.125237 0.049295 0.122680
H70   H     H_    0.342080 0.467853 0.074765 0.348336
H71   H     H_    0.452681 0.101092 0.472654 0.311781
H72   H     H_    0.763647 0.355494 0.079477 0.330014
H73   H     H_    0.020926 0.970612 0.875134 0.151034
H74   H     H_    0.253404 0.700244 0.349480 0.117345
N1    N     N_2   0.048921 0.316205 0.930959 -0.508564
N2    N     N_2   0.538104 0.146759 0.435468 -0.538477
N3    N     N_2   0.361661 0.581586 0.255476 -0.510375
N4    N     N_2   0.376209 0.048139 0.945315 -0.478007
N5    N     N_2   0.739804 0.469928 0.559778 -0.461693
N6    N     N_2   0.752148 0.558849 0.481069 -0.525048
N7    N     N_2   0.762115 0.468443 0.303453 -0.487404
N8    N     N_2   0.891473 0.712801 0.206580 -0.499576
N9    N     N_2   0.296319 0.713270 0.604712 -0.510188
N10   N     N_2   0.156002 0.668656 0.822421 -0.463917
N11   N     N_2   0.100630 0.002253 0.317160 -0.496414
N12   N     N_2   0.092727 0.055787 0.193850 -0.540358
O1    O     O_3   0.000000 0.000000 0.500000 -0.443420
O2    O     O_R   0.323460 0.615830 0.884170 -0.519307
O3    O     O_R   0.444880 0.615840 0.176480 -0.553040
O4    O     O_R   0.055060 0.884200 0.615800 -0.546636
O5    O     O_R   0.615800 0.444940 0.884180 -0.520375
O6    O     O_R   0.323440 0.615840 0.055040 -0.530406
O7    O     O_R   0.615780 0.323500 0.884180 -0.504895
O8    O     O_R   0.615760 0.323500 0.055050 -0.474956
O9    O     O_R   0.444910 0.615830 0.884180 -0.520369
O10   O     O_R   0.615780 0.615830 0.176490 -0.562215
O11   O     O_R   0.323430 0.444950 0.884170 -0.515366
O12   O     O_R   0.055100 0.176520 0.615800 -0.556036
O13   O     O_R   0.884210 0.176520 0.444920 -0.542059
O14   O     O_R   0.176540 0.055080 0.615800 -0.511111
O15   O     O_R   0.884190 0.884200 0.323480 -0.521506
O16   O     O_R   0.176540 0.884190 0.444930 -0.560172
O17   O     O_R   0.884180 0.055090 0.615790 -0.547146
O18   O     O_R   0.055100 0.884190 0.323490 -0.516604
O19   O     O_R   0.884190 0.176530 0.615790 -0.522462
O20   O     O_2   0.724007 0.321199 0.532590 -0.482233
O21   O     O_R   0.681925 0.225762 0.391900 -0.718202
O22   O     O_2   0.761033 0.183511 0.028385 -0.472757
O23   O     O_R   0.884180 0.884200 0.444920 -0.558652
O24   O     O_R   0.715914 0.082397 0.016305 -0.687137
O25   O     O_2   0.962443 0.888982 0.905053 -0.519583
O26   O     O_R   0.083290 0.793315 0.975787 -0.716061
O27   O     O_2   0.463571 0.602993 0.701104 -0.514271
O28   O     O_R   0.412356 0.510317 0.695666 -0.683588
O29   O     O_2   0.285226 0.973931 0.757020 -0.455130
O30   O     O_R   0.148848 0.074938 0.767304 -0.713982
O31   O     O_2   0.460763 0.326231 0.072770 -0.520305
O32   O     O_R   0.319489 0.418795 0.020979 -0.687379
O33   O     O_2   0.378014 0.299772 0.585518 -0.482300
O34   O     O_R   0.176510 0.884190 0.615800 -0.472072
O35   O     O_R   0.402007 0.158823 0.487571 -0.662088
O36   O     O_2   0.792845 0.457302 0.061802 -0.562535
O37   O     O_R   0.782594 0.324373 0.024801 -0.649119
O38   O     O_R   0.884210 0.055080 0.323480 -0.551825
O39   O     O_3   0.499970 0.500030 0.999970 -0.463481
O40   O     O_R   0.615800 0.615830 0.055050 -0.515357
O41   O     O_R   0.444880 0.323510 0.884180 -0.529479
O42   O     O_R   0.615760 0.444950 0.176490 -0.515440
Zn1   Zn    Zn3+2 0.956630 0.130130 0.543370 0.949635
Zn2   Zn    Zn3+2 0.130140 0.956620 0.543380 0.983021
Zn3   Zn    Zn3+2 0.956630 0.956620 0.369870 0.945784
Zn4   Zn    Zn3+2 0.956610 0.956630 0.543370 0.949187
Zn5   Zn    Zn3+2 0.543340 0.369890 0.956600 1.035869
Zn6   Zn    Zn3+2 0.543340 0.543410 0.130100 0.935140
Zn7   Zn    Zn3+2 0.369830 0.543410 0.956590 0.971093
Zn8   Zn    Zn3+2 0.543370 0.543400 0.956600 0.991911

loop_
_geom_bond_atom_site_label_1
_geom_bond_atom_site_label_2
_ccdc_geom_bond_type
H26   N7    S    
C46   H3    S    
C63   C65   A    
C17   C69   S    
C27   H56   S    
C23   C45   A    
C87   H50   S    
C12   C74   A    
C27   C29   A    
C95   O33   D    
C88   H53   S    
O19   Zn1   S    
C35   C36   A    
C86   O27   D    
C71   O6    A    
C66   O40   A    
C64   H45   S    
O1    Zn1   S    
C76   O21   S    
C7    C8    A    
C39   C41   A    
C56   C67   A    
C5    H9    S    
C1    O4    A    
C25   C28   S    
O10   Zn6   S    
O3    Zn6   S    
C79   H25   S    
C12   C23   A    
C26   C27   A    
C62   C63   A    
C40   O16   A    
C18   C24   A    
H47   N11   S    
O12   Zn1   S    
C36   C37   A    
C22   C29   A    
C52   O19   A    
O42   Zn6   S    
C80   H28   S    
C30   C31   A    
C76   O20   D    
C80   H29   S    
C10   C17   A    
C40   C49   S    
C79   H22   S    
C93   N4    S    
C11   C13   A    
C91   N3    S    
O23   Zn4   S    
C18   C19   A    
C73   C74   A    
O41   Zn5   S    
C4    C13   S    
C51   N3    S    
C91   H62   S    
C33   C35   A    
C54   C55   A    
C44   H2    S    
C47   C48   A    
C45   C56   A    
C8    C9    A    
C4    O38   A    
C66   O10   A    
O39   Zn6   S    
C64   C73   A    
C68   O11   A    
C18   H1    S    
C82   H33   S    
C87   H48   S    
C90   H58   S    
O6    Zn7   S    
O17   Zn4   S    
C85   H43   S    
C83   H39   S    
C89   C96   S    
C5    C67   A    
H17   N5    S    
C19   H12   S    
C23   C34   A    
O40   Zn8   S    
C59   C60   A    
C77   N5    S    
C21   C22   A    
C33   N10   S    
C28   O23   A    
C82   N8    S    
C67   C78   A    
C30   H67   S    
C71   O3    A    
C63   H6    S    
C32   C84   S    
C74   C95   S    
O1    Zn2   S    
C44   C46   A    
C70   O9    A    
C81   O22   D    
C26   N8    S    
C42   N11   S    
H64   O30   S    
O14   Zn2   S    
H60   N3    S    
C94   O32   S    
C75   H13   S    
O13   Zn1   S    
C24   C25   A    
C12   H7    S    
C15   C81   S    
O1    Zn3   S    
C6    C11   A    
H40   O26   S    
O9    Zn8   S    
H11   N1    S    
C40   O18   A    
C93   H68   S    
C25   C26   A    
C4    O13   A    
O34   Zn2   S    
H55   N2    S    
O38   Zn3   S    
C7    N5    S    
C60   C61   A    
C51   C53   A    
O18   Zn3   S    
C69   O8    A    
C2    C89   A    
O7    Zn5   S    
C43   C44   A    
C55   N4    S    
C54   C92   S    
C37   C38   A    
C16   O14   A    
C73   N2    S    
C84   O26   S    
C88   N12   S    
C31   C32   A    
C83   H38   S    
C2    H8    S    
C65   C68   S    
C79   H24   S    
O39   Zn7   S    
C1    O34   A    
C34   C64   A    
C50   C51   A    
C88   H52   S    
C91   H63   S    
C50   H74   S    
C52   O17   A    
C42   C48   A    
C90   H57   S    
C85   H44   S    
C82   H32   S    
H70   O32   S    
C62   H4    S    
O5    Zn8   S    
O15   Zn3   S    
H51   N12   S    
C70   O2    A    
C56   C89   A    
C55   C57   A    
C75   N1    S    
C52   C78   S    
C22   C24   A    
C92   O30   S    
C68   O41   A    
C16   C61   S    
H46   O28   S    
O39   Zn5   S    
C77   H18   S    
C77   H20   S    
C83   H37   S    
C72   O7    A    
C9    N7    S    
H21   N6    S    
C9    C10   A    
C15   C17   A    
C46   C47   A    
C48   C49   A    
C75   H14   S    
C38   N9    S    
C87   H49   S    
C59   C65   A    
H31   N8    S    
C88   H54   S    
C79   N6    S    
C86   O28   S    
O2    Zn7   S    
C3    C5    A    
O1    Zn4   S    
C87   N11   S    
C8    N6    S    
C6    C76   S    
C6    C7    A    
C1    C37   S    
C96   O37   S    
C57   H5    S    
C90   H59   S    
C43   N12   S    
C75   H15   S    
C28   O15   A    
H16   O21   S    
C30   C36   A    
C54   C60   A    
O8    Zn5   S    
C32   C33   A    
C69   O42   A    
C19   C20   A    
C2    C3    A    
C58   C94   S    
C72   O5    A    
C77   H19   S    
C80   N7    S    
H65   N4    S    
C83   N9    S    
C84   O25   D    
C3    N1    S    
C57   C58   A    
C38   C39   A    
H41   N10   S    
C31   H73   S    
C93   H66   S    
H30   O24   S    
C85   N10   S    
C96   O36   D    
C47   C53   A    
O39   Zn8   S    
C95   O35   S    
H72   O37   S    
C61   C62   A    
C35   C41   A    
C58   C59   A    
C21   H34   S    
C91   H61   S    
C16   O12   A    
C10   C11   A    
H36   N9    S    
C93   H69   S    
C29   C66   S    
C94   O31   D    
C14   H10   S    
O4    Zn4   S    
C20   C21   A    
C49   C50   A    
C42   C43   A    
C90   N2    S    
O11   Zn7   S    
C14   C15   A    
C81   O24   S    
C92   O29   D    
C39   C86   S    
C82   H35   S    
C13   C14   A    
C85   H42   S    
H71   O35   S    
C20   H23   S    
C34   C78   A    
O16   Zn2   S    
C41   C70   S    
C45   C72   S    
C80   H27   S    
C53   C71   S    
