data_mof_unit_52270.cif
_audit_creation_date              2012-12-10T17:42:10-0500
_audit_creation_method            fapswitch 2.2
_symmetry_space_group_name_H-M    P1
_symmetry_Int_Tables_number       1
_space_group_crystal_system       triclinic
_cell_length_a                    15.078108
_cell_length_b                    13.805533
_cell_length_c                    10.843387
_cell_angle_alpha                 89.629502
_cell_angle_beta                  88.373872
_cell_angle_gamma                 90.04223
_cell_volume                      2256.21658313

loop_
_atom_site_label
_atom_site_type_symbol
_atom_type_description
_atom_site_fract_x
_atom_site_fract_y
_atom_site_fract_z
_atom_type_partial_charge
C1    C     C_R   0.328902 0.500194 0.500385 0.794003
C2    C     C_3   0.601795 0.495068 0.927766 0.260238
C3    C     C_R   0.814917 0.574695 0.446553 -0.257449
C4    C     C_R   0.768016 0.499085 0.504444 -0.067525
C5    C     C_R   0.813200 0.423474 0.563412 0.118427
C6    C     C_R   0.906549 0.424403 0.563674 0.064584
C7    C     C_R   0.953754 0.500958 0.503635 0.015821
C8    C     C_R   0.907827 0.576649 0.444282 0.040898
C9    C     C_R   0.953530 0.350481 0.623103 -0.262837
C10   C     C_R   0.045823 0.351415 0.624494 0.141599
C11   C     C_R   0.092936 0.426683 0.564391 0.135504
C12   C     C_R   0.495216 0.500177 0.261157 0.801408
C13   C     C_R   0.047022 0.501599 0.503231 -0.023916
C14   C     C_R   0.094683 0.577120 0.442254 0.113631
C15   C     C_R   0.049092 0.652244 0.382571 0.088519
C16   C     C_R   0.955644 0.652287 0.383820 -0.057863
C17   C     C_R   0.185350 0.428445 0.564238 -0.225922
C18   C     C_R   0.232442 0.501188 0.501621 -0.109444
C19   C     C_R   0.187593 0.575674 0.441930 -0.204528
C20   C     C_R   0.439369 0.793930 0.573219 0.323754
C21   C     C_R   0.438713 0.204785 0.571586 0.325266
C22   C     C_R   0.562812 0.794233 0.432149 -0.014858
C23   C     C_R   0.563136 0.206520 0.432703 -0.023815
C24   C     C_R   0.565680 0.897005 0.433662 0.005514
C25   C     C_R   0.565867 0.103644 0.433986 0.003482
C26   C     C_R   0.671180 0.499826 0.501519 0.840732
C27   C     C_R   0.506417 0.948153 0.512228 0.039916
C28   C     C_R   0.506391 0.051478 0.512200 0.039605
C29   C     C_R   0.445871 0.896002 0.588466 -0.035016
C30   C     C_R   0.445126 0.102608 0.587332 -0.032298
C31   C     C_R   0.626427 0.949741 0.358597 -0.163517
C32   C     C_R   0.626573 0.051776 0.358847 -0.179850
C33   C     C_R   0.390972 0.049811 0.674306 -0.077104
C34   C     C_R   0.392403 0.947703 0.675987 -0.081645
C35   C     C_R   0.500095 0.499577 0.740391 0.749638
C36   C     C_3   0.440973 0.587751 0.073788 -0.029039
C37   C     C_3   0.455669 0.402791 0.075365 -0.039752
C38   C     C_3   0.449055 0.590391 0.930806 -0.225812
C39   C     C_3   0.447784 0.408499 0.933371 -0.217030
C40   C     C_3   0.596964 0.510270 0.074327 -0.118323
C41   C     C_3   0.496291 0.500016 0.123883 -0.074336
C42   C     C_3   0.502214 0.498649 0.879249 -0.100182
Cu1   Cu    Cu3+1 0.499990 0.597420 0.500010 0.942226
Cu2   Cu    Cu3+1 0.499990 0.402580 0.500010 0.946723
H1    H     H_    0.469228 0.655550 0.111673 0.185218
H2    H     H_    0.502023 0.343252 0.100469 0.153559
H3    H     H_    0.221015 0.374379 0.615166 0.178159
H4    H     H_    0.225760 0.631767 0.394374 0.182255
H5    H     H_    0.609874 0.754527 0.374785 0.156525
H6    H     H_    0.610372 0.246870 0.375538 0.156563
H7    H     H_    0.673251 0.912046 0.298422 0.165213
H8    H     H_    0.673491 0.090159 0.298836 0.149479
H9    H     H_    0.381412 0.587105 0.892398 0.144409
H10   H     H_    0.377043 0.419746 0.910046 0.147052
H11   H     H_    0.777947 0.631280 0.401238 0.172911
H12   H     H_    0.919614 0.290918 0.669469 0.149774
N1    N     N_R   0.499930 0.743810 0.499950 -0.200673
N2    N     N_R   0.499930 0.256190 0.499950 -0.202158
O1    O     O_R   0.370250 0.582280 0.500040 -0.605270
O2    O     O_R   0.370250 0.417720 0.500040 -0.606624
O3    O     O_R   0.499970 0.582270 0.317700 -0.589246
O4    O     O_R   0.499970 0.417730 0.317700 -0.592444
O5    O     O_R   0.629730 0.582260 0.499980 -0.596314
O6    O     O_R   0.629730 0.417740 0.499980 -0.545219
O7    O     O_R   0.500000 0.582270 0.682320 -0.589164
O8    O     O_R   0.500000 0.417730 0.682320 -0.585386
N3    N     N_3   0.091545 0.274985 0.686427 -0.595861
H13   H     H_    0.073569 0.209212 0.646860 0.229587
H14   H     H_    0.069706 0.273886 0.778815 0.234071
N4    N     N_3   0.098345 0.728469 0.320997 -0.596619
H15   H     H_    0.081605 0.729645 0.228088 0.241645
H16   H     H_    0.079872 0.794550 0.360627 0.233371
C43   C     C_1   0.909889 0.730468 0.322248 0.231216
N5    N     N_1   0.873351 0.792829 0.273143 -0.277154
N6    N     N_3   0.362084 0.746721 0.624049 -0.590382
H17   H     H_    0.377386 0.685699 0.675693 0.264076
H18   H     H_    0.317217 0.733842 0.554460 0.237606
N7    N     N_3   0.360366 0.250676 0.618703 -0.592678
H19   H     H_    0.374688 0.311995 0.669566 0.263615
H20   H     H_    0.318227 0.262861 0.545552 0.231862
C44   C     C_1   0.336292 0.098328 0.767916 0.330304
N8    N     N_1   0.292643 0.136343 0.842629 -0.274834
C45   C     C_1   0.342387 0.897924 0.774262 0.320691
N9    N     N_1   0.302581 0.858849 0.852769 -0.259624
N10   N     N_3   0.347069 0.588018 0.115278 -0.567775
H21   H     H_    0.340943 0.574085 0.209932 0.235439
H22   H     H_    0.310153 0.536547 0.068711 0.262280
N11   N     N_3   0.368291 0.379479 0.132661 -0.608611
H23   H     H_    0.375740 0.352022 0.221602 0.249251
H24   H     H_    0.340060 0.322159 0.084747 0.233570
C46   C     C_1   0.482558 0.686661 0.890794 0.269308
N12   N     N_1   0.508350 0.762366 0.860356 -0.271664
C47   C     C_1   0.470331 0.311829 0.883241 0.235590
N13   N     N_1   0.489219 0.235928 0.846360 -0.275197
C48   C     C_1   0.632963 0.606184 0.109413 0.240237
N14   N     N_1   0.661148 0.680782 0.136882 -0.287067
C49   C     C_1   0.655447 0.440870 0.138988 0.244777
N15   N     N_1   0.700954 0.387037 0.189543 -0.290358
N16   N     N_3   0.659606 0.568597 0.866520 -0.540716
H25   H     H_    0.665280 0.555881 0.771700 0.222833
H26   H     H_    0.638052 0.639299 0.878529 0.237307
N17   N     N_3   0.644441 0.401362 0.897319 -0.560744
H27   H     H_    0.622150 0.343850 0.952649 0.221920
H28   H     H_    0.635635 0.383652 0.805087 0.248092
N18   N     N_3   0.763387 0.347648 0.624815 -0.582049
H29   H     H_    0.779934 0.345792 0.717745 0.228851
H30   H     H_    0.779947 0.281473 0.583904 0.225790

loop_
_geom_bond_atom_site_label_1
_geom_bond_atom_site_label_2
_ccdc_geom_bond_type
C23   N2    A    
C47   N13   T    
C27   C29   A    
C43   N5    T    
C37   N11   S    
Cu2   O8    S    
C48   N14   T    
C24   C27   A    
Cu1   Cu2   S    
C6    C9    A    
C49   N15   T    
Cu1   O5    S    
C7    C8    A    
C5    N18   S    
C10   N3    S    
Cu2   O6    S    
C25   C28   A    
N18   H30   S    
C1    C18   S    
Cu2   O2    S    
C38   C42   S    
C1    O1    A    
C5    C6    A    
N7    H20   S    
C39   H10   S    
C35   O7    A    
C15   C16   A    
C17   C18   A    
C18   C19   A    
C35   C42   S    
C26   O6    A    
C32   H8    S    
C3    H11   S    
C39   C47   S    
N16   H25   S    
Cu2   N2    S    
C21   N7    S    
N4    H15   S    
C9    C10   A    
Cu1   O1    S    
C25   C32   A    
C8    C16   A    
C13   C14   A    
C36   C41   S    
C22   N1    A    
C44   N8    T    
C39   C42   S    
C20   C29   A    
N10   H22   S    
N3    H13   S    
C3    C8    A    
C1    O2    A    
C40   C49   S    
C19   H4    S    
C23   H6    S    
C35   O8    A    
Cu2   O4    S    
N10   H21   S    
C29   C34   A    
C16   C43   S    
C20   N6    S    
N3    H14   S    
N6    H17   S    
C12   C41   S    
C12   O4    A    
C45   N9    T    
Cu1   O7    S    
C33   C34   A    
C36   H1    S    
C9    H12   S    
N17   H28   S    
N6    H18   S    
C22   H5    S    
C40   C41   S    
N16   H26   S    
N11   H24   S    
C2    N16   S    
C22   C24   A    
C34   C45   S    
C40   C48   S    
C3    C4    A    
C46   N12   T    
Cu1   O3    S    
C21   C30   A    
C15   N4    S    
C11   C17   A    
C26   O5    A    
C30   C33   A    
N7    H19   S    
C14   C19   A    
C31   C32   A    
C17   H3    S    
C31   H7    S    
C4    C5    A    
C4    C26   S    
C6    C7    A    
C36   N10   S    
N18   H29   S    
C36   C38   S    
C37   H2    S    
C24   C31   A    
C21   N2    A    
C37   C39   S    
C12   O3    A    
C11   C13   A    
C38   H9    S    
C2    C42   S    
C38   C46   S    
C28   C30   A    
C23   C25   A    
C37   C41   S    
N17   H27   S    
C10   C11   A    
Cu1   N1    S    
C2    C40   S    
C7    C13   A    
N11   H23   S    
C27   C28   A    
C2    N17   S    
C14   C15   A    
N4    H16   S    
C20   N1    A    
C33   C44   S    
