data_mof_unit_25446.cif
_audit_creation_date              2012-12-10T17:43:22-0500
_audit_creation_method            fapswitch 2.2
_symmetry_space_group_name_H-M    P1
_symmetry_Int_Tables_number       1
_space_group_crystal_system       triclinic
_cell_length_a                    14.979485
_cell_length_b                    13.863725
_cell_length_c                    10.716648
_cell_angle_alpha                 90.240175
_cell_angle_beta                  85.235632
_cell_angle_gamma                 89.60543
_cell_volume                      2217.77410932

loop_
_atom_site_label
_atom_site_type_symbol
_atom_type_description
_atom_site_fract_x
_atom_site_fract_y
_atom_site_fract_z
_atom_type_partial_charge
C1    C     C_R   0.328985 0.500410 0.505110 0.855644
C2    C     C_R   0.671202 0.499711 0.497558 0.831451
C3    C     C_R   0.953293 0.517118 0.504202 -0.114516
C4    C     C_R   0.046909 0.517883 0.506966 -0.112957
C5    C     C_R   0.914931 0.525188 0.388431 -0.126723
C6    C     C_R   0.085588 0.509338 0.622543 -0.143358
C7    C     C_R   0.936119 0.510403 0.732809 0.396657
C8    C     C_R   0.063573 0.538649 0.279783 0.379074
C9    C     C_R   0.029507 0.515748 0.735583 0.399596
C10   C     C_R   0.970474 0.546708 0.279043 0.395106
C11   C     C_R   0.438397 0.794285 0.577976 0.602616
C12   C     C_R   0.564936 0.206015 0.428956 0.589030
C13   C     C_R   0.557647 0.793551 0.415715 0.564430
C14   C     C_R   0.440848 0.207099 0.581313 0.558865
C15   C     C_R   0.564809 0.896470 0.423379 -0.197568
C16   C     C_R   0.436961 0.103964 0.579259 -0.231794
C17   C     C_R   0.440669 0.897403 0.585194 -0.234658
C18   C     C_R   0.569920 0.103014 0.434359 -0.236569
C19   C     C_R   0.503514 0.948323 0.505881 -0.128540
C20   C     C_R   0.503104 0.051769 0.505877 -0.125881
C21   C     C_R   0.631288 0.949761 0.350868 0.429602
C22   C     C_R   0.371115 0.051661 0.652806 0.409292
C23   C     C_R   0.380344 0.951370 0.667744 0.405552
C24   C     C_R   0.640094 0.049706 0.370396 0.406544
C25   C     C_R   0.501068 0.499555 0.259007 0.841418
C26   C     C_R   0.497534 0.500602 0.740455 0.907155
C27   C     C_3   0.440916 0.564692 0.049262 0.455226
C28   C     C_3   0.557162 0.435214 0.946936 0.451232
C29   C     C_3   0.522057 0.587670 0.957978 0.473542
C30   C     C_3   0.475382 0.412320 0.039029 0.416175
C31   C     C_3   0.414214 0.478871 0.967608 -0.482451
C32   C     C_3   0.584170 0.521286 0.028111 -0.450512
C33   C     C_3   0.496669 0.502255 0.876988 -0.202016
C34   C     C_3   0.501337 0.498125 0.121405 -0.233463
C35   C     C_R   0.822024 0.511647 0.385057 0.437513
C36   C     C_R   0.179110 0.493928 0.621018 0.443855
C37   C     C_R   0.768094 0.500214 0.497363 -0.160081
C38   C     C_R   0.232453 0.502677 0.507681 -0.175898
C39   C     C_R   0.805696 0.496711 0.611681 -0.256390
C40   C     C_R   0.194631 0.520282 0.396068 -0.289170
C41   C     C_R   0.898124 0.506835 0.616891 -0.033993
C42   C     C_R   0.101935 0.524988 0.393608 -0.010374
Cu1   Cu    Cu3+1 0.500000 0.597420 0.500000 1.026911
Cu2   Cu    Cu3+1 0.500000 0.402580 0.500000 1.022738
H1    H     H_    0.346482 0.463206 0.938400 0.180627
H2    H     H_    0.652334 0.537107 0.055621 0.179230
H3    H     H_    0.761910 0.487242 0.696425 0.208668
H4    H     H_    0.238281 0.528565 0.310847 0.202970
N1    N     N_R   0.500000 0.743810 0.500000 -0.271043
N2    N     N_R   0.500000 0.256190 0.500000 -0.268217
O1    O     O_R   0.370260 0.582280 0.500030 -0.562503
O2    O     O_R   0.629740 0.417720 0.499970 -0.531509
O3    O     O_R   0.629740 0.582280 0.499970 -0.616243
O4    O     O_R   0.370260 0.417720 0.500030 -0.567531
O5    O     O_R   0.499980 0.582260 0.316850 -0.526715
O6    O     O_R   0.500020 0.417740 0.683150 -0.548064
O7    O     O_R   0.500020 0.582260 0.683150 -0.534132
O8    O     O_R   0.499980 0.417740 0.316850 -0.569763
O9    O     O_3   0.383075 0.633405 0.111559 -0.576679
C43   C     C_3   0.322702 0.668533 0.028330 -0.277318
H5    H     H_    0.273580 0.612280 0.007637 0.191921
H6    H     H_    0.357888 0.695483 0.939881 0.205689
H7    H     H_    0.284451 0.729686 0.073953 0.175278
O10   O     O_3   0.616024 0.377293 0.867701 -0.573910
C44   C     C_3   0.648388 0.298319 0.931459 -0.344527
H8    H     H_    0.593259 0.252061 0.971608 0.179911
H9    H     H_    0.693020 0.322676 0.001937 0.156999
H10   H     H_    0.689720 0.253072 0.863034 0.185934
O11   O     O_3   0.542558 0.677842 0.902869 -0.571503
C45   C     C_3   0.574305 0.739996 0.992803 -0.295994
H11   H     H_    0.638571 0.713085 0.024869 0.163893
H12   H     H_    0.523598 0.751216 0.073415 0.229619
H13   H     H_    0.587549 0.811131 0.948429 0.150868
O12   O     O_3   0.454081 0.319105 0.084174 -0.615145
C46   C     C_3   0.365339 0.317703 0.139485 -0.313959
H14   H     H_    0.355536 0.249959 0.193428 0.177775
H15   H     H_    0.316992 0.317898 0.066304 0.146547
H16   H     H_    0.350460 0.378784 0.205866 0.173843
O13   O     O_3   0.783373 0.508076 0.272528 -0.608081
C47   C     C_3   0.796462 0.414774 0.221442 -0.265104
H17   H     H_    0.765924 0.359102 0.285466 0.197473
H18   H     H_    0.868609 0.397783 0.198430 0.178883
H19   H     H_    0.763810 0.412081 0.132947 0.182112
O14   O     O_3   0.219415 0.470554 0.728669 -0.591936
C48   C     C_3   0.205528 0.371560 0.752981 -0.233572
H20   H     H_    0.243445 0.350626 0.833204 0.174889
H21   H     H_    0.229723 0.326068 0.671144 0.197670
H22   H     H_    0.133820 0.356046 0.779692 0.159295
O15   O     O_3   0.883164 0.502789 0.844557 -0.544351
C49   C     C_3   0.847874 0.594612 0.879021 -0.236209
H23   H     H_    0.803018 0.622982 0.810003 0.132252
H24   H     H_    0.901873 0.647262 0.891391 0.154450
H25   H     H_    0.807287 0.588119 0.969913 0.206989
O16   O     O_3   0.117078 0.549387 0.169321 -0.583341
C50   C     C_3   0.128771 0.457817 0.112076 -0.269092
H26   H     H_    0.159229 0.405020 0.174396 0.115866
H27   H     H_    0.175449 0.464774 0.026806 0.209808
H28   H     H_    0.064183 0.429836 0.082897 0.212506
O17   O     O_3   0.064113 0.528074 0.850297 -0.530043
C51   C     C_3   0.093590 0.624389 0.860506 -0.227218
H29   H     H_    0.049915 0.678104 0.817354 0.094023
H30   H     H_    0.163361 0.631879 0.818429 0.183805
H31   H     H_    0.093217 0.643481 0.961018 0.220157
O18   O     O_3   0.934618 0.577324 0.171116 -0.508798
C52   C     C_3   0.925520 0.678700 0.178397 -0.248715
H32   H     H_    0.992310 0.713810 0.171980 0.155170
H33   H     H_    0.885325 0.702330 0.265451 0.139226
H34   H     H_    0.889407 0.704433 0.098796 0.150798
O19   O     O_3   0.369341 0.744166 0.641604 -0.524091
C53   C     C_3   0.290696 0.755484 0.577423 -0.211859
H35   H     H_    0.240693 0.701906 0.614175 0.166990
H36   H     H_    0.303237 0.743409 0.474558 0.150901
H37   H     H_    0.259292 0.827556 0.592790 0.157691
O20   O     O_3   0.627744 0.257525 0.355992 -0.546576
C54   C     C_3   0.612054 0.247865 0.228531 -0.238270
H38   H     H_    0.549908 0.208250 0.209671 0.160440
H39   H     H_    0.669943 0.211210 0.177082 0.172360
H40   H     H_    0.608579 0.320885 0.188692 0.196955
O21   O     O_3   0.587452 0.748996 0.303793 -0.580003
C55   C     C_3   0.673966 0.708967 0.307023 -0.120795
H41   H     H_    0.669225 0.630855 0.290348 0.204938
H42   H     H_    0.707466 0.724722 0.393952 0.136214
H43   H     H_    0.717570 0.734700 0.225670 0.166603
O22   O     O_3   0.389622 0.258914 0.671484 -0.552646
C56   C     C_3   0.426660 0.246778 0.787863 -0.191916
H44   H     H_    0.500873 0.253526 0.780143 0.176805
H45   H     H_    0.408757 0.176756 0.832101 0.164253
H46   H     H_    0.398427 0.303332 0.852386 0.193149
O23   O     O_3   0.694916 0.904020 0.270516 -0.570849
C57   C     C_3   0.679831 0.928250 0.146005 -0.303964
H47   H     H_    0.701146 0.003198 0.123573 0.189456
H48   H     H_    0.608408 0.918706 0.127084 0.142305
H49   H     H_    0.720927 0.879580 0.081620 0.158096
O24   O     O_3   0.298573 0.097743 0.715997 -0.548287
C58   C     C_3   0.228882 0.102584 0.635574 -0.279844
H50   H     H_    0.207205 0.029217 0.608784 0.150435
H51   H     H_    0.248785 0.145678 0.550449 0.146499
H52   H     H_    0.170405 0.139277 0.685942 0.171236
O25   O     O_3   0.327063 0.907018 0.761868 -0.547230
C59   C     C_3   0.372409 0.909436 0.871944 -0.258136
H53   H     H_    0.388279 0.984583 0.899371 0.143371
H54   H     H_    0.434575 0.864730 0.861174 0.175658
H55   H     H_    0.328062 0.878816 0.949522 0.171538
O26   O     O_3   0.718473 0.093807 0.324527 -0.565817
C60   C     C_3   0.776511 0.098108 0.421388 -0.256552
H56   H     H_    0.793987 0.024564 0.453386 0.150320
H57   H     H_    0.747167 0.142304 0.501771 0.160321
H58   H     H_    0.839552 0.133293 0.384722 0.174062

loop_
_geom_bond_atom_site_label_1
_geom_bond_atom_site_label_2
_ccdc_geom_bond_type
C58   H52   S    
C11   O19   S    
C50   H26   S    
C59   H55   S    
Cu1   Cu2   S    
Cu1   O1    S    
C6    C9    A    
C60   H56   S    
C50   H28   S    
C58   H50   S    
C39   C41   A    
C48   H20   S    
C15   C19   A    
C52   H33   S    
C17   C23   A    
C22   O24   S    
C43   H7    S    
C18   C24   A    
C23   O25   S    
C35   C37   A    
C8    C42   A    
C29   C32   S    
C30   C31   S    
C30   O12   S    
C27   C29   S    
C54   H38   S    
C7    O15   S    
C29   C33   S    
C24   O26   S    
C43   H6    S    
C53   H35   S    
C13   O21   S    
Cu1   O3    S    
C11   C17   A    
C19   C20   A    
Cu2   O8    S    
C44   H9    S    
C56   H46   S    
C31   C33   S    
C45   H11   S    
C29   O11   S    
C55   H43   S    
C25   C34   S    
C44   H10   S    
C40   C42   A    
O9    C43   S    
C9    O17   S    
C58   H51   S    
O16   C50   S    
C47   H19   S    
O18   C52   S    
C60   H57   S    
C55   H42   S    
O20   C54   S    
C12   O20   S    
C48   H21   S    
C27   C34   S    
C52   H34   S    
C14   O22   S    
O12   C46   S    
C30   C34   S    
C27   C31   S    
C28   C32   S    
C8    O16   S    
C59   H53   S    
C4    C6    A    
Cu1   N1    S    
C54   H39   S    
C51   H31   S    
C43   H5    S    
C32   C34   S    
C26   O7    A    
C57   H48   S    
C46   H14   S    
C11   N1    A    
Cu2   O4    S    
C1    O1    A    
Cu2   O6    S    
C26   C33   S    
C49   H24   S    
O17   C51   S    
C15   C21   A    
C16   C20   A    
C54   H40   S    
C45   H13   S    
C51   H30   S    
O14   C48   S    
C46   H15   S    
C53   H37   S    
C21   O23   S    
C2    O2    A    
C1    C38   S    
C1    O4    A    
C13   N1    A    
C28   O10   S    
C47   H18   S    
C28   C33   S    
C13   C15   A    
C56   H44   S    
C14   C16   A    
C57   H49   S    
C25   O8    A    
C3    C4    A    
C60   H58   S    
C55   H41   S    
O25   C59   S    
C49   H25   S    
C39   H3    S    
O23   C57   S    
C48   H22   S    
Cu2   N2    S    
C40   H4    S    
C3    C41   A    
C16   C22   A    
C32   H2    S    
C25   O5    A    
C59   H54   S    
C47   H17   S    
C3    C5    A    
C2    O3    A    
C26   O6    A    
C12   N2    A    
O21   C55   S    
C50   H27   S    
O24   C58   S    
Cu1   O5    S    
C52   H32   S    
O26   C60   S    
O10   C44   S    
C10   O18   S    
C57   H47   S    
C28   C30   S    
C37   C39   A    
C27   O9    S    
O19   C53   S    
C36   C38   A    
C38   C40   A    
C2    C37   S    
Cu2   O2    S    
C49   H23   S    
C14   N2    A    
C4    C42   A    
C36   O14   S    
C5    C35   A    
C35   O13   S    
C51   H29   S    
C17   C19   A    
C6    C36   A    
C18   C20   A    
C7    C41   A    
O11   C45   S    
C46   H16   S    
C53   H36   S    
Cu1   O7    S    
O13   C47   S    
C7    C9    A    
C5    C10   A    
C8    C10   A    
C44   H8    S    
C31   H1    S    
C21   C24   A    
C12   C18   A    
C56   H45   S    
C22   C23   A    
C45   H12   S    
O15   C49   S    
O22   C56   S    
