data_mof_unit_49356.cif
_audit_creation_date              2012-12-10T16:57:09-0500
_audit_creation_method            fapswitch 2.2
_symmetry_space_group_name_H-M    P1
_symmetry_Int_Tables_number       1
_space_group_crystal_system       triclinic
_cell_length_a                    7.736393
_cell_length_b                    8.63126
_cell_length_c                    16.831434
_cell_angle_alpha                 91.925547
_cell_angle_beta                  82.471038
_cell_angle_gamma                 93.026509
_cell_volume                      1112.2680892

loop_
_atom_site_label
_atom_site_type_symbol
_atom_type_description
_atom_site_fract_x
_atom_site_fract_y
_atom_site_fract_z
_atom_type_partial_charge
C1    C     C_R   0.544615 0.794157 0.497172 0.968521
C2    C     C_R   0.374618 0.514248 0.223450 0.341739
C3    C     C_R   0.589881 0.325542 0.839778 0.141692
C4    C     C_R   0.342467 0.452669 0.148401 0.143691
C5    C     C_R   0.537844 0.445008 0.895531 0.041427
C6    C     C_R   0.456845 0.344701 0.108923 0.045683
C7    C     C_R   0.455858 0.573888 0.872970 -0.234042
C8    C     C_R   0.596324 0.295294 0.144262 -0.223280
C9    C     C_R   0.425046 0.587749 0.794456 0.337987
C10   C     C_R   0.626370 0.351833 0.219321 0.326759
C11   C     C_2   0.555475 0.435937 0.979547 -0.177078
C12   C     C_R   0.455114 0.205797 0.502272 0.969071
C13   C     C_2   0.468347 0.323853 0.022940 -0.203087
C14   C     C_3   0.192054 0.508789 0.109556 -0.735980
C15   C     C_3   0.686536 0.188433 0.862035 -0.747578
C16   C     C_3   0.702466 0.001518 0.413290 -0.751300
C17   C     C_3   0.291337 0.997492 0.583444 -0.715839
C18   C     C_2   0.562426 0.953589 0.481460 -0.035084
C19   C     C_2   0.435710 0.046080 0.517072 -0.014236
C20   C     C_R   0.480170 0.497384 0.653420 0.996113
C21   C     C_R   0.518928 0.494707 0.345828 0.957262
C22   C     C_R   0.478022 0.471460 0.737872 -0.248951
C23   C     C_R   0.513234 0.459864 0.260592 -0.261043
C24   C     C_R   0.555895 0.338145 0.760689 0.326047
Cl1   Cl    Cl    0.613225 0.186512 0.689938 -0.615367
Cl2   Cl    Cl    0.246918 0.667491 0.267636 -0.577624
Cl3   Cl    Cl    0.810489 0.283868 0.256661 -0.620180
Cl4   Cl    Cl    0.328137 0.755819 0.768687 -0.618102
H1    H     H_    0.393841 0.230069 0.996386 0.187385
H2    H     H_    0.809973 0.178759 0.820708 0.268477
H3    H     H_    0.723915 0.198619 0.923365 0.224577
H4    H     H_    0.604105 0.080091 0.857237 0.269730
H5    H     H_    0.757531 0.899417 0.378812 0.250357
H6    H     H_    0.645124 0.071215 0.370075 0.261482
H7    H     H_    0.812545 0.067702 0.436952 0.269737
H8    H     H_    0.236717 0.099035 0.618583 0.249578
H9    H     H_    0.181938 0.934590 0.557581 0.245124
H10   H     H_    0.343403 0.924158 0.626685 0.289859
H11   H     H_    0.616548 0.535112 0.008679 0.176079
H12   H     H_    0.415035 0.663873 0.916936 0.187839
H13   H     H_    0.687929 0.218178 0.111164 0.195439
H14   H     H_    0.023010 0.381758 0.439806 0.221078
H15   H     H_    0.976997 0.618350 0.560125 0.203428
H16   H     H_    0.068978 0.495168 0.151271 0.290090
H17   H     H_    0.216890 0.633089 0.094857 0.247389
H18   H     H_    0.170997 0.442515 0.053757 0.223926
N1    N     N_2   0.953500 0.457650 0.478520 -0.139204
N2    N     N_2   0.046500 0.542350 0.521480 -0.155257
O1    O     O_R   0.388470 0.738640 0.505270 -0.618292
O2    O     O_R   0.611530 0.261360 0.494730 -0.595195
O3    O     O_R   0.679650 0.711510 0.491500 -0.628827
O4    O     O_R   0.320350 0.288490 0.508500 -0.643690
O5    O     O_R   0.337210 0.515200 0.623500 -0.589981
O6    O     O_R   0.662790 0.484800 0.376500 -0.562602
O7    O     O_R   0.628380 0.488060 0.609730 -0.602876
O8    O     O_R   0.371620 0.511940 0.390270 -0.586600
Zn1   Zn    Zn3+2 0.305580 0.518120 0.509190 1.012654
Zn2   Zn    Zn3+2 0.694420 0.481880 0.490810 1.031075

loop_
_geom_bond_atom_site_label_1
_geom_bond_atom_site_label_2
_ccdc_geom_bond_type
C10   Cl3   S    
C21   O8    A    
C2    C4    A    
C7    H12   S    
C15   H3    S    
C17   H8    S    
C16   H5    S    
C11   C13   D    
H15   N2    S    
C12   O2    A    
N1    N2    D    
C17   H10   S    
C16   H6    S    
C3    C5    A    
C1    C18   S    
O1    Zn1   S    
C15   H4    S    
C2    Cl2   S    
O3    Zn2   S    
C17   H9    S    
O8    Zn1   S    
N1    Zn2   S    
C11   H11   S    
C1    O3    A    
C6    C13   S    
C3    C24   A    
C20   O7    A    
C12   C19   S    
C14   H16   S    
C12   O4    A    
C20   C22   S    
C8    H13   S    
C5    C11   S    
C14   H17   S    
H14   N1    S    
C21   C23   S    
C16   H7    S    
C4    C14   S    
C21   O6    A    
C10   C23   A    
C22   C24   A    
C9    C22   A    
C4    C6    A    
O4    Zn1   S    
O2    Zn2   S    
C7    C9    A    
N2    Zn1   S    
C3    C15   S    
C24   Cl1   S    
C15   H2    S    
C16   C18   S    
C18   C19   D    
O6    Zn2   S    
O7    Zn2   S    
C13   H1    S    
C2    C23   A    
C5    C7    A    
O5    Zn1   S    
C6    C8    A    
C17   C19   S    
C1    O1    A    
C8    C10   A    
C9    Cl4   S    
C20   O5    A    
C14   H18   S    
