data_mof_unit_38104.cif
_audit_creation_date              2012-12-10T16:57:10-0500
_audit_creation_method            fapswitch 2.2
_symmetry_space_group_name_H-M    P1
_symmetry_Int_Tables_number       1
_space_group_crystal_system       triclinic
_cell_length_a                    8.001531
_cell_length_b                    8.591801
_cell_length_c                    15.650268
_cell_angle_alpha                 92.755664
_cell_angle_beta                  80.074512
_cell_angle_gamma                 92.410452
_cell_volume                      1057.96494768

loop_
_atom_site_label
_atom_site_type_symbol
_atom_type_description
_atom_site_fract_x
_atom_site_fract_y
_atom_site_fract_z
_atom_type_partial_charge
C1    C     C_R   0.543490 0.793219 0.497046 0.885848
C2    C     C_R   0.403614 0.542659 0.206026 0.340140
C3    C     C_R   0.626955 0.566369 0.874041 0.060423
C4    C     C_R   0.418127 0.627729 0.129819 0.081476
C5    C     C_R   0.542301 0.704433 0.903957 -0.188537
C6    C     C_R   0.569959 0.709819 0.100131 -0.172718
C7    C     C_R   0.402687 0.745466 0.867328 0.390825
C8    C     C_R   0.715423 0.677689 0.133855 0.304894
C9    C     C_R   0.364690 0.664849 0.792313 0.026103
C10   C     C_R   0.703930 0.571849 0.201027 0.083509
C11   C     C_2   0.618363 0.827427 0.956092 0.359189
C12   C     C_R   0.456508 0.206848 0.501932 0.907730
C13   C     C_2   0.576952 0.843662 0.043230 0.485362
C14   C     C_3   0.839702 0.326949 0.195948 -0.489223
C15   C     C_3   0.066638 0.639880 0.791296 -0.509850
C16   C     C_3   0.229384 0.516294 0.036260 -0.642805
C17   C     C_3   0.696594 0.368454 0.966411 -0.530024
C18   C     C_2   0.561963 0.952679 0.480447 0.125255
C19   C     C_2   0.436857 0.047234 0.516894 0.127197
C20   C     C_R   0.476878 0.505955 0.657479 0.925445
C21   C     C_R   0.524057 0.498842 0.342246 0.903146
C22   C     C_R   0.471156 0.545835 0.751686 -0.232262
C23   C     C_R   0.543806 0.530878 0.247707 -0.210967
C24   C     C_R   0.594268 0.489568 0.796422 0.360283
Cl1   Cl    Cl    0.716523 0.328159 0.753116 -0.477504
Cl2   Cl    Cl    0.951902 0.696274 0.583134 -0.390669
Cl3   Cl    Cl    0.216892 0.439231 0.245653 -0.588608
Cl4   Cl    Cl    0.593598 0.029345 0.095349 -0.508156
Cl5   Cl    Cl    0.721902 0.982152 0.895466 -0.454617
Cl6   Cl    Cl    0.280317 0.905922 0.913001 -0.486266
Cl7   Cl    Cl    0.906163 0.780335 0.094908 -0.578738
Cl8   Cl    Cl    0.727801 0.003562 0.394273 -0.470718
Cl9   Cl    Cl    0.265697 0.996522 0.600172 -0.480230
Cl10  Cl    Cl    0.039432 0.291578 0.425979 -0.303189
H1    H     H_    0.960271 0.544794 0.188355 0.286077
H2    H     H_    0.135236 0.552199 0.997309 0.255748
H3    H     H_    0.172457 0.418796 0.076562 0.267780
H4    H     H_    0.341511 0.473456 0.990997 0.236794
H5    H     H_    0.809354 0.588759 0.954835 0.235175
H6    H     H_    0.628779 0.399827 0.032454 0.203690
H7    H     H_    0.810324 0.302833 0.972186 0.278677
H8    H     H_    0.610368 0.291665 0.933319 0.305823
H9    H     H_    0.847817 0.304763 0.124933 0.220456
H10   H     H_    0.720606 0.271808 0.230465 0.260036
H11   H     H_    0.945696 0.268931 0.216911 0.305516
H12   H     H_    0.219996 0.830873 0.751548 0.322233
H13   H     H_    0.963812 0.681643 0.759933 0.276093
H14   H     H_    0.037414 0.672529 0.861480 0.235144
H15   H     H_    0.070972 0.510984 0.781933 0.261155
H16   H     H_    0.178094 0.690587 0.134175 0.308834
N1    N     N_2   0.953500 0.457650 0.478520 0.163789
N2    N     N_2   0.046500 0.542350 0.521480 0.148708
N3    N     N_2   0.847928 0.493726 0.216189 -0.260906
N4    N     N_2   0.227128 0.711851 0.754050 -0.248592
N5    N     N_2   0.276146 0.648127 0.089697 -0.253702
N6    N     N_2   0.749786 0.507540 0.918967 -0.314145
O1    O     O_R   0.388470 0.738640 0.505270 -0.576624
O2    O     O_R   0.611530 0.261360 0.494730 -0.567325
O3    O     O_R   0.679650 0.711510 0.491500 -0.546445
O4    O     O_R   0.320350 0.288490 0.508500 -0.542736
O5    O     O_R   0.337210 0.515200 0.623500 -0.573613
O6    O     O_R   0.662790 0.484800 0.376500 -0.569995
O7    O     O_R   0.628380 0.488060 0.609730 -0.561598
O8    O     O_R   0.371620 0.511940 0.390270 -0.551740
Zn1   Zn    Zn3+2 0.305580 0.518120 0.509190 1.168352
Zn2   Zn    Zn3+2 0.694420 0.481880 0.490810 1.175599

loop_
_geom_bond_atom_site_label_1
_geom_bond_atom_site_label_2
_ccdc_geom_bond_type
C2    C4    A    
C13   Cl4   S    
C7    C9    A    
C2    Cl3   S    
C1    O1    A    
C10   C23   A    
H1    N3    S    
C3    N6    S    
H16   N5    S    
C15   H13   S    
C16   H3    S    
C12   O2    A    
O8    Zn1   S    
H12   N4    S    
C20   O7    A    
C1    O3    A    
Cl10  N1    S    
O7    Zn2   S    
C4    N5    S    
C7    Cl6   S    
C16   H2    S    
C6    C13   S    
C11   C13   D    
C17   N6    S    
C3    C24   A    
C15   H14   S    
C12   C19   S    
C4    C6    A    
C20   C22   S    
O4    Zn1   S    
C5    C11   S    
C14   H11   S    
Cl2   N2    S    
C15   H15   S    
O3    Zn2   S    
C22   C24   A    
C9    C22   A    
C16   N5    S    
C17   H7    S    
C18   Cl8   S    
O6    Zn2   S    
N1    N2    D    
C12   O4    A    
C15   N4    S    
O5    Zn1   S    
C2    C23   A    
C14   N3    S    
N1    Zn2   S    
C24   Cl1   S    
C11   Cl5   S    
C14   H10   S    
C18   C19   D    
C19   Cl9   S    
O1    Zn1   S    
C20   O5    A    
C5    C7    A    
C10   N3    S    
C1    C18   S    
C17   H8    S    
C21   O8    A    
C6    C8    A    
C9    N4    S    
C21   O6    A    
C8    Cl7   S    
C21   C23   S    
O2    Zn2   S    
C8    C10   A    
N2    Zn1   S    
H5    N6    S    
C16   H4    S    
C14   H9    S    
C3    C5    A    
C17   H6    S    
