data_mof_unit_62825.cif
_audit_creation_date              2012-12-10T21:05:39-0500
_audit_creation_method            fapswitch 2.2
_symmetry_space_group_name_H-M    P1
_symmetry_Int_Tables_number       1
_space_group_crystal_system       triclinic
_cell_length_a                    15.834143
_cell_length_b                    15.049579
_cell_length_c                    17.621547
_cell_angle_alpha                 90.00215
_cell_angle_beta                  89.986731
_cell_angle_gamma                 90.003766
_cell_volume                      4199.16493801

loop_
_atom_site_label
_atom_site_type_symbol
_atom_type_description
_atom_site_fract_x
_atom_site_fract_y
_atom_site_fract_z
_atom_type_partial_charge
C1    C     C_R   0.338851 0.499997 0.500037 0.915628
C2    C     C_R   0.661147 0.500003 0.499972 0.915540
C3    C     C_1   0.824347 0.500009 0.500033 -0.101619
C4    C     C_1   0.175648 0.499987 0.500120 -0.102158
C5    C     C_1   0.250495 0.499989 0.500087 -0.196558
C6    C     C_1   0.749502 0.500008 0.499998 -0.196364
C7    C     C_R   0.423967 0.953081 0.505231 -0.170095
C8    C     C_R   0.576023 0.046928 0.494650 -0.170815
C9    C     C_R   0.576033 0.953090 0.494786 -0.169987
C10   C     C_R   0.423978 0.046919 0.505367 -0.170840
C11   C     C_R   0.500000 0.905040 0.500007 0.075565
C12   C     C_R   0.500001 0.094966 0.500007 0.078249
C13   C     C_1   0.499999 0.807207 0.500003 0.029791
C14   C     C_1   0.500001 0.192795 0.500003 0.031151
C15   C     C_R   0.500011 0.499997 0.353349 0.892533
C16   C     C_R   0.500025 0.500002 0.646656 0.892258
C17   C     C_R   0.551378 0.561160 0.847976 0.131876
C18   C     C_R   0.551526 0.439150 0.151984 0.131986
C19   C     C_R   0.448957 0.561058 0.151969 0.131992
C20   C     C_R   0.449178 0.438895 0.848109 0.131845
C21   C     C_R   0.551404 0.561536 0.768760 -0.088334
C22   C     C_R   0.551527 0.438681 0.231200 -0.088506
C23   C     C_R   0.448713 0.561368 0.231184 -0.088314
C24   C     C_R   0.448969 0.438477 0.768892 -0.088387
C25   C     C_R   0.500125 0.500010 0.729232 -0.190013
C26   C     C_R   0.500076 0.500004 0.270781 -0.189970
C27   C     C_R   0.500313 0.500048 0.886478 -0.004392
C28   C     C_R   0.500304 0.500145 0.113539 -0.004493
C29   C     C_1   0.500354 0.500112 0.966372 0.104767
C30   C     C_1   0.500352 0.500149 0.033645 0.104758
C31   C     C_R   0.956225 0.580813 0.503352 -0.183230
C32   C     C_R   0.043767 0.419176 0.496967 -0.182885
C33   C     C_R   0.043783 0.580812 0.503281 -0.183070
C34   C     C_R   0.956209 0.419187 0.496840 -0.183145
C35   C     C_R   0.913118 0.500003 0.500078 0.175477
C36   C     C_R   0.086875 0.499991 0.500136 0.174056
H1    H     H_    0.077769 0.643272 0.505675 0.138097
H2    H     H_    0.922223 0.356736 0.494260 0.137000
H3    H     H_    0.922251 0.643270 0.505902 0.136851
H4    H     H_    0.077740 0.356712 0.494579 0.138187
H5    H     H_    0.364443 0.082020 0.509649 0.128864
H6    H     H_    0.635589 0.917993 0.490772 0.130692
H7    H     H_    0.635559 0.082036 0.490367 0.128938
H8    H     H_    0.364411 0.917977 0.509246 0.130650
N1    N     N_1   0.500000 0.270550 0.500000 -0.081084
N2    N     N_1   0.500000 0.729450 0.500000 -0.081175
O1    O     O_R   0.378020 0.573650 0.500020 -0.606344
O2    O     O_R   0.621980 0.426350 0.499980 -0.606204
O3    O     O_R   0.621980 0.573650 0.499980 -0.606391
O4    O     O_R   0.378020 0.426350 0.500020 -0.606381
O5    O     O_R   0.500000 0.573690 0.389120 -0.609117
O6    O     O_R   0.500000 0.426310 0.610880 -0.608907
O7    O     O_R   0.500000 0.573690 0.610880 -0.609083
O8    O     O_R   0.500000 0.426310 0.389120 -0.609056
Zn1   Zn    Zn3+2 0.500000 0.598370 0.500000 0.984273
Zn2   Zn    Zn3+2 0.500000 0.401630 0.500000 0.984764
I1    I     I_    0.630149 0.651601 0.909969 -0.321457
I2    I     I_    0.630559 0.349022 0.089908 -0.321360
I3    I     I_    0.370089 0.651288 0.089876 -0.321437
I4    I     I_    0.370550 0.348484 0.910310 -0.321528
C37   C     C_R   0.607043 0.624394 0.727623 0.166011
C38   C     C_R   0.581595 0.712851 0.716579 -0.069852
C39   C     C_R   0.632379 0.771085 0.674835 -0.132652
C40   C     C_R   0.708844 0.741485 0.644269 -0.100727
C41   C     C_R   0.734681 0.653624 0.655428 -0.110373
C42   C     C_R   0.683808 0.594976 0.696681 -0.132156
H9    H     H_    0.522114 0.736151 0.739499 0.135794
H10   H     H_    0.612303 0.839037 0.665901 0.135736
H11   H     H_    0.748012 0.786593 0.611864 0.122317
H12   H     H_    0.793903 0.630853 0.631722 0.135503
H13   H     H_    0.703826 0.526723 0.704170 0.127967
C43   C     C_R   0.607276 0.375914 0.272281 0.165630
C44   C     C_R   0.581987 0.287395 0.283281 -0.068512
C45   C     C_R   0.632910 0.229212 0.324910 -0.134096
C46   C     C_R   0.709349 0.258930 0.355418 -0.101561
C47   C     C_R   0.735026 0.346859 0.344309 -0.109471
C48   C     C_R   0.684017 0.405453 0.303162 -0.132522
H14   H     H_    0.522531 0.263997 0.260397 0.135867
H15   H     H_    0.612967 0.161204 0.333784 0.134496
H16   H     H_    0.748626 0.213858 0.387732 0.121527
H17   H     H_    0.794233 0.369720 0.367962 0.135461
H18   H     H_    0.703919 0.473750 0.295696 0.127929
C49   C     C_R   0.392703 0.623908 0.272257 0.165881
C50   C     C_R   0.417855 0.712400 0.283654 -0.069358
C51   C     C_R   0.366705 0.770309 0.325365 -0.132777
C52   C     C_R   0.290165 0.740352 0.355529 -0.100252
C53   C     C_R   0.264621 0.652455 0.344009 -0.110728
C54   C     C_R   0.315866 0.594128 0.302800 -0.133203
H19   H     H_    0.477392 0.735972 0.261051 0.135708
H20   H     H_    0.386556 0.838285 0.334587 0.135546
H21   H     H_    0.250709 0.785208 0.387904 0.122564
H22   H     H_    0.205341 0.629404 0.367407 0.136859
H23   H     H_    0.296073 0.525841 0.295033 0.128286
C55   C     C_R   0.393289 0.375552 0.727891 0.165962
C56   C     C_R   0.418700 0.287061 0.716969 -0.068661
C57   C     C_R   0.367894 0.228761 0.675334 -0.134339
C58   C     C_R   0.291461 0.258338 0.644725 -0.101515
C59   C     C_R   0.265667 0.346241 0.655746 -0.109107
C60   C     C_R   0.316549 0.404946 0.696916 -0.132656
H24   H     H_    0.478169 0.263780 0.739904 0.135969
H25   H     H_    0.387931 0.160775 0.666519 0.134643
H26   H     H_    0.252284 0.213179 0.612394 0.121696
H27   H     H_    0.206474 0.369002 0.631996 0.136425
H28   H     H_    0.296564 0.473226 0.704303 0.127650

loop_
_geom_bond_atom_site_label_1
_geom_bond_atom_site_label_2
_ccdc_geom_bond_type
C7    C10   A    
C53   C54   A    
C4    C36   S    
C27   C29   S    
C44   C45   A    
C56   C57   A    
C8    H7    S    
C3    C6    T    
C58   C59   A    
C51   C52   A    
C7    C11   A    
C9    H6    S    
C29   C30   T    
C23   C49   S    
C38   H9    S    
C49   C50   A    
C1    C5    S    
C32   C36   A    
C52   H21   S    
C13   N2    T    
C59   H27   S    
C33   C36   A    
C34   C35   A    
C23   C26   A    
C16   O7    A    
C48   H18   S    
C43   C48   A    
C39   H10   S    
C37   C42   A    
C18   I2    S    
C20   C24   A    
N1    Zn2   S    
C8    C9    A    
N2    Zn1   S    
C44   H14   S    
C31   C33   A    
C24   C25   A    
C15   O5    A    
C20   I4    S    
C46   H16   S    
C21   C37   S    
C58   H26   S    
C60   H28   S    
C18   C22   A    
C53   H22   S    
C10   H5    S    
C2    C6    S    
C22   C43   S    
C14   N1    T    
O7    Zn1   S    
O8    Zn2   S    
C45   C46   A    
C17   C27   A    
C15   O8    A    
C18   C28   A    
C50   C51   A    
C56   H24   S    
C52   C53   A    
C1    O1    A    
C15   C26   S    
C2    O2    A    
C7    H8    S    
O4    Zn2   S    
C32   C34   A    
C19   C23   A    
C46   C47   A    
C38   C39   A    
C2    O3    A    
C24   C55   S    
C42   H13   S    
C3    C35   S    
C8    C12   A    
C57   C58   A    
C55   C56   A    
C40   H11   S    
C47   C48   A    
C19   C28   A    
C9    C11   A    
C10   C12   A    
C12   C14   S    
C59   C60   A    
C45   H15   S    
C31   C35   A    
C50   H19   S    
O1    Zn1   S    
C1    O4    A    
C16   C25   S    
O2    Zn2   S    
C21   C25   A    
C54   H23   S    
C34   H2    S    
C16   O6    A    
C43   C44   A    
C47   H17   S    
C51   H20   S    
C20   C27   A    
C19   I3    S    
C40   C41   A    
C28   C30   S    
O3    Zn1   S    
C11   C13   S    
C55   C60   A    
C31   H3    S    
C49   C54   A    
O5    Zn1   S    
C32   H4    S    
C37   C38   A    
C33   H1    S    
C39   C40   A    
O6    Zn2   S    
C4    C5    T    
C41   C42   A    
C22   C26   A    
C57   H25   S    
C41   H12   S    
C17   I1    S    
C17   C21   A    
