data_mof_unit_50212.cif
_audit_creation_date              2012-12-10T16:48:49-0500
_audit_creation_method            fapswitch 2.2
_symmetry_space_group_name_H-M    P1
_symmetry_Int_Tables_number       1
_space_group_crystal_system       triclinic
_cell_length_a                    16.757003
_cell_length_b                    8.672688
_cell_length_c                    7.483486
_cell_angle_alpha                 102.814825
_cell_angle_beta                  92.743804
_cell_angle_gamma                 92.534619
_cell_volume                      1057.57678092

loop_
_atom_site_label
_atom_site_type_symbol
_atom_type_description
_atom_site_fract_x
_atom_site_fract_y
_atom_site_fract_z
_atom_type_partial_charge
C1    C     C_R   0.497128 0.199749 0.453732 0.919065
C2    C     C_R   0.501624 0.800121 0.546343 0.867866
C3    C     C_2   0.495760 0.031863 0.427550 -0.307193
C4    C     C_2   0.501103 0.967776 0.572527 -0.299161
C5    C     C_R   0.349380 0.489507 0.519067 0.819841
C6    C     C_R   0.650122 0.485565 0.478155 0.823909
C7    C     C_R   0.261837 0.450754 0.515458 -0.186964
C8    C     C_R   0.735642 0.444035 0.475077 -0.192645
C9    C     C_R   0.218290 0.356554 0.356015 0.434281
C10   C     C_R   0.772077 0.372491 0.611892 0.433814
C11   C     C_R   0.137324 0.315611 0.364809 -0.157110
C12   C     C_R   0.850459 0.326215 0.595625 -0.164957
C13   C     C_R   0.099246 0.353963 0.529269 -0.070707
C14   C     C_R   0.892839 0.338225 0.443416 -0.071990
C15   C     C_R   0.141099 0.448915 0.684493 -0.030235
C16   C     C_R   0.858949 0.412869 0.312498 -0.042768
C17   C     C_R   0.221142 0.499001 0.676702 -0.167403
C18   C     C_R   0.781833 0.468902 0.331100 -0.186266
C19   C     C_2   0.022947 0.267186 0.546322 0.247898
C20   C     C_2   0.965237 0.247370 0.408772 0.282726
Cu1   Cu    Cu3+1 0.508700 0.517250 0.683000 1.053624
Cu2   Cu    Cu3+1 0.491300 0.482750 0.317000 1.061722
H1    H     H_    0.757522 0.528899 0.230889 0.225598
H2    H     H_    0.252198 0.570905 0.799230 0.203972
H3    H     H_    0.112676 0.479642 0.813603 0.186092
H4    H     H_    0.891311 0.424083 0.193745 0.202773
H5    H     H_    0.876941 0.268349 0.695727 0.244993
H6    H     H_    0.105174 0.241070 0.246073 0.241479
H7    H     H_    0.490957 0.960720 0.287717 0.180354
H8    H     H_    0.505533 0.038863 0.712381 0.199026
H9    H     H_    0.440203 0.372832 0.956318 0.260998
H10   H     H_    0.560051 0.626831 0.043507 0.240527
N1    N     N_2   0.478180 0.456750 0.041980 -0.176547
N2    N     N_2   0.521820 0.543250 0.958020 -0.179928
O1    O     O_R   0.505650 0.286040 0.618880 -0.561932
O2    O     O_R   0.494350 0.713960 0.381120 -0.593714
O3    O     O_R   0.490960 0.256910 0.309800 -0.556796
O4    O     O_R   0.509040 0.743090 0.690200 -0.584139
O5    O     O_R   0.394600 0.516230 0.672450 -0.591086
O6    O     O_R   0.605400 0.483770 0.327550 -0.577182
O7    O     O_R   0.379910 0.487100 0.363380 -0.506342
O8    O     O_R   0.620090 0.512900 0.636620 -0.507305
S1    S     S_3+6 0.261971 0.268458 0.148361 0.011443
O9    O     O_2   0.285988 0.395000 0.049949 -0.320547
O10   O     O_2   0.334082 0.183192 0.190589 -0.312632
O11   O     O_3   0.197251 0.136168 0.009581 -0.461030
H11   H     H_    0.227215 0.093327 0.900194 0.393602
S2    S     S_3+6 0.721910 0.317596 0.794420 0.001087
O12   O     O_2   0.694762 0.462123 0.922084 -0.314744
O13   O     O_2   0.651161 0.207544 0.716015 -0.306937
O14   O     O_3   0.782105 0.223245 0.915546 -0.524691
H12   H     H_    0.747213 0.186261 0.002577 0.383752
S3    S     S_3+6 0.947497 0.060538 0.253796 0.070910
O15   O     O_2   0.021651 0.968218 0.238643 -0.218264
O16   O     O_2   0.881161 0.967760 0.318311 -0.255219
O17   O     O_3   0.918569 0.089560 0.046742 -0.462006
H13   H     H_    0.886990 0.991403 0.984903 0.388169
S4    S     S_3+6 0.032060 0.124776 0.682464 0.081144
O18   O     O_2   0.103175 0.029422 0.626437 -0.249741
O19   O     O_2   0.045613 0.210702 0.879872 -0.238491
O20   O     O_3   0.949720 0.002543 0.659659 -0.466674
H14   H     H_    0.968021 0.905611 0.694522 0.382681

loop_
_geom_bond_atom_site_label_1
_geom_bond_atom_site_label_2
_ccdc_geom_bond_type
C2    C4    S    
S1    O9    D    
H9    N1    S    
C15   C17   A    
Cu1   O1    S    
C14   C20   S    
C8    C18   A    
C11   C13   A    
C2    O4    A    
S3    O16   D    
C19   C20   D    
Cu1   O5    S    
C13   C15   A    
C1    O3    A    
Cu2   O6    S    
S4    O20   S    
S2    O13   D    
N1    N2    D    
C3    C4    D    
C16   C18   A    
Cu1   Cu2   S    
C16   H4    S    
S1    O10   D    
C10   C12   A    
C11   H6    S    
Cu2   N1    S    
C8    C10   A    
S2    O12   D    
C12   C14   A    
C6    O6    A    
C9    C11   A    
C19   S4    S    
C10   S2    S    
O20   H14   S    
S1    O11   S    
C14   C16   A    
C15   H3    S    
Cu2   O7    S    
C9    S1    S    
C13   C19   S    
C12   H5    S    
S4    O19   D    
O14   H12   S    
C17   H2    S    
C7    C9    A    
Cu2   O2    S    
O17   H13   S    
C1    O1    A    
C3    H7    S    
C6    O8    A    
S3    O17   S    
C2    O2    A    
C5    C7    S    
C5    O5    A    
C5    O7    A    
O11   H11   S    
C6    C8    S    
Cu1   O8    S    
C1    C3    S    
S4    O18   D    
S3    O15   D    
Cu2   O3    S    
Cu1   N2    S    
S2    O14   S    
C4    H8    S    
Cu1   O4    S    
C18   H1    S    
C20   S3    S    
C7    C17   A    
H10   N2    S    
