data_mof_unit_55582.cif
_audit_creation_date              2012-12-11T15:18:42-0500
_audit_creation_method            fapswitch 2.2
_symmetry_space_group_name_H-M    P1
_symmetry_Int_Tables_number       1
_space_group_crystal_system       triclinic
_cell_length_a                    6.940382
_cell_length_b                    19.9222
_cell_length_c                    23.829354
_cell_angle_alpha                 93.51089
_cell_angle_beta                  91.481825
_cell_angle_gamma                 88.978933
_cell_volume                      3287.11056194

loop_
_atom_site_label
_atom_site_type_symbol
_atom_type_description
_atom_site_fract_x
_atom_site_fract_y
_atom_site_fract_z
_atom_type_partial_charge
O1    O     O_R   0.620100 0.812200 0.810870 -0.540069
O2    O     O_R   0.379900 0.187800 0.189130 -0.540067
O3    O     O_R   0.296960 0.671650 0.794750 -0.537453
O4    O     O_R   0.703040 0.328350 0.205250 -0.537442
O5    O     O_R   0.120160 0.687800 0.689130 -0.538816
O6    O     O_R   0.879840 0.312200 0.310870 -0.538783
C1    C     C_R   0.468146 0.647096 0.804674 0.698824
C2    C     C_R   0.531853 0.352905 0.195328 0.698827
O7    O     O_R   0.290810 0.810670 0.817290 -0.543212
O8    O     O_R   0.709190 0.189330 0.182710 -0.543212
O9    O     O_R   0.113980 0.827820 0.711840 -0.535773
O10   O     O_R   0.886020 0.172180 0.288160 -0.535775
C3    C     C_R   0.460071 0.831962 0.834226 0.708802
C4    C     C_R   0.539929 0.168038 0.165774 0.708803
O11   O     O_R   0.626290 0.672180 0.788160 -0.537264
O12   O     O_R   0.373710 0.327820 0.211840 -0.537265
O13   O     O_3   0.451520 0.755460 0.715370 -0.370169
O14   O     O_3   0.548480 0.244540 0.284630 -0.370175
V1    V     V_3+5 0.179200 0.748980 0.756420 1.412421
V2    V     V_3+5 0.820800 0.251020 0.243580 1.412457
O15   O     O_R   0.783880 0.828350 0.705250 -0.537744
O16   O     O_R   0.216120 0.171650 0.294750 -0.537746
C5    C     C_R   0.950140 0.852602 0.694735 0.695826
C6    C     C_R   0.049860 0.147398 0.305265 0.695812
O17   O     O_R   0.790030 0.689320 0.682700 -0.546954
O18   O     O_R   0.209970 0.310680 0.317300 -0.547000
C7    C     C_R   0.957620 0.667172 0.666340 0.713388
C8    C     C_R   0.042380 0.332825 0.333664 0.713369
V3    V     V_3+5 0.678400 0.751010 0.743570 1.404870
V4    V     V_3+5 0.321600 0.248990 0.256430 1.404837
O19   O     O_3   0.955950 0.744540 0.784620 -0.367183
O20   O     O_3   0.044050 0.255460 0.215380 -0.367175
C9    C     C_R   0.184921 0.430170 0.395078 0.138659
C10   C     C_R   0.815144 0.569817 0.604947 0.138793
C11   C     C_R   0.035965 0.382752 0.382814 -0.131176
C12   C     C_R   0.964035 0.617260 0.617184 -0.131114
C13   C     C_R   0.875252 0.383712 0.417574 -0.246825
C14   C     C_R   0.124708 0.616322 0.582411 -0.247049
C15   C     C_R   0.860623 0.429766 0.464133 0.101310
C16   C     C_R   0.139316 0.570277 0.535843 0.101333
C17   C     C_R   0.007717 0.476677 0.476455 0.008632
C18   C     C_R   0.992201 0.523374 0.523518 0.008656
C19   C     C_R   0.169983 0.477123 0.441820 0.099670
C20   C     C_R   0.829977 0.522906 0.558169 0.099625
C21   C     C_R   0.700558 0.429442 0.498716 -0.201506
C22   C     C_R   0.299390 0.570599 0.501267 -0.201612
C23   C     C_R   0.685448 0.475238 0.545190 -0.156736
C24   C     C_R   0.314510 0.524792 0.454799 -0.156738
H1    H     H_    0.761378 0.347728 0.408713 0.132286
H2    H     H_    0.238610 0.652288 0.591291 0.132344
H3    H     H_    0.586011 0.393798 0.489698 0.131819
H4    H     H_    0.413961 0.606237 0.510291 0.131793
H5    H     H_    0.558794 0.473280 0.570603 0.172508
H6    H     H_    0.441170 0.526748 0.429395 0.172541
C25   C     C_R   0.949170 0.914046 0.663072 -0.043901
C26   C     C_R   0.050830 0.085954 0.336928 -0.043898
C27   C     C_R   0.868798 0.032306 0.659509 -0.160907
C28   C     C_R   0.131202 0.967694 0.340491 -0.160910
C29   C     C_R   0.885757 0.974602 0.689453 -0.166311
C30   C     C_R   0.114242 0.025398 0.310547 -0.166310
C31   C     C_R   0.994988 0.911496 0.605738 -0.215411
C32   C     C_R   0.005012 0.088504 0.394262 -0.215416
C33   C     C_R   0.975105 0.969620 0.573703 0.086429
C34   C     C_R   0.024895 0.030379 0.426297 0.086431
C35   C     C_R   0.911233 0.030331 0.602147 0.138933
C36   C     C_R   0.088767 0.969669 0.397853 0.138933
C37   C     C_R   0.013239 0.969645 0.514619 0.057954
C38   C     C_R   0.986761 0.030355 0.485380 0.057955
C39   C     C_R   0.923726 0.088993 0.516246 -0.187417
C40   C     C_R   0.076274 0.911007 0.483754 -0.187415
C41   C     C_R   0.887378 0.088796 0.573244 -0.201090
C42   C     C_R   0.112622 0.911204 0.426756 -0.201091
H7    H     H_    0.838523 0.135172 0.594967 0.123609
H8    H     H_    0.161477 0.864828 0.405032 0.123606
H9    H     H_    0.959735 0.136780 0.412631 0.093989
H10   H     H_    0.040265 0.863220 0.587369 0.093998
H11   H     H_    0.152202 0.022953 0.266630 0.104256
H12   H     H_    0.847798 0.977047 0.733370 0.104256
H13   H     H_    0.819209 0.078605 0.681158 0.113498
H14   H     H_    0.180791 0.921395 0.318842 0.113496
H15   H     H_    0.900159 0.136362 0.497540 0.123021
H16   H     H_    0.099841 0.863638 0.502460 0.123025
C43   C     C_R   0.485587 0.585766 0.836064 -0.043105
C44   C     C_R   0.514411 0.414236 0.163939 -0.043104
C45   C     C_R   0.559998 0.466872 0.836585 -0.158529
C46   C     C_R   0.440058 0.533134 0.163421 -0.158532
C47   C     C_R   0.532643 0.524773 0.807393 -0.169851
C48   C     C_R   0.467384 0.475230 0.192613 -0.169800
C49   C     C_R   0.465708 0.588589 0.894717 -0.213561
C50   C     C_R   0.534263 0.411411 0.105286 -0.213560
C51   C     C_R   0.495845 0.530272 0.925827 0.086559
C52   C     C_R   0.504161 0.469732 0.074177 0.086559
C53   C     C_R   0.543287 0.469081 0.895233 0.138606
C54   C     C_R   0.456757 0.530925 0.104773 0.138600
C55   C     C_R   0.482742 0.530506 0.985927 0.057883
C56   C     C_R   0.517272 0.469499 0.014078 0.057886
C57   C     C_R   0.563205 0.410330 0.981184 -0.186975
C58   C     C_R   0.436843 0.589677 0.018822 -0.186973
C59   C     C_R   0.575492 0.410328 0.923165 -0.201018
C60   C     C_R   0.424579 0.589680 0.076841 -0.201014
H17   H     H_    0.611717 0.363562 0.899828 0.123333
H18   H     H_    0.388393 0.636449 0.100180 0.123330
H19   H     H_    0.569137 0.362839 0.085456 0.093570
H20   H     H_    0.430782 0.637157 0.914545 0.093576
H21   H     H_    0.451793 0.478041 0.237766 0.111803
H22   H     H_    0.548230 0.521961 0.762239 0.111904
H23   H     H_    0.596339 0.420170 0.813209 0.115112
H24   H     H_    0.403747 0.579838 0.186799 0.115098
H25   H     H_    0.591240 0.362653 0.998958 0.123328
H26   H     H_    0.408841 0.637357 0.001049 0.123326
C61   C     C_R   0.366300 0.077075 0.107933 -0.216979
C62   C     C_R   0.633700 0.922925 0.892067 -0.216979
C63   C     C_R   0.528106 0.118596 0.116407 -0.084624
C64   C     C_R   0.471894 0.881403 0.883593 -0.084624
C65   C     C_R   0.678534 0.112175 0.077747 -0.227070
C66   C     C_R   0.321466 0.887825 0.922253 -0.227071
C67   C     C_R   0.667371 0.065603 0.031011 0.090577
C68   C     C_R   0.332629 0.934397 0.968989 0.090577
C69   C     C_R   0.505593 0.023768 0.023283 0.053155
C70   C     C_R   0.494407 0.976232 0.976717 0.053155
C71   C     C_R   0.354990 0.029368 0.062041 0.088465
C72   C     C_R   0.645010 0.970632 0.937959 0.088464
C73   C     C_R   0.815090 0.060121 0.991761 -0.184018
C74   C     C_R   0.184910 0.939879 0.008239 -0.184019
C75   C     C_R   0.804100 0.013060 0.945710 -0.191591
C76   C     C_R   0.195901 0.986940 0.054290 -0.191593
H27   H     H_    0.250154 0.081137 0.137580 0.123120
H28   H     H_    0.749846 0.918863 0.862419 0.123120
H29   H     H_    0.803445 0.143982 0.083642 0.127648
H30   H     H_    0.196555 0.856018 0.916358 0.127649
H31   H     H_    0.940043 0.091973 0.996868 0.134756
H32   H     H_    0.059957 0.908027 0.003132 0.134756
H33   H     H_    0.920874 0.009590 0.916297 0.132250
H34   H     H_    0.079126 0.990410 0.083703 0.132250
N1    N     N_3   0.348594 0.433066 0.359712 -0.689396
H35   H     H_    0.433406 0.389664 0.363500 0.245373
H36   H     H_    0.300218 0.436226 0.318061 0.226429
N2    N     N_3   0.651824 0.566774 0.640427 -0.689480
H37   H     H_    0.566569 0.610089 0.636709 0.245379
H38   H     H_    0.700624 0.563619 0.682041 0.226385

loop_
_geom_bond_atom_site_label_1
_geom_bond_atom_site_label_2
_ccdc_geom_bond_type
C43   C47   A    
C33   C35   A    
C58   H26   S    
C25   C29   A    
C61   C71   A    
O13   V3    S    
C17   C18   A    
C27   H13   S    
C1    C43   S    
C55   C56   A    
C6    C26   S    
O4    C2    A    
V1    O19   S    
C62   C64   A    
C55   C58   A    
N1    H35   S    
C15   C17   A    
C24   H6    S    
O9    V1    S    
C18   C20   A    
C34   C38   A    
O16   C6    A    
C11   C13   A    
O7    V1    S    
O3    C1    A    
C67   C69   A    
C65   H29   S    
C46   C48   A    
C73   C75   A    
C21   H3    S    
C28   C30   A    
C22   H4    S    
C52   C56   A    
C57   H25   S    
C74   H32   S    
C31   C33   A    
C39   C41   A    
O7    C3    A    
C32   C34   A    
C46   C54   A    
C9    C11   A    
O5    C7    A    
C45   C53   A    
C28   C36   A    
C36   C42   A    
C8    C11   S    
O8    V2    S    
C38   C39   A    
C65   C67   A    
O3    V1    S    
O14   V4    S    
C49   C51   A    
C19   C24   A    
C53   C59   A    
O14   V2    S    
C3    C64   S    
C20   C23   A    
C28   H14   S    
C15   C21   A    
C21   C23   A    
C2    O12   A    
C17   C19   A    
C44   C50   A    
C40   H16   S    
C29   H12   S    
C60   H18   S    
C57   C59   A    
C70   C72   A    
O11   V3    S    
C22   C24   A    
C45   C47   A    
C31   H10   S    
O17   V3    S    
C43   C49   A    
C33   C37   A    
C30   H11   S    
C37   C38   A    
C9    C19   A    
C10   C20   A    
C42   H8    S    
O8    C4    A    
C41   H7    S    
C1    O11   A    
C35   C41   A    
O15   V3    S    
C10   N2    S    
C26   C30   A    
C34   C36   A    
C16   C22   A    
C62   C72   A    
V4    O20   S    
C51   C53   A    
C13   H1    S    
C9    N1    S    
C50   C52   A    
C54   C60   A    
C56   C57   A    
O10   V2    S    
O1    V3    S    
C61   C63   A    
C68   C74   A    
C69   C71   A    
N2    H38   S    
C39   H15   S    
C14   H2    S    
C59   H17   S    
O18   V4    S    
C58   C60   A    
O15   C5    A    
C49   H20   S    
C61   H27   S    
C26   C32   A    
C32   H9    S    
O1    C3    A    
C74   C76   A    
V2    O20   S    
C75   H33   S    
N1    H36   S    
O16   V4    S    
C73   H31   S    
C2    C44   S    
C46   H24   S    
C44   C48   A    
C27   C35   A    
C16   C18   A    
C64   C66   A    
C69   C70   A    
C5    C25   S    
O5    V1    S    
C7    C12   S    
O17   C7    A    
C4    C63   S    
O6    V2    S    
O10   C6    A    
O18   C8    A    
C23   H5    S    
O2    V4    S    
C37   C40   A    
C72   C75   A    
C12   C14   A    
C67   C73   A    
C71   C76   A    
C13   C15   A    
C14   C16   A    
C48   H21   S    
C52   C54   A    
C47   H22   S    
C25   C31   A    
O9    C5    A    
O13   V1    S    
C66   C68   A    
C10   C12   A    
O2    C4    A    
C68   C70   A    
C50   H19   S    
C62   H28   S    
C27   C29   A    
N2    H37   S    
C51   C55   A    
O4    V2    S    
O6    C8    A    
C66   H30   S    
C76   H34   S    
V3    O19   S    
C40   C42   A    
C45   H23   S    
O12   V4    S    
C63   C65   A    
