data_mof_unit_40961.cif
_audit_creation_date              2012-12-10T18:00:20-0500
_audit_creation_method            fapswitch 2.2
_symmetry_space_group_name_H-M    P1
_symmetry_Int_Tables_number       1
_space_group_crystal_system       triclinic
_cell_length_a                    10.825763
_cell_length_b                    9.523708
_cell_length_c                    10.67712
_cell_angle_alpha                 89.58581
_cell_angle_beta                  90.169683
_cell_angle_gamma                 89.995339
_cell_volume                      1100.79248412

loop_
_atom_site_label
_atom_site_type_symbol
_atom_type_description
_atom_site_fract_x
_atom_site_fract_y
_atom_site_fract_z
_atom_type_partial_charge
C1    C     C_R   0.871758 0.499988 0.500113 -0.023251
C2    C     C_R   0.128241 0.500012 0.499887 -0.023250
C3    C     C_R   0.262086 0.500005 0.499900 0.795744
C4    C     C_R   0.737914 0.499994 0.500100 0.795744
C5    C     C_R   0.500246 0.500687 0.259681 0.815142
C6    C     C_R   0.499754 0.499313 0.740318 0.815141
C7    C     C_3   0.502984 0.633715 0.038241 -0.055690
C8    C     C_3   0.497016 0.366285 0.961759 -0.055690
C9    C     C_3   0.602366 0.562743 0.957346 -0.073746
C10   C     C_3   0.397634 0.437257 0.042653 -0.073746
C11   C     C_3   0.400237 0.568470 0.957206 -0.076826
C12   C     C_3   0.599763 0.431530 0.042794 -0.076826
C13   C     C_3   0.499632 0.497699 0.876406 -0.134711
C14   C     C_3   0.500368 0.502301 0.123594 -0.134711
C15   C     C_R   0.422039 0.075024 0.423289 0.001080
C16   C     C_R   0.577961 0.924976 0.576711 0.001080
C17   C     C_R   0.578019 0.073777 0.576632 0.005984
C18   C     C_R   0.421981 0.926223 0.423368 0.005984
C19   C     C_R   0.063861 0.373131 0.488465 -0.152997
C20   C     C_R   0.936139 0.626869 0.511535 -0.152997
C21   C     C_R   0.936089 0.373115 0.488610 -0.156579
C22   C     C_R   0.063911 0.626884 0.511390 -0.156579
Cu1   Cu    Cu3+1 0.500000 0.640660 0.500000 0.969043
Cu2   Cu    Cu3+1 0.500000 0.359340 0.500000 0.969043
H1    H     H_    0.359627 0.131566 0.361745 0.134467
H2    H     H_    0.640373 0.868434 0.638255 0.134467
H3    H     H_    0.640495 0.129340 0.638071 0.129513
H4    H     H_    0.359505 0.870660 0.361929 0.129513
H5    H     H_    0.111945 0.274025 0.479023 0.155340
H6    H     H_    0.888055 0.725975 0.520977 0.155340
H7    H     H_    0.887965 0.273996 0.479301 0.157996
H8    H     H_    0.112035 0.726004 0.520699 0.157996
N1    N     N_R   0.500000 0.852070 0.500000 -0.169509
N2    N     N_R   0.500000 0.147930 0.500000 -0.169509
O1    O     O_R   0.319640 0.618740 0.499990 -0.590700
O2    O     O_R   0.680360 0.381260 0.500010 -0.590700
O3    O     O_R   0.680360 0.618740 0.500010 -0.589869
O4    O     O_R   0.319640 0.381260 0.499990 -0.589869
O5    O     O_R   0.499970 0.618770 0.316850 -0.583638
O6    O     O_R   0.500030 0.381230 0.683150 -0.583638
O7    O     O_R   0.500030 0.618770 0.683150 -0.575762
O8    O     O_R   0.499970 0.381230 0.316850 -0.575762
C23   C     C_1   0.291129 0.642469 0.908015 0.264217
N3    N     N_1   0.205246 0.700656 0.869071 -0.253708
C24   C     C_1   0.708870 0.357531 0.091985 0.264217
N4    N     N_1   0.794754 0.299344 0.130928 -0.253708
C25   C     C_1   0.506737 0.780232 0.080233 0.298327
N5    N     N_1   0.509824 0.895445 0.113705 -0.271045
C26   C     C_1   0.493263 0.219768 0.919767 0.298327
N6    N     N_1   0.490176 0.104555 0.886295 -0.271045
C27   C     C_1   0.714162 0.630633 0.908027 0.248231
N7    N     N_1   0.802119 0.684026 0.868946 -0.267054
C28   C     C_1   0.285838 0.369367 0.091973 0.248232
N8    N     N_1   0.197881 0.315974 0.131054 -0.267054

loop_
_geom_bond_atom_site_label_1
_geom_bond_atom_site_label_2
_ccdc_geom_bond_type
C2    C22   A    
C15   C18   A    
Cu2   O4    S    
C5    O8    A    
C4    O2    A    
C1    C21   A    
C8    C13   S    
Cu1   O3    S    
C16   N1    A    
Cu2   O8    S    
C15   N2    A    
C25   N5    T    
Cu1   O7    S    
C3    O1    A    
C8    C12   S    
C1    C4    S    
C2    C3    S    
C17   H3    S    
C20   H6    S    
C24   N4    T    
C6    C13   S    
C11   C23   S    
C21   H7    S    
C5    C14   S    
Cu2   O2    S    
C22   H8    S    
Cu1   O5    S    
C19   C21   A    
C12   C14   S    
C7    C11   S    
Cu1   O1    S    
C10   C11   S    
C5    O5    A    
C23   N3    T    
C16   H2    S    
C18   N1    A    
C6    O6    A    
C15   H1    S    
C9    C12   S    
C20   C22   A    
Cu1   Cu2   S    
C27   N7    T    
C19   H5    S    
C11   C13   S    
C18   H4    S    
C4    O3    A    
C8    C10   S    
C26   N6    T    
C17   N2    A    
C10   C14   S    
C7    C9    S    
C10   C28   S    
C9    C13   S    
C16   C17   A    
C1    C20   A    
Cu2   O6    S    
C2    C19   A    
C28   N8    T    
C8    C26   S    
C7    C14   S    
Cu2   N2    S    
C3    O4    A    
C7    C25   S    
C12   C24   S    
Cu1   N1    S    
C6    O7    A    
C9    C27   S    
