data_mof_unit_60887.cif
_audit_creation_date              2012-12-10T17:45:05-0500
_audit_creation_method            fapswitch 2.2
_symmetry_space_group_name_H-M    P1
_symmetry_Int_Tables_number       1
_space_group_crystal_system       triclinic
_cell_length_a                    30.391703
_cell_length_b                    30.392357
_cell_length_c                    47.265064
_cell_angle_alpha                 90.00353
_cell_angle_beta                  90.000779
_cell_angle_gamma                 90.015456
_cell_volume                      43657.5793525

loop_
_atom_site_label
_atom_site_type_symbol
_atom_type_description
_atom_site_fract_x
_atom_site_fract_y
_atom_site_fract_z
_atom_type_partial_charge
C1    C     C_R   0.085142 0.500005 1.000000 0.803999
C2    C     C_R   0.500005 0.085143 1.000000 0.805324
C3    C     C_R   0.914858 0.499995 1.000000 0.804078
C4    C     C_R   0.499982 0.914859 0.999994 0.803916
C5    C     C_R   0.585142 0.000005 0.500000 0.802403
C6    C     C_R   0.000005 0.585143 0.500000 0.802401
C7    C     C_R   0.414857 0.999995 0.500000 0.802398
C8    C     C_R   0.999995 0.414857 0.500001 0.802406
C9    C     C_R   0.999999 0.500008 0.145515 0.319202
C10   C     C_R   0.499996 0.000008 0.145516 0.319211
C11   C     C_R   0.000001 0.499992 0.854485 0.319193
C12   C     C_R   0.500008 0.000021 0.854484 0.319344
C13   C     C_R   0.500008 0.000011 0.645468 0.318168
C14   C     C_R   0.000002 0.499995 0.645469 0.318197
C15   C     C_R   0.499995 0.999996 0.354532 0.318181
C16   C     C_R   0.999999 0.500005 0.354531 0.318176
C17   C     C_R   0.500003 0.414782 0.999999 0.792584
C18   C     C_R   0.585218 0.499997 0.000000 0.791443
C19   C     C_R   0.500045 0.585215 0.000002 0.798679
C20   C     C_R   0.414782 0.500003 1.000000 0.796936
C21   C     C_R   0.000003 0.914782 0.499999 0.793427
C22   C     C_R   0.085218 0.999998 0.500000 0.793434
C23   C     C_R   0.999998 0.085218 0.500001 0.793435
C24   C     C_R   0.914782 0.000002 0.500000 0.793449
C25   C     C_R   0.202849 0.459749 0.997863 0.010830
C26   C     C_R   0.540303 0.202858 0.997864 0.010675
C27   C     C_R   0.797151 0.540253 0.997865 0.010876
C28   C     C_R   0.459080 0.797401 0.998363 0.024651
C29   C     C_R   0.202859 0.540304 0.002133 0.009953
C30   C     C_R   0.539837 0.797006 0.001797 -0.032879
C31   C     C_R   0.797141 0.459699 0.002135 0.010628
C32   C     C_R   0.459746 0.202849 0.002129 0.010920
C33   C     C_R   0.702849 0.959746 0.497873 0.010094
C34   C     C_R   0.040304 0.702859 0.497873 0.010112
C35   C     C_R   0.297151 0.040254 0.497876 0.010088
C36   C     C_R   0.959696 0.297141 0.497882 0.010097
C37   C     C_R   0.702859 0.040303 0.502124 0.010093
C38   C     C_R   0.040255 0.297152 0.502129 0.010100
C39   C     C_R   0.297141 0.959697 0.502124 0.010107
C40   C     C_R   0.959745 0.702849 0.502120 0.010092
C41   C     C_R   0.156762 0.460328 0.997887 -0.131310
C42   C     C_R   0.539710 0.156771 0.997889 -0.131399
C43   C     C_R   0.843238 0.539673 0.997888 -0.131395
C44   C     C_R   0.460043 0.843396 0.998298 -0.255604
C45   C     C_R   0.156771 0.539710 0.002110 -0.131524
C46   C     C_R   0.539464 0.843094 0.001741 -0.124837
C47   C     C_R   0.843229 0.460291 0.002112 -0.131348
C48   C     C_R   0.460326 0.156762 0.002108 -0.131500
C49   C     C_R   0.656762 0.960326 0.497896 -0.132429
C50   C     C_R   0.039711 0.656771 0.497897 -0.132464
C51   C     C_R   0.343238 0.039674 0.497898 -0.132442
C52   C     C_R   0.960288 0.343228 0.497903 -0.132450
C53   C     C_R   0.656772 0.039711 0.502101 -0.132445
C54   C     C_R   0.039675 0.343238 0.502105 -0.132425
C55   C     C_R   0.343228 0.960290 0.502101 -0.132472
C56   C     C_R   0.960325 0.656763 0.502099 -0.132434
C57   C     C_R   0.133585 0.500015 0.999999 -0.131250
C58   C     C_R   0.500015 0.133585 0.999999 -0.131583
C59   C     C_R   0.866415 0.499985 1.000000 -0.131446
C60   C     C_R   0.499858 0.866419 1.000000 -0.076861
C61   C     C_R   0.633585 0.000015 0.499999 -0.132180
C62   C     C_R   0.000015 0.633586 0.499999 -0.132189
C63   C     C_R   0.366415 0.999985 0.500000 -0.132185
C64   C     C_R   0.999985 0.366414 0.500003 -0.132187
C65   C     C_R   0.226008 0.500030 0.999998 -0.085092
C66   C     C_R   0.500027 0.226008 0.999996 -0.085326
C67   C     C_R   0.773992 0.499973 0.000000 -0.085350
C68   C     C_R   0.499395 0.773941 0.000097 -0.031546
C69   C     C_R   0.726008 0.000028 0.499998 -0.085650
C70   C     C_R   0.000027 0.726008 0.499996 -0.085664
C71   C     C_R   0.273991 0.999973 0.500000 -0.085660
C72   C     C_R   0.999972 0.273992 0.500006 -0.085658
C73   C     C_R   0.297222 0.499583 0.025654 -0.164455
C74   C     C_R   0.500476 0.297224 0.025652 -0.165165
C75   C     C_R   0.702778 0.500422 0.025656 -0.165327
C76   C     C_R   0.499119 0.702724 0.025710 -0.117476
C77   C     C_R   0.297223 0.500480 0.974344 -0.164299
C78   C     C_R   0.500694 0.702789 0.974397 -0.111760
C79   C     C_R   0.702777 0.499522 0.974345 -0.165273
C80   C     C_R   0.499581 0.297221 0.974342 -0.165249
C81   C     C_R   0.797222 0.999583 0.525654 -0.165754
C82   C     C_R   0.000472 0.797224 0.525652 -0.165769
C83   C     C_R   0.202778 0.000418 0.525656 -0.165787
C84   C     C_R   0.999528 0.202778 0.525659 -0.165754
C85   C     C_R   0.797223 0.000474 0.474344 -0.165750
C86   C     C_R   0.000415 0.202777 0.474349 -0.165744
C87   C     C_R   0.202777 0.999525 0.474345 -0.165771
C88   C     C_R   0.999584 0.797221 0.474341 -0.165761
C89   C     C_R   0.343060 0.499588 0.025681 -0.165647
C90   C     C_R   0.500452 0.343062 0.025679 -0.168785
C91   C     C_R   0.656940 0.500417 0.025682 -0.169144
C92   C     C_R   0.499305 0.656893 0.025710 -0.164018
C93   C     C_R   0.343061 0.500455 0.974318 -0.165396
C94   C     C_R   0.500840 0.656953 0.974350 -0.163490
C95   C     C_R   0.656939 0.499546 0.974319 -0.169193
C96   C     C_R   0.499585 0.343059 0.974316 -0.168788
C97   C     C_R   0.843060 0.999587 0.525681 -0.169137
C98   C     C_R   0.000448 0.843062 0.525679 -0.169154
C99   C     C_R   0.156940 0.000413 0.525682 -0.169167
C100  C     C_R   0.999552 0.156940 0.525684 -0.169141
C101  C     C_R   0.843061 0.000450 0.474318 -0.169137
C102  C     C_R   0.000411 0.156939 0.474321 -0.169129
C103  C     C_R   0.156939 0.999549 0.474319 -0.169160
C104  C     C_R   0.999589 0.843059 0.474316 -0.169147
C105  C     C_R   0.366393 0.500015 0.999999 -0.038398
C106  C     C_R   0.500013 0.366393 0.999998 -0.039140
C107  C     C_R   0.633607 0.499988 0.000000 -0.039037
C108  C     C_R   0.500076 0.633596 0.000018 -0.041026
C109  C     C_R   0.866393 0.000012 0.499999 -0.038989
C110  C     C_R   0.000013 0.866393 0.499998 -0.038978
C111  C     C_R   0.133607 0.999988 0.500000 -0.038966
C112  C     C_R   0.999988 0.133607 0.500002 -0.038992
C113  C     C_R   0.274305 0.500035 0.999999 0.031566
C114  C     C_R   0.500032 0.274305 0.999996 0.032794
C115  C     C_R   0.725695 0.499968 0.000000 0.032949
C116  C     C_R   0.499648 0.725674 0.000064 0.121703
C117  C     C_R   0.774305 0.000032 0.499999 0.033716
C118  C     C_R   0.000033 0.774305 0.499996 0.033738
C119  C     C_R   0.225695 0.999968 0.500000 0.033756
C120  C     C_R   0.999968 0.225695 0.500005 0.033716
C121  C     C_R   1.000000 0.500001 0.054524 0.789666
C122  C     C_R   0.500000 0.000001 0.054524 0.790208
C123  C     C_R   1.000000 0.499999 0.945476 0.789631
C124  C     C_R   0.500000 0.000003 0.945476 0.791049
C125  C     C_R   0.500001 0.000001 0.554524 0.787510
C126  C     C_R   0.000000 0.500000 0.554524 0.787514
C127  C     C_R   0.499999 0.999999 0.445476 0.787507
C128  C     C_R   1.000000 0.500000 0.445476 0.787517
C129  C     C_R   0.033850 0.480400 0.310058 0.573205
C130  C     C_R   0.519602 0.033859 0.310062 0.573202
C131  C     C_R   0.966148 0.519612 0.310059 0.573185
C132  C     C_R   0.480388 0.966138 0.310057 0.573187
C133  C     C_R   0.033856 0.519613 0.689942 0.573188
C134  C     C_R   0.519601 0.966155 0.689940 0.573204
C135  C     C_R   0.966149 0.480372 0.689940 0.573201
C136  C     C_R   0.480425 0.033877 0.689941 0.573141
C137  C     C_R   0.514919 0.963828 0.809931 0.572016
C138  C     C_R   0.036190 0.514931 0.809934 0.572100
C139  C     C_R   0.485112 0.036217 0.809933 0.571953
C140  C     C_R   0.963814 0.485049 0.809932 0.572159
C141  C     C_R   0.514918 0.036200 0.190070 0.572243
C142  C     C_R   0.036186 0.485084 0.190066 0.572142
C143  C     C_R   0.485067 0.963814 0.190065 0.571845
C144  C     C_R   0.963813 0.514934 0.190067 0.572122
C145  C     C_R   0.963419 0.517271 0.280154 -0.032895
C146  C     C_R   0.482728 0.963413 0.280152 -0.032956
C147  C     C_R   0.036580 0.482743 0.280153 -0.032892
C148  C     C_R   0.517259 0.036589 0.280157 -0.032871
C149  C     C_R   0.963421 0.482712 0.719845 -0.032888
C150  C     C_R   0.482772 0.036608 0.719847 -0.032915
C151  C     C_R   0.036585 0.517271 0.719848 -0.032917
C152  C     C_R   0.517259 0.963429 0.719845 -0.032916
C153  C     C_R   0.481857 0.036187 0.779999 -0.032599
C154  C     C_R   0.963845 0.481793 0.779998 -0.032568
C155  C     C_R   0.518177 0.963857 0.779997 -0.032620
C156  C     C_R   0.036160 0.518187 0.780000 -0.032559
C157  C     C_R   0.481810 0.963841 0.219999 -0.032437
C158  C     C_R   0.963845 0.518190 0.220001 -0.032562
C159  C     C_R   0.518174 0.036170 0.220004 -0.032632
C160  C     C_R   0.036155 0.481828 0.220001 -0.032572
C161  C     C_R   1.000000 0.500008 0.265091 -0.043103
C162  C     C_R   0.499993 0.000002 0.265091 -0.043127
C163  C     C_R   0.000003 0.499991 0.734909 -0.043108
C164  C     C_R   0.500016 0.000019 0.734908 -0.043151
C165  C     C_R   0.500017 0.000021 0.764948 -0.043532
C166  C     C_R   0.000003 0.499990 0.764949 -0.043484
C167  C     C_R   0.499993 0.000004 0.235052 -0.043551
C168  C     C_R   1.000000 0.500009 0.235051 -0.043465
C169  C     C_R   0.926412 0.533435 0.264968 -0.088146
C170  C     C_R   0.466563 0.926399 0.264963 -0.088214
C171  C     C_R   0.073587 0.466581 0.264966 -0.088138
C172  C     C_R   0.533422 0.073606 0.264973 -0.088130
C173  C     C_R   0.926412 0.466531 0.735030 -0.088137
C174  C     C_R   0.466632 0.073625 0.735033 -0.088168
C175  C     C_R   0.073594 0.533450 0.735035 -0.088146
C176  C     C_R   0.533403 0.926415 0.735031 -0.088135
C177  C     C_R   0.462892 0.071839 0.764758 -0.087583
C178  C     C_R   0.928203 0.462791 0.764755 -0.087677
C179  C     C_R   0.537145 0.928205 0.764755 -0.087683
C180  C     C_R   0.071803 0.537189 0.764760 -0.087517
C181  C     C_R   0.462822 0.928190 0.235238 -0.087262
C182  C     C_R   0.928203 0.537176 0.235244 -0.087634
C183  C     C_R   0.537161 0.071819 0.235248 -0.087699
C184  C     C_R   0.071797 0.462842 0.235242 -0.087669
C185  C     C_R   0.972758 0.470975 0.130652 -0.118854
C186  C     C_R   0.529030 0.972783 0.130655 -0.118993
C187  C     C_R   0.027240 0.529039 0.130654 -0.119016
C188  C     C_R   0.470965 0.027233 0.130654 -0.119784
C189  C     C_R   0.972761 0.529011 0.869347 -0.119054
C190  C     C_R   0.529057 0.027240 0.869350 -0.118814
C191  C     C_R   0.027240 0.470974 0.869347 -0.118877
C192  C     C_R   0.470954 0.972799 0.869341 -0.120372
C193  C     C_R   0.472773 0.970967 0.630656 -0.120117
C194  C     C_R   0.029036 0.472768 0.630655 -0.120051
C195  C     C_R   0.527242 0.029052 0.630655 -0.120010
C196  C     C_R   0.970967 0.527224 0.630658 -0.120074
C197  C     C_R   0.472763 0.029026 0.369345 -0.120082
C198  C     C_R   0.029047 0.527233 0.369345 -0.120067
C199  C     C_R   0.527228 0.970966 0.369343 -0.120030
C200  C     C_R   0.970951 0.472775 0.369342 -0.120030
C201  C     C_R   0.972367 0.470846 0.101059 -0.074111
C202  C     C_R   0.529160 0.972390 0.101062 -0.074381
C203  C     C_R   0.027631 0.529165 0.101061 -0.073933
C204  C     C_R   0.470840 0.027623 0.101061 -0.074163
C205  C     C_R   0.972368 0.529140 0.898940 -0.074039
C206  C     C_R   0.529180 0.027626 0.898943 -0.074491
C207  C     C_R   0.027631 0.470849 0.898940 -0.074091
C208  C     C_R   0.470822 0.972403 0.898934 -0.071657
C209  C     C_R   0.472389 0.970818 0.601063 -0.073437
C210  C     C_R   0.029181 0.472388 0.601061 -0.073469
C211  C     C_R   0.527620 0.029195 0.601061 -0.073496
C212  C     C_R   0.970822 0.527607 0.601064 -0.073459
C213  C     C_R   0.472382 0.029171 0.398939 -0.073452
C214  C     C_R   0.029192 0.527613 0.398939 -0.073458
C215  C     C_R   0.527610 0.970821 0.398937 -0.073480
C216  C     C_R   0.970805 0.472392 0.398935 -0.073481
C217  C     C_R   0.999999 0.500004 0.085855 -0.121829
C218  C     C_R   0.500000 0.000005 0.085856 -0.122485
C219  C     C_R   1.000000 0.499996 0.914145 -0.121846
C220  C     C_R   0.500000 0.000011 0.914143 -0.122486
C221  C     C_R   0.500003 0.000005 0.585855 -0.122325
C222  C     C_R   0.000001 0.499998 0.585856 -0.122335
C223  C     C_R   0.499997 0.999997 0.414145 -0.122326
C224  C     C_R   0.999999 0.500002 0.414144 -0.122336
Cu1   Cu    Cu3+1 0.000000 0.544010 0.000000 1.034534
Cu2   Cu    Cu3+1 0.455990 0.000000 0.000000 1.024325
Cu3   Cu    Cu3+1 1.000000 0.455990 0.000000 1.035389
Cu4   Cu    Cu3+1 0.544010 0.000000 0.000000 1.034946
Cu5   Cu    Cu3+1 0.500000 0.044010 0.500000 1.037995
Cu6   Cu    Cu3+1 0.955990 0.500000 0.500000 1.038004
Cu7   Cu    Cu3+1 0.500000 0.955990 0.500000 1.037976
Cu8   Cu    Cu3+1 0.044010 0.500000 0.500000 1.037982
Cu9   Cu    Cu3+1 0.500000 0.500000 0.028170 0.972275
Cu10  Cu    Cu3+1 0.500000 0.500000 0.971830 0.972395
Cu11  Cu    Cu3+1 0.000000 0.000000 0.528170 0.969049
Cu12  Cu    Cu3+1 0.000000 0.000000 0.471830 0.969078
H1    H     H_    0.951642 0.448645 0.142305 0.156014
H2    H     H_    0.551361 0.951680 0.142309 0.156037
H3    H     H_    0.048356 0.551370 0.142308 0.155912
H4    H     H_    0.448634 0.048337 0.142307 0.155890
H5    H     H_    0.951645 0.551330 0.857693 0.155953
H6    H     H_    0.551403 0.048342 0.857700 0.156048
H7    H     H_    0.048356 0.448654 0.857694 0.155999
H8    H     H_    0.448610 0.951700 0.857684 0.155376
H9    H     H_    0.451530 0.948805 0.642346 0.156338
H10   H     H_    0.051192 0.451529 0.642343 0.156375
H11   H     H_    0.548486 0.051217 0.642343 0.156413
H12   H     H_    0.948811 0.548462 0.642349 0.156364
H13   H     H_    0.451521 0.051179 0.357657 0.156363
H14   H     H_    0.051214 0.548473 0.357657 0.156371
H15   H     H_    0.548470 0.948813 0.357653 0.156390
H16   H     H_    0.948784 0.451536 0.357651 0.156398
H17   H     H_    0.138812 0.429639 0.996213 0.207065
H18   H     H_    0.570394 0.138828 0.996217 0.207092
H19   H     H_    0.861188 0.570361 0.996214 0.207062
H20   H     H_    0.429338 0.861412 0.996917 0.163229
H21   H     H_    0.138827 0.570393 0.003784 0.206795
H22   H     H_    0.570254 0.860936 0.003094 0.205101
H23   H     H_    0.861172 0.429608 0.003785 0.207098
H24   H     H_    0.429636 0.138813 0.003780 0.206869
H25   H     H_    0.638812 0.929636 0.496230 0.207527
H26   H     H_    0.070396 0.638828 0.496233 0.207507
H27   H     H_    0.361188 0.070364 0.496232 0.207530
H28   H     H_    0.929604 0.361170 0.496238 0.207508
H29   H     H_    0.638828 0.070395 0.503768 0.207513
H30   H     H_    0.070366 0.361188 0.503769 0.207525
H31   H     H_    0.361172 0.929606 0.503767 0.207510
H32   H     H_    0.929634 0.638813 0.503764 0.207524
H33   H     H_    0.279564 0.499238 0.045562 0.153336
H34   H     H_    0.500825 0.279568 0.045559 0.153206
H35   H     H_    0.720437 0.500768 0.045563 0.153168
H36   H     H_    0.498458 0.720356 0.045625 0.142994
H37   H     H_    0.279565 0.500829 0.954435 0.153265
H38   H     H_    0.501258 0.720472 0.954501 0.141861
H39   H     H_    0.720434 0.499172 0.954437 0.153174
H40   H     H_    0.499236 0.279562 0.954433 0.153160
H41   H     H_    0.779564 0.999240 0.545562 0.152175
H42   H     H_    0.000818 0.779568 0.545559 0.152151
H43   H     H_    0.220437 0.000762 0.545564 0.152138
H44   H     H_    0.999183 0.220436 0.545568 0.152171
H45   H     H_    0.779565 0.000820 0.454435 0.152180
H46   H     H_    0.000757 0.220434 0.454441 0.152173
H47   H     H_    0.220434 0.999178 0.454437 0.152152
H48   H     H_    0.999243 0.779563 0.454433 0.152159
H49   H     H_    0.360165 0.499236 0.045777 0.162586
H50   H     H_    0.500795 0.360167 0.045775 0.162365
H51   H     H_    0.639836 0.500769 0.045778 0.162320
H52   H     H_    0.498764 0.639766 0.045795 0.160523
H53   H     H_    0.360165 0.500799 0.954222 0.162612
H54   H     H_    0.501530 0.639868 0.954251 0.159916
H55   H     H_    0.639834 0.499201 0.954223 0.162307
H56   H     H_    0.499235 0.360162 0.954221 0.162345
H57   H     H_    0.860165 0.999239 0.545777 0.161929
H58   H     H_    0.000789 0.860167 0.545775 0.161910
H59   H     H_    0.139836 0.000764 0.545778 0.161902
H60   H     H_    0.999212 0.139836 0.545780 0.161922
H61   H     H_    0.860165 0.000791 0.454222 0.161934
H62   H     H_    0.000758 0.139835 0.454225 0.161928
H63   H     H_    0.139834 0.999207 0.454223 0.161915
H64   H     H_    0.999241 0.860162 0.454220 0.161915
N1    N     N_R   0.999999 0.500006 0.324108 -0.475175
N2    N     N_R   0.499995 0.999998 0.324109 -0.475175
N3    N     N_R   0.000002 0.499994 0.675892 -0.475177
N4    N     N_R   0.500012 0.000014 0.675891 -0.475173
N5    N     N_R   0.500014 0.000022 0.824010 -0.473005
N6    N     N_R   0.000002 0.499991 0.824011 -0.473071
N7    N     N_R   0.499993 0.000008 0.175990 -0.473016
N8    N     N_R   1.000000 0.500009 0.175989 -0.473076
O1    O     O_R   0.064240 0.537160 0.000020 -0.579290
O2    O     O_R   0.462840 0.064240 0.000020 -0.579216
O3    O     O_R   0.935760 0.462840 0.000020 -0.579046
O4    O     O_R   0.537160 0.935760 0.000020 -0.582115
O5    O     O_R   0.064240 0.462840 0.999980 -0.579040
O6    O     O_R   0.462840 0.935760 0.999980 -0.580242
O7    O     O_R   0.935760 0.537160 0.999980 -0.579133
O8    O     O_R   0.537160 0.064240 0.999980 -0.578635
O9    O     O_R   0.564240 0.037160 0.500020 -0.578872
O10   O     O_R   0.962840 0.564240 0.500020 -0.578864
O11   O     O_R   0.435760 0.962840 0.500020 -0.578879
O12   O     O_R   0.037160 0.435760 0.500020 -0.578865
O13   O     O_R   0.564240 0.962840 0.499980 -0.578867
O14   O     O_R   0.962840 0.435760 0.499980 -0.578874
O15   O     O_R   0.435760 0.037160 0.499980 -0.578866
O16   O     O_R   0.037160 0.564240 0.499980 -0.578880
O17   O     O_R   0.999950 0.537170 0.041080 -0.570413
O18   O     O_R   0.462830 0.999950 0.041080 -0.572396
O19   O     O_R   0.000050 0.462830 0.041080 -0.570281
O20   O     O_R   0.537170 0.000050 0.041080 -0.569427
O21   O     O_R   0.999950 0.462830 0.958920 -0.570258
O22   O     O_R   0.462830 0.000050 0.958920 -0.571037
O23   O     O_R   0.000050 0.537170 0.958920 -0.570485
O24   O     O_R   0.537170 0.999950 0.958920 -0.569964
O25   O     O_R   0.499950 0.037170 0.541080 -0.569455
O26   O     O_R   0.962830 0.499950 0.541080 -0.569445
O27   O     O_R   0.500050 0.962830 0.541080 -0.569443
O28   O     O_R   0.037170 0.500050 0.541080 -0.569458
O29   O     O_R   0.499950 0.962830 0.458920 -0.569457
O30   O     O_R   0.962830 0.500050 0.458920 -0.569450
O31   O     O_R   0.500050 0.037170 0.458920 -0.569440
O32   O     O_R   0.037170 0.499950 0.458920 -0.569449
O33   O     O_R   0.499970 0.435720 0.023800 -0.586462
O34   O     O_R   0.564280 0.499970 0.023800 -0.586721
O35   O     O_R   0.500030 0.564280 0.023800 -0.585882
O36   O     O_R   0.435720 0.500030 0.023800 -0.585606
O37   O     O_R   0.499970 0.564280 0.976200 -0.585553
O38   O     O_R   0.564280 0.500030 0.976200 -0.586810
O39   O     O_R   0.500030 0.435720 0.976200 -0.586480
O40   O     O_R   0.435720 0.499970 0.976200 -0.585531
O41   O     O_R   0.999970 0.935720 0.523800 -0.586324
O42   O     O_R   0.064280 0.999970 0.523800 -0.586329
O43   O     O_R   0.000030 0.064280 0.523800 -0.586318
O44   O     O_R   0.935720 0.000030 0.523800 -0.586318
O45   O     O_R   0.999970 0.064280 0.476200 -0.586312
O46   O     O_R   0.064280 0.000030 0.476200 -0.586322
O47   O     O_R   0.000030 0.935720 0.476200 -0.586318
O48   O     O_R   0.935720 0.999970 0.476200 -0.586313
O49   O     O_2   0.063834 0.457660 0.325170 -0.488787
O50   O     O_2   0.542343 0.063853 0.325177 -0.488771
O51   O     O_2   0.936164 0.542351 0.325173 -0.488803
O52   O     O_2   0.457648 0.936141 0.325169 -0.488839
O53   O     O_2   0.063843 0.542365 0.674830 -0.488832
O54   O     O_2   0.542324 0.936158 0.674826 -0.488776
O55   O     O_2   0.936162 0.457622 0.674825 -0.488779
O56   O     O_2   0.457700 0.063871 0.674829 -0.488845
O57   O     O_2   0.525786 0.927839 0.825077 -0.495663
O58   O     O_2   0.072174 0.525837 0.825082 -0.495475
O59   O     O_2   0.474243 0.072206 0.825080 -0.495520
O60   O     O_2   0.927830 0.474144 0.825078 -0.495340
O61   O     O_2   0.525808 0.072189 0.174926 -0.495243
O62   O     O_2   0.072169 0.474195 0.174920 -0.495344
O63   O     O_2   0.474177 0.927826 0.174916 -0.496260
O64   O     O_2   0.927830 0.525823 0.174921 -0.495389
C225  C     C_2   0.884569 0.545253 0.279441 0.463585
H65   H     H_    0.869007 0.576763 0.275390 0.058781
O65   O     O_2   0.866174 0.518817 0.294895 -0.476861
C226  C     C_2   0.454744 0.884550 0.279432 0.463569
H66   H     H_    0.423232 0.868972 0.275379 0.058676
O66   O     O_2   0.481180 0.866167 0.294886 -0.476891
C227  C     C_2   0.115431 0.454764 0.279439 0.463560
H67   H     H_    0.130995 0.423255 0.275384 0.058816
O67   O     O_2   0.133825 0.481199 0.294896 -0.476912
C228  C     C_2   0.545240 0.115453 0.279448 0.463552
H68   H     H_    0.576751 0.131033 0.275397 0.058851
O68   O     O_2   0.518805 0.133832 0.294906 -0.476907
C229  C     C_2   0.884568 0.454695 0.720557 0.463564
H69   H     H_    0.869003 0.423177 0.724607 0.058828
O69   O     O_2   0.866174 0.481123 0.705103 -0.476890
C230  C     C_2   0.454839 0.115474 0.720561 0.463578
H70   H     H_    0.423339 0.131057 0.724615 0.058718
O70   O     O_2   0.481285 0.133849 0.705104 -0.476863
C231  C     C_2   0.115439 0.545285 0.720564 0.463543
H71   H     H_    0.131005 0.576802 0.724618 0.058679
O71   O     O_2   0.133830 0.518858 0.705107 -0.476904
C232  C     C_2   0.545198 0.884565 0.720558 0.463428
H72   H     H_    0.576700 0.868986 0.724610 0.058869
O72   O     O_2   0.518751 0.866184 0.705102 -0.477055
C233  C     C_2   0.437609 0.107261 0.779147 0.463865
H73   H     H_    0.445813 0.141551 0.775504 0.055593
O73   O     O_2   0.406024 0.098230 0.794028 -0.473177
C234  C     C_2   0.892794 0.437469 0.779142 0.464101
H74   H     H_    0.858498 0.445635 0.775498 0.055506
O74   O     O_2   0.901843 0.405895 0.794023 -0.472600
C235  C     C_2   0.562432 0.892787 0.779144 0.463962
H75   H     H_    0.554233 0.858495 0.775499 0.055317
O75   O     O_2   0.594013 0.901822 0.794028 -0.472616
C236  C     C_2   0.107213 0.562509 0.779150 0.463841
H76   H     H_    0.141508 0.554341 0.775507 0.055505
O76   O     O_2   0.098164 0.594083 0.794033 -0.473082
C237  C     C_2   0.437514 0.892773 0.220847 0.463495
H77   H     H_    0.445694 0.858481 0.224489 0.055538
O77   O     O_2   0.405937 0.901811 0.205965 -0.473881
C238  C     C_2   0.892797 0.562482 0.220855 0.464027
H78   H     H_    0.858500 0.554300 0.224499 0.055532
O78   O     O_2   0.901849 0.594059 0.205975 -0.472772
C239  C     C_2   0.562467 0.107240 0.220862 0.464109
H79   H     H_    0.554284 0.141531 0.224508 0.055501
O79   O     O_2   0.594045 0.098206 0.205980 -0.472552
C240  C     C_2   0.107204 0.437538 0.220852 0.464086
H80   H     H_    0.141500 0.445721 0.224496 0.055513
O80   O     O_2   0.098153 0.405960 0.205968 -0.472636
C241  C     C_1   0.942105 0.441552 0.086862 0.286722
N9    N     N_1   0.917831 0.418134 0.075487 -0.239141
C242  C     C_1   0.558456 0.942146 0.086867 0.285876
N10   N     N_1   0.581877 0.917885 0.075493 -0.239714
C243  C     C_1   0.057893 0.558457 0.086865 0.286560
N11   N     N_1   0.082167 0.581873 0.075490 -0.239912
C244  C     C_1   0.441548 0.057869 0.086864 0.285706
N12   N     N_1   0.418132 0.082131 0.075490 -0.240405
C245  C     C_1   0.942108 0.558419 0.913136 0.286527
N13   N     N_1   0.917834 0.581824 0.924511 -0.239448
C246  C     C_1   0.558492 0.057867 0.913144 0.286816
N14   N     N_1   0.581924 0.082125 0.924522 -0.239104
C247  C     C_1   0.057891 0.441573 0.913137 0.286670
N15   N     N_1   0.082165 0.418169 0.924512 -0.239263
C248  C     C_1   0.441502 0.942163 0.913124 0.287317
N16   N     N_1   0.418063 0.917905 0.924493 -0.259151
C249  C     C_1   0.442131 0.941518 0.586870 0.287896
N17   N     N_1   0.417859 0.918094 0.575497 -0.237168
C250  C     C_1   0.058469 0.442138 0.586865 0.287952
N18   N     N_1   0.081883 0.417872 0.575491 -0.237118
C251  C     C_1   0.557876 0.058491 0.586866 0.287964
N19   N     N_1   0.582146 0.081913 0.575492 -0.237096
C252  C     C_1   0.941533 0.557859 0.586872 0.287944
N20   N     N_1   0.918117 0.582125 0.575501 -0.237118
C253  C     C_1   0.442127 0.058455 0.413134 0.287937
N21   N     N_1   0.417858 0.081866 0.424508 -0.237124
C254  C     C_1   0.058496 0.557864 0.413135 0.287945
N22   N     N_1   0.081923 0.582131 0.424509 -0.237125
C255  C     C_1   0.557866 0.941537 0.413130 0.287957
N23   N     N_1   0.582135 0.918126 0.424502 -0.237107
C256  C     C_1   0.941502 0.442140 0.413128 0.287973
N24   N     N_1   0.918074 0.417873 0.424499 -0.237088
C257  C     C_2   0.226354 0.416906 0.995718 0.386580
H81   H     H_    0.262003 0.415540 0.996017 0.092774
O81   O     O_2   0.206111 0.382341 0.993594 -0.512227
C258  C     C_2   0.583152 0.226374 0.995720 0.386937
H82   H     H_    0.584527 0.262022 0.996017 0.093127
O82   O     O_2   0.617712 0.206140 0.993600 -0.511995
C259  C     C_2   0.773647 0.583096 0.995720 0.386415
H83   H     H_    0.737998 0.584462 0.996020 0.092764
O83   O     O_2   0.793890 0.617659 0.993596 -0.512370
C260  C     C_2   0.415016 0.776029 0.996640 0.386246
H84   H     H_    0.385797 0.796334 0.994598 0.079779
O84   O     O_2   0.410297 0.736184 0.997584 -0.515590
C261  C     C_2   0.226374 0.583153 0.004279 0.388148
H85   H     H_    0.262023 0.584528 0.003980 0.097155
O85   O     O_2   0.206140 0.617712 0.006402 -0.513483
C262  C     C_2   0.582695 0.773409 0.003564 0.379464
H86   H     H_    0.583998 0.737759 0.003401 0.079350
O86   O     O_2   0.617361 0.793587 0.005226 -0.506938
C263  C     C_2   0.773625 0.416850 0.004281 0.386936
H87   H     H_    0.737976 0.415475 0.003982 0.093167
O87   O     O_2   0.793859 0.382291 0.006404 -0.512023
C264  C     C_2   0.416902 0.226353 0.004271 0.386410
H88   H     H_    0.415536 0.262001 0.003971 0.093157
O88   O     O_2   0.382337 0.206110 0.006394 -0.512758
C265  C     C_2   0.726353 0.916902 0.495736 0.385897
H89   H     H_    0.762002 0.915536 0.496034 0.093093
O89   O     O_2   0.706110 0.882336 0.493622 -0.511519
C266  C     C_2   0.083155 0.726374 0.495738 0.385856
H90   H     H_    0.084529 0.762022 0.496034 0.093074
O90   O     O_2   0.117716 0.706140 0.493627 -0.511537
C267  C     C_2   0.273647 0.083098 0.495741 0.385868
H91   H     H_    0.237998 0.084464 0.496039 0.093094
O91   O     O_2   0.293890 0.117663 0.493626 -0.511527
C268  C     C_2   0.916845 0.273625 0.495748 0.385921
H92   H     H_    0.915471 0.237976 0.496046 0.093081
O92   O     O_2   0.882284 0.293857 0.493635 -0.511498
C269  C     C_2   0.726376 0.083153 0.504260 0.385926
H93   H     H_    0.762025 0.084527 0.503963 0.093080
O93   O     O_2   0.706142 0.117714 0.506374 -0.511497
C270  C     C_2   0.083100 0.273648 0.504264 0.385886
H94   H     H_    0.084466 0.238000 0.503967 0.093090
O94   O     O_2   0.117667 0.293891 0.506376 -0.511525
C271  C     C_2   0.273625 0.916848 0.504260 0.385842
H95   H     H_    0.237975 0.915473 0.503963 0.093076
O95   O     O_2   0.293858 0.882287 0.506373 -0.511544
C272  C     C_2   0.916900 0.726353 0.504253 0.385885
H96   H     H_    0.915534 0.762001 0.503953 0.093095
O96   O     O_2   0.882333 0.706111 0.506367 -0.511521

loop_
_geom_bond_atom_site_label_1
_geom_bond_atom_site_label_2
_ccdc_geom_bond_type
C259  H83   S    
C124  C220  S    
C89   H49   S    
Cu9   O35   S    
C37   C69   A    
C243  N11   T    
C94   H54   S    
C91   H51   S    
C271  H95   S    
C133  C151  A    
C244  N12   T    
C266  H90   S    
C42   C58   A    
C21   C110  S    
C5    O9    A    
C249  N17   T    
C31   C67   A    
C23   C112  S    
Cu6   O26   S    
C45   C57   A    
Cu12  O46   S    
C21   O41   A    
C81   H41   S    
C132  O52   S    
C235  O75   D    
C20   C105  S    
C83   H43   S    
C233  O73   D    
C15   C197  A    
C260  O84   D    
Cu7   O11   S    
C42   H18   S    
C74   C114  A    
C81   C117  A    
C80   H40   S    
C186  C202  A    
C201  C241  S    
C38   C270  S    
C83   C119  A    
C122  O20   A    
C190  C206  A    
C176  C179  A    
C124  O22   A    
C29   C261  S    
C179  C235  S    
C33   C69   A    
C19   C108  S    
Cu10  O39   S    
C14   C194  A    
C35   C71   A    
C11   N6    S    
C85   H45   S    
C196  H12   S    
C82   C98   A    
C128  C224  S    
C77   C113  A    
C127  O31   A    
C38   C72   A    
C12   C192  A    
C130  O50   S    
C7    O15   A    
C203  C243  S    
C84   C100  A    
C77   H37   S    
C136  C150  A    
C25   C41   A    
C44   H20   S    
C205  C245  S    
C15   N2    S    
C175  C231  S    
C195  H11   S    
C28   C44   A    
C142  N8    A    
C126  O28   A    
C216  C224  A    
C8    O14   A    
C188  H4    S    
C143  N7    A    
C173  C229  S    
C197  H13   S    
C7    O11   A    
Cu7   O29   S    
C136  N4    A    
C272  H96   S    
C55   H31   S    
C85   C117  A    
C174  C177  A    
Cu5   O25   S    
C68   C116  S    
C87   C103  A    
C189  H5    S    
C236  O76   D    
C75   C115  A    
C82   C118  A    
C198  C214  A    
C16   C198  A    
Cu1   O7    S    
C48   H24   S    
C46   C60   A    
C142  O62   S    
C65   C113  S    
C121  O19   A    
C96   H56   S    
C18   O38   A    
C73   C89   A    
Cu3   O3    S    
C71   C119  S    
C148  C162  A    
C74   C90   A    
C134  O54   S    
C132  C146  A    
C265  O89   D    
C135  C149  A    
C122  O18   A    
C104  C110  A    
C156  C180  A    
C264  H88   S    
C145  C161  A    
C78   C94   A    
C53   H29   S    
C34   C266  S    
C160  C168  A    
C182  C238  S    
C253  N21   T    
C143  O63   S    
C169  C182  A    
C129  C147  A    
C232  H72   S    
C47   C59   A    
C196  C212  A    
C129  O49   S    
C140  O60   S    
Cu10  O37   S    
C194  H10   S    
C39   C71   A    
C237  H77   S    
C33   C49   A    
C127  O29   A    
C200  H16   S    
C229  O69   D    
C177  C233  S    
C46   H22   S    
C140  N6    A    
C241  N9    T    
C210  C222  A    
C79   C115  A    
Cu3   O5    S    
C74   H34   S    
C212  C222  A    
C245  N13   T    
C76   C116  A    
C259  O83   D    
C138  C156  A    
C40   C70   A    
C126  O26   A    
C199  C215  A    
C238  H78   S    
C28   C68   A    
C124  O24   A    
Cu5   O9    S    
C263  O87   D    
C211  C221  A    
C41   H17   S    
C97   C109  A    
C137  C155  A    
Cu11  O44   S    
C152  C164  A    
C53   C61   A    
C141  C159  A    
C185  H1    S    
C267  H91   S    
C159  C167  A    
C230  H70   S    
C55   C63   A    
C90   H50   S    
C204  C244  S    
C10   C188  A    
C239  O79   D    
C95   H55   S    
Cu9   Cu10  S    
C36   C52   A    
C43   C59   A    
C37   C53   A    
C6    O10   A    
C72   C120  S    
C82   H42   S    
C88   H48   S    
C88   C104  A    
C226  O66   D    
C240  O80   D    
C153  C177  A    
C100  C112  A    
C25   C257  S    
C26   C66   A    
Cu1   O17   S    
C36   C268  S    
C189  C205  A    
Cu7   O13   S    
C51   H27   S    
C261  O85   D    
C188  C204  A    
C204  C218  A    
C3    O7    A    
C87   C119  A    
C1    C57   S    
C194  C210  A    
C28   C260  S    
C246  N14   T    
C104  H64   S    
C99   C111  A    
C4    C60   S    
C86   H46   S    
C5    C61   S    
C191  C207  A    
C269  O93   D    
C7    C63   S    
C8    C64   S    
C29   C65   A    
C258  O82   D    
C137  O57   S    
C19   O35   A    
C268  H92   S    
C24   O44   A    
C30   C262  S    
C17   O33   A    
Cu12  O45   S    
Cu8   O32   S    
C88   C118  A    
C86   C102  A    
C137  N5    A    
C26   C42   A    
C231  O71   D    
C123  C219  S    
C205  C219  A    
C79   H39   S    
Cu9   O34   S    
C153  C165  A    
C121  C217  S    
C30   C46   A    
C78   C116  A    
C262  O86   D    
C234  H74   S    
C266  O90   D    
C102  H62   S    
C175  C180  A    
C125  C221  S    
C150  C164  A    
C151  C163  A    
C23   O43   A    
Cu11  O42   S    
C202  C218  A    
C6    O16   A    
C19   O37   A    
C17   C106  S    
Cu3   O21   S    
C172  C183  A    
C9    N8    S    
C54   C64   A    
C173  C178  A    
C70   C118  S    
C21   O47   A    
C10   N7    S    
C84   H44   S    
Cu1   Cu3   S    
C131  C145  A    
C11   C191  A    
C174  C230  S    
C56   H32   S    
C135  O55   S    
C27   C67   A    
C213  C253  S    
C256  N24   T    
C138  N6    A    
C171  C227  S    
C262  H86   S    
C5    O13   A    
C255  N23   T    
C89   C105  A    
C78   H38   S    
C129  N1    A    
C13   C193  A    
C139  O59   S    
C36   C72   A    
Cu2   O2    S    
Cu10  O40   S    
C207  C247  S    
C228  H68   S    
C98   C110  A    
C209  C221  A    
C102  C112  A    
C100  H60   S    
C157  C167  A    
C158  C168  A    
C227  H67   S    
C103  H63   S    
C146  C162  A    
C170  C226  S    
C97   H57   S    
C164  C165  A    
C23   O45   A    
C138  O58   S    
C99   H59   S    
C225  O65   D    
C139  C153  A    
C101  C109  A    
C208  C248  S    
C187  C203  A    
C73   C113  A    
C270  H94   S    
C215  C255  S    
C103  C111  A    
C185  C201  A    
C257  O81   D    
C14   C196  A    
C169  C225  S    
C24   O48   A    
C210  C250  S    
C39   C55   A    
C47   H23   S    
C40   C56   A    
C16   N1    S    
C13   N4    S    
C272  O96   D    
Cu11  Cu12  S    
C14   N3    S    
Cu12  O47   S    
C34   C70   A    
C92   H52   S    
Cu7   O27   S    
Cu2   O6    S    
Cu9   O36   S    
C83   C99   A    
C130  N2    A    
C133  N3    A    
C172  C228  S    
C157  C181  A    
Cu1   O23   S    
C155  C179  A    
Cu6   O10   S    
C181  C237  S    
C52   H28   S    
C145  C169  A    
C151  C175  A    
C35   C267  S    
C254  N22   T    
C171  C184  A    
C163  C166  A    
C51   C63   A    
C90   C106  A    
C147  C161  A    
Cu3   O19   S    
C203  C217  A    
C260  H84   S    
C206  C220  A    
C40   C272  S    
C215  C223  A    
C11   C189  A    
C237  O77   D    
C263  H87   S    
C79   C95   A    
C265  H89   S    
C10   C186  A    
C91   C107  A    
C198  H14   S    
C264  O88   D    
C38   C54   A    
C123  O23   A    
C84   C120  A    
C134  C152  A    
C12   N5    S    
Cu8   O16   S    
C232  O72   D    
C268  O92   D    
C20   O40   A    
C95   C107  A    
C27   C259  S    
Cu4   O20   S    
Cu10  O38   S    
C190  H6    S    
C154  C178  A    
C52   C64   A    
C197  C213  A    
C32   C66   A    
C229  H69   S    
C50   H26   S    
C27   C43   A    
C1    O1    A    
C211  C251  S    
C212  C252  S    
C49   H25   S    
C66   C114  S    
Cu4   O8    S    
C3    O3    A    
C24   C109  S    
Cu8   O12   S    
C135  N3    A    
C187  H3    S    
C2    C58   S    
C48   C58   A    
C26   C258  S    
C93   H53   S    
C191  H7    S    
C6    C62   S    
C238  O78   D    
C41   C57   A    
Cu5   Cu7   S    
C4    O4    A    
C132  N2    A    
C213  C223  A    
C49   C61   A    
C121  O17   A    
C32   C48   A    
C75   H35   S    
C44   C60   A    
Cu6   O14   S    
C77   C93   A    
Cu11  O43   S    
C192  H8    S    
Cu8   O28   S    
C87   H47   S    
Cu2   O18   S    
C184  C240  S    
C230  O70   D    
C13   C195  A    
C29   C45   A    
C193  H9    S    
C236  H76   S    
C154  C166  A    
C128  O30   A    
C233  H73   S    
C30   C68   A    
C144  N8    A    
C208  C220  A    
C20   O36   A    
C1    O5    A    
Cu4   O24   S    
C235  H75   S    
C131  N1    A    
C250  N18   T    
C183  C239  S    
C231  H71   S    
Cu5   O31   S    
C101  H61   S    
C216  C256  S    
C94   C108  A    
C54   H30   S    
C81   C97   A    
C8    O12   A    
C125  O25   A    
C202  C242  S    
C178  C234  S    
C9    C185  A    
C45   H21   S    
C227  O67   D    
C123  O21   A    
C67   C115  S    
C18   C107  S    
C200  C216  A    
C186  H2    S    
Cu2   O22   S    
C141  O61   S    
C17   O39   A    
C37   C269  S    
C149  C163  A    
C156  C166  A    
C80   C96   A    
C92   C108  A    
C269  H93   S    
C149  C173  A    
C127  C223  S    
C93   C105  A    
C133  O53   S    
C192  C208  A    
C98   H58   S    
C134  N4    A    
C147  C171  A    
C143  C157  A    
C206  C246  S    
C155  C165  A    
C34   C50   A    
Cu9   O33   S    
C130  C148  A    
C25   C65   A    
C234  O74   D    
C4    O6    A    
C242  N10   T    
C258  H82   S    
C141  N7    A    
C32   C264  S    
C162  C167  A    
Cu11  O41   S    
C33   C265  S    
Cu6   Cu8   S    
C195  C211  A    
C22   O46   A    
C15   C199  A    
C193  C209  A    
C239  H79   S    
C176  C232  S    
C39   C271  S    
C261  H85   S    
C76   H36   S    
C271  O95   D    
C128  O32   A    
C158  C182  A    
C18   O34   A    
C214  C224  A    
C76   C92   A    
C136  O56   S    
C199  H15   S    
C150  C174  A    
C80   C114  A    
C22   C111  S    
Cu2   Cu4   S    
C146  C170  A    
C170  C181  A    
C50   C62   A    
C2    O8    A    
C31   C263  S    
C144  C158  A    
C144  O64   S    
C85   C101  A    
C226  H66   S    
C180  C236  S    
C240  H80   S    
C43   H19   S    
C96   C106  A    
C228  O68   D    
C122  C218  S    
C267  O91   D    
C125  O27   A    
Cu6   O30   S    
C142  C160  A    
C9    C187  A    
C16   C200  A    
C86   C120  A    
C126  C222  S    
Cu1   O1    S    
C31   C47   A    
C139  N5    A    
C75   C91   A    
C12   C190  A    
C207  C219  A    
C209  C249  S    
C201  C217  A    
C252  N20   T    
C73   H33   S    
C225  H65   S    
C35   C51   A    
C22   O42   A    
C251  N19   T    
C214  C254  S    
C69   C117  S    
C148  C172  A    
C270  O94   D    
C56   C62   A    
C257  H81   S    
Cu4   O4    S    
C161  C168  A    
C248  N16   T    
C152  C176  A    
C247  N15   T    
C2    O2    A    
C131  O51   S    
Cu12  O48   S    
C159  C183  A    
C160  C184  A    
Cu5   O15   S    
C140  C154  A    
C3    C59   S    
