data_mof_unit_39512.cif
_audit_creation_date              2012-12-11T15:36:33-0500
_audit_creation_method            fapswitch 2.2
_symmetry_space_group_name_H-M    P1
_symmetry_Int_Tables_number       1
_space_group_crystal_system       triclinic
_cell_length_a                    15.017276
_cell_length_b                    15.049829
_cell_length_c                    34.801673
_cell_angle_alpha                 91.146707
_cell_angle_beta                  91.443827
_cell_angle_gamma                 60.231807
_cell_volume                      6825.10055487

loop_
_atom_site_label
_atom_site_type_symbol
_atom_type_description
_atom_site_fract_x
_atom_site_fract_y
_atom_site_fract_z
_atom_type_partial_charge
C1    C     C_R   0.610382 0.304800 0.443202 0.549840
C2    C     C_R   0.730243 0.687730 0.182398 0.022216
C3    C     C_R   0.609618 0.162048 0.831609 -0.019928
C4    C     C_R   0.698865 0.154379 0.848204 -0.136989
C5    C     C_R   0.730066 0.115933 0.884933 -0.164316
C6    C     C_R   0.601347 0.265478 0.775323 -0.118075
C7    C     C_R   0.604076 0.275161 0.735780 -0.115858
C8    C     C_R   0.593846 0.206580 0.710615 0.020408
C9    C     C_R   0.573024 0.132960 0.725590 -0.110417
C10   C     C_R   0.570021 0.123428 0.765342 -0.106412
C11   C     C_R   0.587863 0.187384 0.790481 0.024307
C12   C     C_R   0.538221 0.208256 0.642177 -0.121716
C13   C     C_R   0.820251 0.624112 0.162609 -0.120881
C14   C     C_R   0.543102 0.228228 0.603548 -0.122620
C15   C     C_R   0.693259 0.244605 0.617539 -0.124484
C16   C     C_R   0.687947 0.225235 0.656156 -0.116971
C17   C     C_R   0.607852 0.211228 0.669033 0.029545
C18   C     C_R   0.618043 0.250964 0.591194 0.021215
C19   C     C_R   0.045473 0.739303 0.048659 0.533343
C20   C     C_R   0.747071 0.745876 0.064019 0.540256
C21   C     C_R   0.750156 0.041396 0.050463 0.543578
C22   C     C_R   0.018120 0.722443 0.939845 0.551534
C23   C     C_R   0.717353 0.729307 0.955121 0.536480
C24   C     C_R   0.825372 0.634860 0.123122 -0.019141
C25   C     C_R   0.721120 0.025468 0.942079 0.556497
C26   C     C_R   0.763645 0.588638 0.241829 -0.149651
C27   C     C_R   0.759407 0.581036 0.281413 -0.016609
C28   C     C_R   0.725819 0.669133 0.305006 -0.008240
C29   C     C_R   0.700613 0.763793 0.288136 -0.014843
C30   C     C_R   0.700023 0.771549 0.247880 -0.009401
C31   C     C_R   0.730317 0.683424 0.224677 -0.016060
C32   C     C_R   0.597906 0.728324 0.356548 -0.103290
C33   C     C_R   0.593508 0.610551 0.449602 0.547894
C34   C     C_R   0.565279 0.714140 0.391614 -0.116703
C35   C     C_R   0.737485 0.576966 0.406216 -0.112553
C36   C     C_R   0.770674 0.592971 0.371218 -0.089262
C37   C     C_R   0.699791 0.665927 0.345481 0.040812
C38   C     C_R   0.633745 0.635661 0.416064 0.022935
C39   C     C_R   0.104442 0.729159 0.084601 0.015202
C40   C     C_R   0.149102 0.636880 0.105089 -0.119867
C41   C     C_R   0.179153 0.634350 0.143503 -0.117834
C42   C     C_R   0.166402 0.723526 0.161820 0.031001
C43   C     C_R   0.130448 0.813534 0.140709 -0.103651
C44   C     C_R   0.305706 0.590269 0.441797 0.561445
C45   C     C_R   0.099906 0.816347 0.102243 -0.124716
C46   C     C_R   0.262354 0.718675 0.222120 -0.111343
C47   C     C_R   0.273332 0.710872 0.262258 0.283435
C48   C     C_R   0.196257 0.709254 0.284143 0.028596
C49   C     C_R   0.104709 0.725118 0.265849 -0.067875
C50   C     C_R   0.095895 0.730729 0.225850 -0.123721
C51   C     C_R   0.175005 0.725879 0.203891 -0.034102
C52   C     C_R   0.257935 0.575733 0.335108 0.303933
C53   C     C_R   0.274189 0.548283 0.374103 0.275852
C54   C     C_R   0.217548 0.725291 0.392041 -0.192480
C55   C     C_R   0.605217 0.300577 0.553796 0.539738
C56   C     C_R   0.193496 0.753729 0.353600 -0.174289
C57   C     C_R   0.216281 0.679309 0.324937 0.031387
C58   C     C_R   0.260047 0.622448 0.402747 -0.024533
C59   C     C_R   0.718100 0.103497 0.085965 0.021528
C60   C     C_R   0.788729 0.119023 0.108073 -0.119599
C61   C     C_R   0.767607 0.151192 0.146312 -0.127229
C62   C     C_R   0.676156 0.167438 0.162742 0.042882
C63   C     C_R   0.601180 0.162761 0.139583 -0.075592
C64   C     C_R   0.621785 0.131441 0.101370 -0.127571
C65   C     C_R   0.582683 0.260902 0.222272 0.261560
C66   C     C_R   0.587030 0.606290 0.559247 0.545571
C67   C     C_R   0.571339 0.263460 0.262145 -0.085261
C68   C     C_R   0.641940 0.181961 0.284878 0.004863
C69   C     C_R   0.720591 0.094587 0.267539 -0.088488
C70   C     C_R   0.733719 0.090804 0.227933 -0.023227
C71   C     C_R   0.665109 0.174345 0.204880 0.012983
C72   C     C_R   0.721544 0.211482 0.343287 0.260040
C73   C     C_R   0.714381 0.243341 0.381914 -0.014924
C74   C     C_R   0.560378 0.229592 0.388060 -0.118502
C75   C     C_R   0.565455 0.202253 0.349315 -0.127046
C76   C     C_R   0.644191 0.195589 0.326724 0.032823
C77   C     C_R   0.297357 0.589192 0.551597 0.544011
C78   C     C_R   0.631764 0.254243 0.404680 -0.037433
C79   C     C_R   0.694526 0.686439 0.920143 0.005011
C80   C     C_R   0.776801 0.609786 0.899253 -0.136433
C81   C     C_R   0.762863 0.588735 0.861087 0.007679
C82   C     C_R   0.665260 0.643789 0.843543 0.054365
C83   C     C_R   0.580976 0.711880 0.865531 -0.149800
C84   C     C_R   0.595358 0.732035 0.903873 -0.154490
C85   C     C_R   0.633792 0.570895 0.782774 0.280921
C86   C     C_R   0.635071 0.564882 0.742559 -0.106104
C87   C     C_R   0.654393 0.631378 0.721008 0.003571
C88   C     C_R   0.739180 0.713013 0.103051 0.005366
C89   C     C_R   0.673419 0.703996 0.740016 0.018152
C90   C     C_R   0.673623 0.708716 0.780095 -0.177688
C91   C     C_R   0.654434 0.642369 0.801499 0.013874
C92   C     C_R   0.719995 0.547838 0.656589 -0.043593
C93   C     C_R   0.704544 0.544202 0.616862 -0.149261
C94   C     C_R   0.545233 0.705614 0.620603 -0.106354
C95   C     C_R   0.558577 0.708817 0.660332 0.265821
C96   C     C_R   0.645802 0.629547 0.678635 0.019552
C97   C     C_R   0.615821 0.621590 0.598718 -0.038216
C98   C     C_R   0.066265 0.700706 0.901907 0.008617
C99   C     C_R   0.646528 0.769938 0.122732 -0.131741
C100  C     C_R   0.091102 0.770469 0.885142 0.258536
C101  C     C_R   0.103622 0.767746 0.845158 -0.006151
C102  C     C_R   0.104986 0.687518 0.823102 -0.035093
C103  C     C_R   0.094587 0.610832 0.841080 -0.149962
C104  C     C_R   0.073536 0.618257 0.880009 -0.181775
C105  C     C_R   0.197818 0.595936 0.764560 -0.128465
C106  C     C_R   0.210027 0.590842 0.725073 -0.097827
C107  C     C_R   0.139605 0.671214 0.701782 0.060960
C108  C     C_R   0.057263 0.757544 0.718267 -0.104794
C109  C     C_R   0.045117 0.762792 0.757968 -0.089436
C110  C     C_R   0.641834 0.756549 0.161936 -0.110674
C111  C     C_R   0.116152 0.682369 0.781254 0.032139
C112  C     C_R   0.183129 0.731340 0.643529 -0.181416
C113  C     C_R   0.223390 0.711084 0.606732 -0.151412
C114  C     C_R   0.197744 0.564249 0.601780 -0.116466
C115  C     C_R   0.161256 0.581585 0.639343 0.278179
C116  C     C_R   0.156096 0.664548 0.660404 0.044648
C117  C     C_R   0.234929 0.624832 0.586276 -0.019335
C118  C     C_R   0.673351 0.083248 0.906257 0.030642
C119  C     C_R   0.579222 0.097090 0.890849 0.263188
C120  C     C_R   0.548054 0.136948 0.853415 -0.110839
Cr1   Cr    Cr6+3 0.426010 0.422500 0.497000 1.015767
Cr2   Cr    Cr6+3 0.651300 0.426310 0.501970 1.037312
Cr3   Cr    Cr6+3 0.422670 0.651170 0.501050 1.014929
Cr4   Cr    Cr6+3 0.905130 0.911420 0.992650 1.045510
Cr5   Cr    Cr6+3 0.911860 0.682710 0.002320 1.041427
Cr6   Cr    Cr6+3 0.682710 0.906840 0.004710 1.038078
H1    H     H_    0.578424 0.828284 0.108193 0.133354
H2    H     H_    0.484830 0.760639 0.398415 0.128892
H3    H     H_    0.887917 0.568506 0.178314 0.109912
H4    H     H_    0.791861 0.516749 0.424896 0.138824
H5    H     H_    0.154354 0.568321 0.092286 0.154428
H6    H     H_    0.065511 0.888735 0.087343 0.126403
H7    H     H_    0.161276 0.833356 0.346024 0.112100
H8    H     H_    0.323260 0.715433 0.205129 0.110078
H9    H     H_    0.206693 0.564363 0.159614 0.124430
H10   H     H_    0.028529 0.735798 0.211596 0.164650
H11   H     H_    0.119501 0.883139 0.154687 0.113958
H12   H     H_    0.205533 0.783449 0.413362 0.136360
H13   H     H_    0.863280 0.098469 0.096920 0.126265
H14   H     H_    0.565235 0.121574 0.084789 0.126417
H15   H     H_    0.506062 0.189544 0.336605 0.127791
H16   H     H_    0.510049 0.331187 0.275547 0.161708
H17   H     H_    0.850075 0.544884 0.363298 0.120599
H18   H     H_    0.825642 0.155978 0.163915 0.104857
H19   H     H_    0.773523 0.030432 0.285071 0.132260
H20   H     H_    0.530030 0.175700 0.151812 0.145878
H21   H     H_    0.497228 0.236591 0.404612 0.145536
H22   H     H_    0.853871 0.571874 0.911502 0.134130
H23   H     H_    0.530176 0.787432 0.920036 0.110776
H24   H     H_    0.619251 0.509649 0.728105 0.104979
H25   H     H_    0.690251 0.763184 0.794830 0.116911
H26   H     H_    0.759608 0.478646 0.600424 0.140001
H27   H     H_    0.505250 0.753595 0.852388 0.098967
H28   H     H_    0.475685 0.765838 0.607479 0.144330
H29   H     H_    0.788312 0.520800 0.223959 0.110832
H30   H     H_    0.057093 0.562613 0.892397 0.147338
H31   H     H_    0.275469 0.524878 0.712720 0.102120
H32   H     H_    0.252789 0.533131 0.782099 0.098892
H33   H     H_    0.002768 0.820114 0.700458 0.124317
H34   H     H_    0.980579 0.829276 0.770553 0.129118
H35   H     H_    0.179866 0.794840 0.659891 0.107646
H36   H     H_    0.250848 0.759334 0.595290 0.136481
H37   H     H_    0.096456 0.548353 0.824406 0.147947
H38   H     H_    0.570261 0.803078 0.176653 0.112294
H39   H     H_    0.202164 0.500059 0.585584 0.126376
H40   H     H_    0.801931 0.107637 0.895888 0.162625
H41   H     H_    0.744114 0.225330 0.676285 0.124131
H42   H     H_    0.617137 0.334557 0.724860 0.111355
H43   H     H_    0.614721 0.315907 0.794139 0.146049
H44   H     H_    0.476712 0.147328 0.841082 0.104375
H45   H     H_    0.564199 0.079703 0.706683 0.133938
H46   H     H_    0.560532 0.061926 0.776413 0.109005
H47   H     H_    0.476387 0.196742 0.651340 0.100040
H48   H     H_    0.484229 0.232278 0.583843 0.121290
H49   H     H_    0.747929 0.173013 0.831956 0.142483
H50   H     H_    0.751883 0.261762 0.608948 0.134384
H51   H     H_    0.542111 0.784642 0.337133 0.103623
O1    O     O_R   0.324990 0.503440 0.453910 -0.483438
O2    O     O_R   0.639980 0.519500 0.542640 -0.500113
O3    O     O_R   0.500750 0.673190 0.545480 -0.520177
O4    O     O_R   0.336260 0.640450 0.538210 -0.500635
O5    O     O_3   0.499990 0.499990 0.500010 -0.241203
O6    O     O_R   0.834210 0.019400 0.034570 -0.520507
O7    O     O_R   0.002210 0.824620 0.031030 -0.509996
O8    O     O_R   0.024400 0.669340 0.039790 -0.495206
O9    O     O_R   0.830490 0.694950 0.045870 -0.481014
O10   O     O_R   0.675430 0.831160 0.051290 -0.518942
O11   O     O_R   0.698870 0.998880 0.039560 -0.499258
O12   O     O_R   0.522030 0.339050 0.458320 -0.489951
O13   O     O_R   0.811290 0.006780 0.950620 -0.516414
O14   O     O_R   0.980960 0.812920 0.953200 -0.442948
O15   O     O_R   0.001480 0.656720 0.955830 -0.532286
O16   O     O_R   0.809240 0.683250 0.968050 -0.503004
O17   O     O_R   0.652500 0.818540 0.967340 -0.522245
O18   O     O_R   0.677620 0.987170 0.961730 -0.454258
O19   O     O_3   0.833240 0.833660 0.999890 -0.251455
O20   O     O_R   0.676180 0.324490 0.458320 -0.499589
O21   O     O_R   0.643570 0.521510 0.464260 -0.491080
O22   O     O_R   0.504630 0.675350 0.460920 -0.517953
O23   O     O_R   0.339850 0.642450 0.459830 -0.502726
O24   O     O_R   0.321120 0.501280 0.538470 -0.527910
O25   O     O_R   0.518440 0.337050 0.536710 -0.506035
O26   O     O_R   0.672300 0.322330 0.542880 -0.517147
O27   O     O_3   0.362831 0.697563 0.279735 -0.563007
C121  C     C_3   0.350886 0.794216 0.290411 0.009854
H52   H     H_    0.379632 0.788760 0.320468 0.150243
H53   H     H_    0.269628 0.857936 0.290324 0.110973
C122  C     C_3   0.414616 0.821054 0.264320 -0.276556
H54   H     H_    0.497301 0.764659 0.268568 0.166699
H55   H     H_    0.393500 0.817384 0.233758 0.155789
C123  C     C_3   0.397126 0.928360 0.272929 -0.481501
H56   H     H_    0.315656 0.986434 0.267139 0.144520
H57   H     H_    0.446370 0.944165 0.254225 0.165580
H58   H     H_    0.416807 0.935126 0.303402 0.148379
C124  C     C_1   0.021270 0.730224 0.287400 0.161806
N1    N     N_1   0.954414 0.734321 0.304641 -0.311110
C125  C     C_1   0.921340 0.566400 0.104890 0.213309
N2    N     N_1   0.998297 0.511036 0.090432 -0.304289
O28   O     O_3   0.299242 0.498781 0.307468 -0.545018
C126  C     C_3   0.222526 0.482304 0.290036 0.013928
H59   H     H_    0.203660 0.517708 0.261145 0.153240
H60   H     H_    0.150132 0.515093 0.306613 0.114117
C127  C     C_3   0.265162 0.367210 0.284677 -0.255086
H61   H     H_    0.331900 0.335826 0.265251 0.183905
H62   H     H_    0.292050 0.328475 0.312840 0.176134
C128  C     C_3   0.184174 0.344131 0.267583 -0.484763
H63   H     H_    0.118061 0.372129 0.287158 0.149959
H64   H     H_    0.217932 0.260159 0.263663 0.148268
H65   H     H_    0.156757 0.381422 0.239175 0.154507
O29   O     O_3   0.314549 0.446319 0.383399 -0.529996
C129  C     C_3   0.232323 0.429891 0.392105 0.022417
H66   H     H_    0.181192 0.444399 0.366568 0.116636
H67   H     H_    0.185678 0.481036 0.416004 0.135894
C130  C     C_3   0.275015 0.318936 0.404340 -0.255158
H68   H     H_    0.324121 0.266674 0.381283 0.154299
H69   H     H_    0.322707 0.304547 0.430910 0.172324
C131  C     C_3   0.188971 0.295856 0.412043 -0.482642
H70   H     H_    0.139425 0.346311 0.435372 0.152048
H71   H     H_    0.222477 0.214942 0.421035 0.149635
H72   H     H_    0.141508 0.307651 0.385595 0.152679
O30   O     O_3   0.509120 0.341101 0.200599 -0.582884
C132  C     C_3   0.547540 0.404872 0.188685 -0.003473
H73   H     H_    0.502691 0.446039 0.162668 0.159317
H74   H     H_    0.629436 0.361609 0.180063 0.125888
C133  C     C_3   0.533381 0.483831 0.219894 -0.251430
H75   H     H_    0.453068 0.522394 0.229974 0.217589
H76   H     H_    0.585443 0.444728 0.244745 0.182185
C134  C     C_3   0.557509 0.563728 0.204634 -0.468905
H77   H     H_    0.636279 0.526056 0.193049 0.145713
H78   H     H_    0.552334 0.616409 0.228275 0.176109
H79   H     H_    0.502018 0.608931 0.181458 0.137121
C135  C     C_1   0.817184 0.999422 0.211417 0.211708
N3    N     N_1   0.883757 0.926594 0.197904 -0.313354
O31   O     O_3   0.793515 0.213360 0.319628 -0.545694
C136  C     C_3   0.888890 0.122449 0.324077 0.013211
H80   H     H_    0.880217 0.053620 0.327499 0.116353
H81   H     H_    0.930881 0.129072 0.349723 0.147839
C137  C     C_3   0.952626 0.107642 0.288468 -0.241999
H82   H     H_    0.908679 0.107973 0.262265 0.174915
H83   H     H_    0.968423 0.172154 0.286486 0.182309
C138  C     C_3   0.053991 0.007053 0.289784 -0.495440
H84   H     H_    0.100454 0.005907 0.315304 0.132488
H85   H     H_    0.097856 0.998831 0.263464 0.144714
H86   H     H_    0.039712 0.941511 0.291015 0.161721
C139  C     C_1   0.787762 0.272805 0.395942 0.270492
N4    N     N_1   0.846541 0.296357 0.406966 -0.305305
O32   O     O_3   0.483806 0.788264 0.681607 -0.566330
C140  C     C_3   0.410334 0.761541 0.693059 0.006022
H87   H     H_    0.438425 0.677347 0.691959 0.114866
H88   H     H_    0.341969 0.799745 0.673674 0.138067
C141  C     C_3   0.378820 0.799110 0.734272 -0.259359
H89   H     H_    0.448320 0.769230 0.753114 0.167969
H90   H     H_    0.339316 0.884109 0.735275 0.177545
C142  C     C_3   0.308083 0.763114 0.749746 -0.474397
H91   H     H_    0.233797 0.799487 0.733654 0.171476
H92   H     H_    0.293908 0.784447 0.780563 0.165055
H93   H     H_    0.344274 0.678571 0.747301 0.134933
C143  C     C_1   0.783130 0.482870 0.296573 0.179481
N5    N     N_1   0.802183 0.404225 0.308687 -0.247933
O33   O     O_3   0.618124 0.503205 0.803865 -0.569948
C144  C     C_3   0.511945 0.545579 0.810370 -0.007508
H94   H     H_    0.478683 0.517110 0.787654 0.131192
H95   H     H_    0.468433 0.631145 0.810118 0.115411
C145  C     C_3   0.497927 0.511313 0.849757 -0.251582
H96   H     H_    0.540740 0.426373 0.851243 0.175507
H97   H     H_    0.529647 0.541579 0.872365 0.177222
C146  C     C_3   0.385026 0.549979 0.857746 -0.480889
H98   H     H_    0.339508 0.634312 0.854447 0.140309
H99   H     H_    0.376946 0.530519 0.887585 0.152825
H100  H     H_    0.354410 0.513131 0.837657 0.151068
C147  C     C_1   0.851221 0.516656 0.839532 0.207765
N6    N     N_1   0.921959 0.459052 0.822236 -0.290429
C148  C     C_1   0.693988 0.773435 0.718981 0.239486
N7    N     N_1   0.710433 0.829122 0.702140 -0.296903
C149  C     C_1   0.810828 0.465673 0.674349 0.201070
N8    N     N_1   0.883593 0.399852 0.688612 -0.294362
O34   O     O_3   0.091586 0.848009 0.907270 -0.546068
C150  C     C_3   0.193746 0.827261 0.913604 0.009176
H101  H     H_    0.190396 0.900887 0.921231 0.156192
H102  H     H_    0.241544 0.798075 0.887453 0.114560
C151  C     C_3   0.245633 0.752856 0.946997 -0.272068
H103  H     H_    0.199851 0.785214 0.973402 0.176910
H104  H     H_    0.249601 0.678576 0.940146 0.150583
C152  C     C_3   0.354439 0.733471 0.954457 -0.487140
H105  H     H_    0.401970 0.698858 0.928597 0.148998
H106  H     H_    0.390059 0.679822 0.978821 0.154812
H107  H     H_    0.353096 0.806270 0.961863 0.145524
O35   O     O_3   0.128009 0.520190 0.655856 -0.552933
C153  C     C_3   0.207679 0.416844 0.656676 -0.002956
H108  H     H_    0.284716 0.409579 0.661896 0.115181
H109  H     H_    0.208393 0.378560 0.628929 0.133607
C154  C     C_3   0.187373 0.362337 0.689041 -0.239873
H110  H     H_    0.177950 0.404928 0.716498 0.184753
H111  H     H_    0.115078 0.361173 0.682590 0.200494
C155  C     C_3   0.275246 0.252777 0.693924 -0.486296
H112  H     H_    0.288181 0.208947 0.666601 0.150651
H113  H     H_    0.256073 0.214341 0.716554 0.162236
H114  H     H_    0.346676 0.252964 0.702841 0.147209
C156  C     C_1   0.110572 0.850030 0.827223 0.192484
N9    N     N_1   0.115368 0.916448 0.813087 -0.323911
O36   O     O_3   0.515274 0.079444 0.913664 -0.558599
C157  C     C_3   0.489774 0.009066 0.896146 0.013471
H115  H     H_    0.512214 0.946235 0.916774 0.178665
H116  H     H_    0.531158 0.973000 0.868981 0.109423
C158  C     C_3   0.373641 0.060508 0.889260 -0.268145
H117  H     H_    0.333883 0.091320 0.916941 0.179079
H118  H     H_    0.348316 0.125414 0.869179 0.162733
C159  C     C_3   0.342456 0.985228 0.872428 -0.485414
H119  H     H_    0.381371 0.953162 0.844716 0.147595
H120  H     H_    0.258217 0.025387 0.867148 0.170133
H121  H     H_    0.362696 0.921841 0.892795 0.131482
C160  C     C_1   0.673928 0.853363 0.312084 0.208369
N10   N     N_1   0.652666 0.924860 0.331119 -0.314957
C161  C     C_1   0.665734 0.870282 0.230479 0.199662
N11   N     N_1   0.636981 0.949161 0.216444 -0.309347

loop_
_geom_bond_atom_site_label_1
_geom_bond_atom_site_label_2
_ccdc_geom_bond_type
C157  H116  S    
C7    H42   S    
C136  H81   S    
C75   C76   A    
C69   H19   S    
C147  N6    T    
C52   O28   S    
C114  C115  A    
C127  C128  S    
C151  H103  S    
C144  C145  S    
C66   C97   S    
Cr6   O10   S    
C21   C59   S    
C25   O13   A    
C157  C158  S    
C106  C107  A    
C33   O22   A    
C141  H89   S    
C56   C57   A    
C142  H91   S    
Cr6   O18   S    
C152  H107  S    
C127  H61   S    
C132  H74   S    
C146  H99   S    
C63   H20   S    
C121  H53   S    
C59   C60   A    
C133  H75   S    
C102  C111  S    
C130  H69   S    
C134  H78   S    
Cr2   O2    S    
C132  C133  S    
C74   H21   S    
C6    C11   A    
C110  H38   S    
C72   C73   A    
C94   C97   A    
C99   C110  A    
C82   C91   S    
C130  C131  S    
C32   C34   A    
Cr2   O26   S    
C124  N1    T    
C46   H8    S    
C61   H18   S    
C105  H32   S    
Cr5   O16   S    
C55   O26   A    
C29   C160  S    
O33   C144  S    
C140  H88   S    
C87   C89   A    
C9    H45   S    
C150  H101  S    
C64   H14   S    
C151  C152  S    
C145  H96   S    
C145  C146  S    
C33   C38   S    
C4    C5    A    
C53   C58   A    
C6    C7    A    
C66   O2    A    
C49   C124  S    
C8    C17   S    
C77   O4    A    
Cr1   O24   S    
Cr3   O4    S    
C16   C17   A    
C23   O17   A    
C47   O27   S    
C129  C130  S    
C69   C70   A    
C88   C99   A    
C3    C11   S    
C20   O9    A    
C80   H22   S    
C45   H6    S    
O36   C157  S    
C133  C134  S    
Cr5   O9    S    
C93   H26   S    
C100  O34   S    
Cr4   O14   S    
C135  N3    T    
C15   C18   A    
C22   C98   S    
C89   C148  S    
C7    C8    A    
C85   C86   A    
C108  C109  A    
C92   C149  S    
C29   C30   A    
Cr3   O22   S    
C36   C37   A    
Cr4   O7    S    
C109  C111  A    
Cr1   O12   S    
C79   C84   A    
C115  C116  A    
C92   C96   A    
C154  H110  S    
Cr5   O8    S    
O30   C132  S    
C158  H118  S    
C75   H15   S    
C4    H49   S    
C107  C108  A    
C9    C10   A    
C53   O29   S    
C39   C45   A    
C84   H23   S    
C152  H106  S    
C131  H70   S    
C26   H29   S    
C94   C95   A    
C126  H59   S    
C153  H109  S    
C35   C38   A    
C160  N10   T    
C44   O1    A    
C39   C40   A    
C161  N11   T    
C68   C69   A    
C119  O36   S    
C125  N2    T    
C32   C37   A    
C65   O30   S    
C46   C51   A    
C148  N7    T    
C95   O32   S    
C83   C84   A    
Cr4   O19   S    
C5    H40   S    
Cr2   O21   S    
C43   C45   A    
C35   H4    S    
C18   C55   S    
C113  C117  A    
C40   H5    S    
C44   O23   A    
C3    C4    A    
C70   C135  S    
C112  C116  A    
C52   C53   A    
C21   O11   A    
C40   C41   A    
C155  H114  S    
C1    O20   A    
C72   O31   S    
C159  H119  S    
C77   O24   A    
C19   O7    A    
C138  H86   S    
O32   C140  S    
C127  H62   S    
C83   H27   S    
C68   C76   S    
C106  H31   S    
C154  C155  S    
C5    C118  A    
Cr6   O11   S    
C137  H82   S    
C33   O21   A    
C100  C101  A    
C62   C71   S    
C142  H92   S    
C102  C103  A    
C107  C116  S    
C114  C117  A    
C10   C11   A    
C63   C64   A    
Cr6   O19   S    
C123  H58   S    
O27   C121  S    
C34   H2    S    
C128  H63   S    
C131  H72   S    
C13   H3    S    
C143  N5    T    
Cr1   O5    S    
C22   O14   A    
C126  C127  S    
C1    O12   A    
C141  C142  S    
C101  C102  A    
C93   C97   A    
C142  H93   S    
C41   C42   A    
C35   C36   A    
C41   H9    S    
C25   C118  S    
Cr4   O13   S    
C108  H33   S    
C112  H35   S    
C26   C27   A    
C15   H50   S    
C114  H39   S    
C28   C29   A    
C30   C31   A    
C121  C122  S    
C16   H41   S    
C10   H46   S    
C141  H90   S    
C44   C58   S    
C122  H54   S    
C65   C67   A    
C12   C17   A    
C70   C71   A    
C24   C125  S    
C157  H115  S    
C105  C111  A    
C136  C137  S    
C155  H112  S    
C1    C78   S    
C150  H102  S    
C159  H121  S    
C56   H7    S    
C27   C143  S    
C151  H104  S    
C67   C68   A    
C30   C161  S    
C48   C57   S    
C149  N8    T    
C86   C87   A    
Cr3   O3    S    
C99   H1    S    
C121  H52   S    
C66   O3    A    
C60   C61   A    
C150  C151  S    
C62   C63   A    
Cr6   O17   S    
C123  H56   S    
C23   O16   A    
C132  H73   S    
C146  H100  S    
C129  H67   S    
C24   C88   A    
C73   C139  S    
C48   C49   A    
C98   C100  A    
C133  H76   S    
C32   H51   S    
C144  H95   S    
C130  H68   S    
O28   C126  S    
C134  H77   S    
C46   C47   A    
C2    C110  A    
C90   H25   S    
C119  C120  A    
C105  C106  A    
C86   H24   S    
O29   C129  S    
C14   H48   S    
C19   O8    A    
C120  H44   S    
C90   C91   A    
C138  H84   S    
C122  C123  S    
C20   C88   S    
C145  H97   S    
C92   C93   A    
C154  H111  S    
Cr5   O15   S    
C158  H117  S    
C52   C57   A    
C156  N9    T    
C140  H87   S    
C115  O35   S    
C82   C83   A    
C74   C78   A    
C103  C104  A    
C89   C90   A    
C67   H16   S    
C12   H47   S    
C101  C156  S    
O34   C150  S    
C14   C18   A    
C95   C96   A    
C72   C76   A    
C126  H60   S    
C81   C82   A    
C85   C91   A    
C153  H108  S    
C59   C64   A    
O31   C136  S    
C28   C37   S    
C36   H17   S    
Cr1   O25   S    
Cr3   O5    S    
C77   C117  S    
C15   C16   A    
C2    C13   A    
C118  C119  A    
C113  H36   S    
C146  H98   S    
C8    C9    A    
C73   C78   A    
C139  N4    T    
C25   O18   A    
C134  H79   S    
C42   C51   S    
C26   C31   A    
C61   C62   A    
C112  C113  A    
C50   C51   A    
C54   C56   A    
C155  H113  S    
C74   C75   A    
Cr3   O23   S    
Cr4   O6    S    
C159  H120  S    
C138  H85   S    
Cr5   O19   S    
C144  H94   S    
C65   C71   A    
C55   O25   A    
C13   C24   A    
C2    C31   S    
C158  C159  S    
C137  H83   S    
C81   C147  S    
C47   C48   A    
C140  C141  S    
C94   H28   S    
C87   C96   S    
C85   O33   S    
C104  H30   S    
C19   C39   S    
C152  H105  S    
C123  H57   S    
C12   C14   A    
C49   C50   A    
C128  H64   S    
C131  H71   S    
C137  C138  S    
C22   O15   A    
C136  H80   S    
C27   C28   A    
O35   C153  S    
C54   C58   A    
C153  C154  S    
C21   O6    A    
C34   C38   A    
C80   C81   A    
Cr1   O1    S    
C128  H65   S    
C103  H37   S    
C50   H10   S    
C20   O10   A    
C54   H12   S    
C98   C104  A    
C43   H11   S    
Cr2   O20   S    
C3    C120  A    
C60   H13   S    
C79   C80   A    
Cr2   O5    S    
C122  H55   S    
C42   C43   A    
C129  H66   S    
C23   C79   S    
C109  H34   S    
C6    H43   S    
