data_mof_unit_58966.cif
_audit_creation_date              2012-12-11T16:41:16-0500
_audit_creation_method            fapswitch 2.2
_symmetry_space_group_name_H-M    P1
_symmetry_Int_Tables_number       1
_space_group_crystal_system       triclinic
_cell_length_a                    8.512357
_cell_length_b                    17.341462
_cell_length_c                    18.975837
_cell_angle_alpha                 99.914591
_cell_angle_beta                  92.126978
_cell_angle_gamma                 97.050758
_cell_volume                      2733.58524646

loop_
_atom_site_label
_atom_site_type_symbol
_atom_type_description
_atom_site_fract_x
_atom_site_fract_y
_atom_site_fract_z
_atom_type_partial_charge
Ba1   Ba    Ba6+2 0.849550 0.533890 0.465080 1.339971
Ba2   Ba    Ba6+2 0.340280 0.466170 0.534930 1.112632
C1    C     C_3   0.690701 0.809347 0.272502 -0.067480
C2    C     C_3   0.653381 0.732642 0.302479 0.263706
C3    C     C_3   0.525398 0.309907 0.308731 0.226423
C4    C     C_3   0.536776 0.261980 0.233505 0.433793
C5    C     C_3   0.036406 0.282611 0.731552 0.707031
C6    C     C_3   0.087082 0.280276 0.809416 1.027384
C7    C     C_3   0.628771 0.278917 0.728890 0.318484
C8    C     C_3   0.590386 0.195812 0.747184 -0.090926
C9    C     C_R   0.989648 0.473658 0.049656 -0.096011
C10   C     C_R   0.893680 0.444566 0.100679 0.708002
C11   C     C_R   0.787935 0.425859 0.946969 0.756547
C12   C     C_3   0.134499 0.757975 0.275303 0.867806
C13   C     C_R   0.933895 0.470231 0.976727 0.024279
C14   C     C_R   0.728971 0.430057 0.878842 -0.093055
C15   C     C_R   0.821786 0.466794 0.831871 -0.050152
C16   C     C_R   0.977644 0.502847 0.855988 -0.013963
C17   C     C_R   0.032719 0.506519 0.929426 -0.053469
C18   C     C_R   0.765258 0.465110 0.760400 -0.016383
C19   C     C_R   0.865369 0.498815 0.713771 -0.301574
C20   C     C_R   0.023540 0.529727 0.733409 0.104457
C21   C     C_R   0.078366 0.534759 0.806759 -0.077149
C22   C     C_R   0.146737 0.507636 0.073572 -0.068978
C23   C     C_3   0.104129 0.822272 0.230496 0.551531
C24   C     C_R   0.203828 0.507051 0.146104 -0.014747
C25   C     C_R   0.108262 0.466996 0.192629 -0.029765
C26   C     C_R   0.961158 0.425365 0.162305 -0.030074
C27   C     C_R   0.231365 0.569165 0.832474 -0.085857
C28   C     C_R   0.289644 0.566958 0.901595 0.681998
C29   C     C_R   0.189384 0.542064 0.953660 -0.020785
C30   C     C_R   0.243160 0.546677 0.027273 -0.030549
C31   C     C_R   0.386328 0.592569 0.058167 0.668895
C32   C     C_R   0.357714 0.545092 0.171176 -0.051718
C33   C     C_R   0.446253 0.586876 0.125996 -0.137806
C34   C     C_3   0.150098 0.721207 0.638117 0.295081
C35   C     C_R   0.413904 0.545908 0.242557 0.041231
C36   C     C_R   0.311216 0.515655 0.290067 -0.224639
C37   C     C_R   0.160754 0.474342 0.267199 0.042998
C38   C     C_R   0.420024 0.714448 0.462455 -0.299133
C39   C     C_R   0.563478 0.742537 0.502912 0.113186
C40   C     C_R   0.619129 0.823597 0.514866 -0.130399
C41   C     C_R   0.528400 0.876757 0.489893 -0.036917
C42   C     C_R   0.380054 0.848748 0.453840 -0.080474
C43   C     C_R   0.324717 0.767751 0.440824 0.156484
C44   C     C_R   0.585994 0.164276 0.496143 0.539127
C45   C     C_3   0.059005 0.789598 0.666596 -0.339121
C46   C     C_R   0.634596 0.245930 0.505615 0.061731
C47   C     C_R   0.881060 0.227318 0.567993 0.069084
C48   C     C_R   0.830786 0.145981 0.558212 -0.199597
C49   C     C_R   0.681856 0.114542 0.523808 -0.108751
C50   C     C_1   0.630375 0.030488 0.513182 0.141363
C51   C     C_1   0.584663 0.960415 0.503267 -0.020362
C52   C     C_R   0.777514 0.277564 0.545578 -0.257453
C53   C     C_3   0.940055 0.273494 0.346216 0.228133
C54   C     C_3   0.912849 0.191655 0.295918 -0.221984
C55   C     C_3   0.690962 0.662342 0.691473 0.339399
C56   C     C_3   0.699204 0.705373 0.770542 -0.124666
H1    H     H_    0.714137 0.740272 0.356611 0.081219
H2    H     H_    0.125380 0.829259 0.713326 0.101756
H3    H     H_    0.037148 0.824383 0.624036 0.110300
H4    H     H_    0.944435 0.767015 0.684330 0.130030
H5    H     H_    0.827511 0.296585 0.359033 0.063453
H6    H     H_    0.028236 0.168284 0.288114 0.142609
H7    H     H_    0.872083 0.198154 0.241533 0.126025
H8    H     H_    0.804625 0.639004 0.680001 -0.029123
H9    H     H_    0.592302 0.613061 0.681769 0.059118
H10   H     H_    0.819631 0.823639 0.275182 0.193639
H11   H     H_    0.804632 0.751233 0.780116 0.113563
H12   H     H_    0.524342 0.720161 0.307592 0.090756
H13   H     H_    0.621668 0.360266 0.319704 0.093801
H14   H     H_    0.436796 0.213166 0.220841 0.068600
H15   H     H_    0.646442 0.234912 0.230476 -0.014571
H16   H     H_    0.014232 0.343961 0.728528 -0.004522
H17   H     H_    0.926400 0.241087 0.716038 -0.794871
H18   H     H_    0.733674 0.308697 0.763553 0.050045
H19   H     H_    0.658620 0.273121 0.672102 0.014772
H20   H     H_    0.698407 0.165903 0.740117 0.140295
H21   H     H_    0.818225 0.502093 0.660947 0.064846
H22   H     H_    0.612857 0.398421 0.861870 0.152222
H23   H     H_    0.312946 0.594700 0.798510 0.126191
H24   H     H_    0.559062 0.620959 0.144234 0.133354
H25   H     H_    0.353566 0.519862 0.345228 0.064712
H26   H     H_    0.305709 0.889908 0.437784 0.120637
H27   H     H_    0.909022 0.107226 0.575570 0.112794
H28   H     H_    0.728990 0.845583 0.546611 0.095597
H29   H     H_    0.373677 0.652484 0.455565 0.079800
H30   H     H_    0.991980 0.803611 0.196944 -0.079439
H31   H     H_    0.087605 0.685945 0.588737 0.116487
O1    O     O_2   0.878040 0.448040 0.325130 -0.443963
O2    O     O_3   0.668268 0.717865 0.647927 -0.656552
O3    O     O_3   0.035053 0.763458 0.333986 -0.565913
O4    O     O_2   0.311660 0.551990 0.674910 -0.452762
O5    O     O_3   0.062910 0.546080 0.585630 -0.482558
O6    O     O_3   0.538690 0.410940 0.631180 -0.471302
O7    O     O_3   0.172684 0.677190 0.692258 -0.637180
O8    O     O_3   0.620260 0.406250 0.463620 -0.492144
O9    O     O_3   0.120960 0.369680 0.595180 -0.459671
O10   O     O_2   0.210677 0.229696 0.549684 -0.429311
O11   O     O_3   0.154136 0.259907 0.685546 -0.586966
O12   O     O_3   0.126800 0.453980 0.414370 -0.469190
O13   O     O_3   0.569440 0.593820 0.536390 -0.473360
O14   O     O_2   0.359400 0.311980 0.465480 -0.421400
O15   O     O_3   0.534037 0.258754 0.358297 -0.648749
O16   O     O_2   0.432954 0.466490 0.755453 -0.429696
O17   O     O_3   0.501431 0.323020 0.740823 -0.512770
O18   O     O_3   0.651020 0.589120 0.368830 -0.474765
O19   O     O_2   0.732882 0.520943 0.243403 -0.393224
O20   O     O_3   0.034186 0.323025 0.309154 -0.654140
O21   O     O_3   0.709204 0.670579 0.256417 -0.626905
O22   O     O_2   0.830300 0.688050 0.534560 -0.448398
O23   O     O_3   0.068750 0.630380 0.404830 -0.444871
O24   O     O_2   0.015989 0.769829 0.470347 -0.478075
P1    P     P_3+3 0.048060 0.426210 0.336320 0.923994
P2    P     P_3+3 0.655920 0.678120 0.556130 0.979338
P3    P     P_3+3 0.115479 0.732672 0.410244 0.961848
P4    P     P_3+3 0.141640 0.573850 0.663690 0.997116
P5    P     P_3+3 0.090764 0.268713 0.598927 1.050784
P6    P     P_3+3 0.623893 0.580668 0.276524 1.003233
P7    P     P_3+3 0.538635 0.305995 0.448464 0.947007
P8    P     P_3+3 0.562092 0.418123 0.723623 1.006782
C57   C     C_3   0.030569 0.263877 0.413641 -0.160866
H32   H     H_    0.955830 0.224264 0.441544 -0.003714
H33   H     H_    0.136775 0.234776 0.399770 0.147618
H34   H     H_    0.064902 0.321293 0.449241 0.134050
C58   C     C_3   0.798491 0.128675 0.321913 -0.456858
H35   H     H_    0.775001 0.075794 0.278898 0.153602
H36   H     H_    0.850540 0.110006 0.369719 0.156840
H37   H     H_    0.684185 0.149896 0.334630 0.184558
C59   C     C_3   0.719732 0.649367 0.822879 -0.394668
H38   H     H_    0.626389 0.597760 0.811481 0.179996
H39   H     H_    0.838452 0.630185 0.818357 0.091966
H40   H     H_    0.713807 0.679665 0.879092 0.198904
C60   C     C_3   0.553746 0.747973 0.787409 -0.287239
H41   H     H_    0.559970 0.800540 0.761117 0.120170
H42   H     H_    0.442892 0.708241 0.768444 0.134027
H43   H     H_    0.550634 0.769550 0.845898 0.128897
C61   C     C_3   0.633765 0.880628 0.318667 -0.410307
H44   H     H_    0.667383 0.934657 0.295723 0.157649
H45   H     H_    0.504030 0.872916 0.322534 0.189315
H46   H     H_    0.693421 0.890389 0.372932 0.128253
C62   C     C_3   0.366780 0.338829 0.310017 -0.303084
H47   H     H_    0.279598 0.286455 0.310891 0.144375
H48   H     H_    0.362178 0.384467 0.358136 0.122739
H49   H     H_    0.341844 0.363227 0.261241 0.127565
F1    F     F_    0.533972 0.309474 0.181905 -0.668273
C63   C     C_3   0.629773 0.798755 0.193879 -0.385860
H50   H     H_    0.704670 0.762035 0.159121 0.168767
H51   H     H_    0.506841 0.768012 0.186478 0.172160
H52   H     H_    0.634547 0.856508 0.175705 0.131158
C64   C     C_3   0.232448 0.838985 0.178960 -0.274367
H53   H     H_    0.344266 0.867281 0.209386 0.152306
H54   H     H_    0.251782 0.784266 0.142363 0.042202
H55   H     H_    0.194634 0.880910 0.145612 0.114042
F2    F     F_    0.235335 0.323299 0.827063 -0.681350
F3    F     F_    0.980631 0.314576 0.854017 -0.750628
C65   C     C_3   0.089398 0.195748 0.822118 -0.207508
H56   H     H_    0.169525 0.164506 0.786074 0.027228
H57   H     H_    0.131175 0.196643 0.878427 0.130347
H58   H     H_    0.968206 0.162458 0.812639 0.074233
C66   C     C_3   0.459740 0.145079 0.695957 -0.318117
H59   H     H_    0.494619 0.140595 0.639890 0.113797
H60   H     H_    0.439175 0.084504 0.708441 0.088698
H61   H     H_    0.347969 0.171059 0.700121 0.195292
C67   C     C_3   0.097876 0.675855 0.229133 -0.465762
H62   H     H_    0.110351 0.630384 0.262564 0.137246
H63   H     H_    0.975547 0.665801 0.204295 0.129529
H64   H     H_    0.181201 0.669096 0.185764 0.066660
C68   C     C_3   0.549566 0.199678 0.825599 -0.307104
H65   H     H_    0.442573 0.229225 0.836557 0.208429
H66   H     H_    0.527521 0.139215 0.838235 0.103274
H67   H     H_    0.650116 0.233087 0.861633 0.180902
C69   C     C_3   0.899648 0.344871 0.176265 -0.232870
H68   H     H_    0.000234 0.311087 0.182351 0.098519
H69   H     H_    0.825309 0.348799 0.222426 0.175489
H70   H     H_    0.824068 0.309567 0.129953 0.177648
F4    F     F_    0.709755 0.368621 0.977744 -0.638834
F5    F     F_    0.732996 0.437094 0.094355 -0.615847
F6    F     F_    0.449410 0.579366 0.912738 -0.686918
F7    F     F_    0.292063 0.770642 0.297802 -0.828940
F8    F     F_    0.460070 0.651941 0.028514 -0.675583
F9    F     F_    0.449054 0.132662 0.457160 -0.683627
C70   C     C_3   0.825397 0.364428 0.563532 -0.300949
H71   H     H_    0.868072 0.377915 0.620228 0.065479
H72   H     H_    0.906980 0.385105 0.524645 0.148405
H73   H     H_    0.734106 0.400721 0.564427 0.187589
F10   F     F_    0.091600 0.892472 0.276223 -0.691188
C71   C     C_3   0.310849 0.756081 0.620538 -0.226900
H74   H     H_    0.299370 0.794852 0.580660 0.003361
H75   H     H_    0.377920 0.791760 0.668741 0.095367
H76   H     H_    0.372407 0.705639 0.600211 0.081559

loop_
_geom_bond_atom_site_label_1
_geom_bond_atom_site_label_2
_ccdc_geom_bond_type
C34   H31   S    
C20   P4    S    
C10   F5    S    
C53   C54   S    
C1    C63   S    
C65   H56   S    
C36   H25   S    
C32   C35   A    
C68   H65   S    
C59   H39   S    
C1    H10   S    
O19   P6    D    
C55   H8    S    
C41   C42   A    
C17   C29   A    
C60   H43   S    
C2    H12   S    
C66   H59   S    
C8    H20   S    
C5    C6    S    
C46   P7    S    
C69   H68   S    
C56   C60   S    
C8    C68   S    
C46   C52   A    
C24   C25   A    
C67   H62   S    
C10   C26   A    
C71   H76   S    
C21   C27   A    
C38   H29   S    
Ba2   O6    S    
C63   H51   S    
C35   C36   A    
C39   P2    S    
C16   C17   A    
C70   H72   S    
Ba1   O23   S    
C3    C4    S    
C4    F1    S    
O5    P4    S    
C26   C69   S    
Ba2   O13   S    
C47   C52   A    
C9    C22   A    
C15   C18   A    
C56   C59   S    
C34   C45   S    
C71   H75   S    
Ba1   Ba2   S    
C39   C40   A    
C64   H55   S    
C6    F2    S    
O13   P2    S    
C23   F10   S    
C48   H27   S    
C45   H2    S    
C9    C13   A    
Ba2   P4    S    
C63   H50   S    
Ba2   O8    S    
C25   C37   A    
C14   C15   A    
C53   H5    S    
C64   H53   S    
C54   H6    S    
C40   H28   S    
C7    H18   S    
C54   C58   S    
C7    C8    S    
O24   P3    D    
O6    P8    S    
C41   C51   S    
C53   C57   S    
C67   H63   S    
C19   C20   A    
C53   O20   S    
C64   H54   S    
O12   P1    S    
C68   H66   S    
C62   H49   S    
O4    P4    D    
C55   H9    S    
C32   C33   A    
C6    C65   S    
O18   P6    S    
C66   H60   S    
C33   H24   S    
C24   C32   A    
O9    P5    S    
C5    H16   S    
C55   C56   S    
C69   H69   S    
C38   C43   A    
C44   C46   A    
C5    O11   S    
C16   C21   A    
O7    P4    S    
Ba2   O5    S    
C63   H52   S    
C70   H73   S    
Ba1   O8    S    
Ba1   O5    S    
C5    H17   S    
C58   H37   S    
C48   C49   A    
C7    O17   S    
C4    H14   S    
C44   C49   A    
C23   H30   S    
C49   C50   S    
C71   H74   S    
C34   C71   S    
C13   C17   A    
C70   H71   S    
C22   C30   A    
C27   H23   S    
C27   C28   A    
C2    H1    S    
C34   O7    S    
C29   C30   A    
C35   P6    S    
C28   C29   A    
C28   F6    S    
C37   P1    S    
C19   H21   S    
C15   C16   A    
O16   P8    D    
C1    C61   S    
C7    H19   S    
C12   C67   S    
O3    P3    S    
C12   O3    S    
C18   P8    S    
C61   H45   S    
O20   P1    S    
Ba1   O18   S    
C38   C39   A    
C67   H64   S    
C11   C13   A    
C31   F8    S    
C68   H67   S    
C62   H48   S    
C59   H40   S    
O11   P5    S    
C40   C41   A    
C57   H33   S    
C1    C2    S    
Ba1   O1    S    
Ba1   O12   S    
O23   P3    S    
C66   H61   S    
C50   C51   T    
C4    H15   S    
C69   H70   S    
C2    O21   S    
C58   H36   S    
C55   O2    S    
C62   H47   S    
Ba2   O4    S    
C42   C43   A    
C22   C24   A    
C42   H26   S    
C61   H46   S    
O21   P6    S    
C45   H3    S    
C60   H42   S    
C9    C10   A    
C52   C70   S    
C56   H11   S    
C60   H41   S    
C65   H58   S    
Ba2   O12   S    
C23   C64   S    
C30   C31   A    
C44   F9    S    
C57   H34   S    
C59   H38   S    
C3    H13   S    
Ba1   O22   S    
O10   P5    D    
C45   H4    S    
C43   P3    S    
C3    C62   S    
C36   C37   A    
Ba2   O14   S    
O8    P7    S    
C58   H35   S    
C11   F4    S    
O17   P8    S    
C31   C33   A    
O14   P7    D    
O2    P2    S    
O1    P1    D    
C12   C23   S    
C6    F3    S    
C3    O15   S    
C61   H44   S    
C47   P5    S    
C18   C19   A    
Ba2   O9    S    
C65   H57   S    
C47   C48   A    
Ba1   P1    S    
C11   C14   A    
C25   C26   A    
C20   C21   A    
O22   P2    D    
C8    C66   S    
Ba1   P2    S    
C14   H22   S    
C57   H32   S    
Ba1   O13   S    
C12   F7    S    
C54   H7    S    
O15   P7    S    
