data_mof_unit_16852.cif
_audit_creation_date              2013-03-05T15:55:27-0500
_audit_creation_method            fapswitch 2.2
_symmetry_space_group_name_H-M    P1
_symmetry_Int_Tables_number       1
_space_group_crystal_system       triclinic
_cell_length_a                    10.844802
_cell_length_b                    12.350461
_cell_length_c                    13.09833
_cell_angle_alpha                 116.432799
_cell_angle_beta                  77.269029
_cell_angle_gamma                 100.863921
_cell_volume                      1524.11485101

loop_
_atom_site_label
_atom_site_type_symbol
_atom_site_description
_atom_site_fract_x
_atom_site_fract_y
_atom_site_fract_z
_atom_type_partial_charge
O1    O     O_R   0.537340 0.972510 0.318130 -0.542562
O2    O     O_R   0.487200 0.806530 0.359650 -0.598040
C1    C     C_R   0.510849 0.854467 0.285557 0.936080
O3    O     O_R   0.707380 0.082980 0.479220 -0.548397
O4    O     O_R   0.657240 0.917000 0.520740 -0.561665
C2    C     C_R   0.738998 0.001802 0.503813 0.925875
Cu1   Cu    Cu3+1 0.529690 0.098270 0.475420 1.107847
Cu2   Cu    Cu3+1 0.470310 0.901730 0.524580 1.095663
O5    O     O_R   0.512800 0.193470 0.640350 -0.550176
O6    O     O_R   0.462660 0.027490 0.681870 -0.542014
O7    O     O_R   0.342760 0.083000 0.479260 -0.559490
O8    O     O_R   0.292620 0.917020 0.520780 -0.542095
C3    C     C_R   0.483607 0.144818 0.713753 0.885280
C4    C     C_R   0.259790 0.003434 0.504600 0.933157
C5    C     C_3   0.953060 0.964451 0.379030 0.083256
H1    H     H_    0.946270 0.036670 0.352473 0.237294
C6    C     C_3   0.095559 0.963916 0.381870 0.040920
H2    H     H_    0.123605 0.871741 0.331336 0.234144
H3    H     H_    0.136857 0.194042 0.545356 0.254921
C7    C     C_3   0.935659 0.134647 0.579884 0.117707
C8    C     C_3   0.893906 0.916414 0.562595 0.485143
C9    C     C_3   0.876557 0.001136 0.504618 -0.413083
C10   C     C_3   0.120944 0.005437 0.508246 -0.354006
C11   C     C_3   0.077868 0.134286 0.583368 0.206634
C12   C     C_3   0.038485 0.913887 0.555901 0.147262
H4    H     H_    0.065913 0.822448 0.493422 0.207977
H5    H     H_    0.882313 0.168988 0.668853 0.244211
C13   C     C_R   0.305124 0.274322 0.013282 0.478761
H6    H     H_    0.294688 0.106552 0.864298 0.254902
C14   C     C_R   0.454726 0.226132 0.836072 -0.176469
C15   C     C_R   0.591815 0.806340 0.076334 0.233477
C16   C     C_R   0.606664 0.724624 0.959494 0.195554
C17   C     C_R   0.549427 0.604402 0.925391 0.295305
C18   C     C_R   0.492437 0.560905 0.010679 -0.026077
C19   C     C_R   0.455833 0.647275 0.124683 -0.123623
C20   C     C_R   0.457917 0.434488 0.982123 -0.023849
C21   C     C_R   0.361743 0.396786 0.056787 -0.169349
C22   C     C_R   0.321615 0.484186 0.168138 0.396216
C23   C     C_R   0.359203 0.607338 0.196811 0.343636
C24   C     C_R   0.517274 0.343413 0.881063 0.401298
C25   C     C_R   0.348366 0.193717 0.901849 -0.161038
C26   C     C_R   0.514620 0.770127 0.160582 -0.180248
C27   C     C_R   0.701274 0.340071 0.319271 0.253605
H7    H     H_    0.731635 0.170782 0.315248 0.194624
N1    N     N_R   0.574690 0.246280 0.438200 -0.239148
C28   C     C_R   0.338261 0.758629 0.655776 0.410524
C29   C     C_R   0.274312 0.649968 0.659285 0.247787
C30   C     C_R   0.323511 0.539342 0.584042 0.253654
C31   C     C_R   0.441617 0.539562 0.512243 -0.111579
C32   C     C_R   0.483646 0.646968 0.493172 0.142531
C33   C     C_R   0.518204 0.437879 0.457534 -0.018954
C34   C     C_R   0.621924 0.436627 0.368973 -0.065055
C35   C     C_R   0.643139 0.532972 0.334791 0.380075
C36   C     C_R   0.584637 0.639057 0.403239 -0.083786
C37   C     C_R   0.499813 0.340089 0.491420 0.195256
C38   C     C_R   0.672746 0.245098 0.353909 0.121076
N2    N     N_R   0.426100 0.754320 0.561190 -0.252411
H8    H     H_    0.427902 0.338134 0.561878 0.189964
H9    H     H_    0.625619 0.715152 0.385162 0.231260
Cl1   Cl    Cl    0.076325 0.923931 0.687275 -0.332181
Cl2   Cl    Cl    0.108820 0.198307 0.729355 -0.403601
Cl3   Cl    Cl    0.234906 0.445608 0.280999 -0.354367
Cl4   Cl    Cl    0.164502 0.218299 0.079899 -0.257745
Cl5   Cl    Cl    0.677762 0.367782 0.821091 -0.410974
N3    N     N_R   0.654556 0.927204 0.107719 0.160954
O9    O     O_R   0.777896 0.944696 0.097783 -0.207230
O10   O     O_R   0.591644 0.014236 0.122338 -0.267118
N4    N     N_R   0.525188 0.535824 0.808079 0.130666
O11   O     O_R   0.610386 0.536359 0.721097 -0.260588
O12   O     O_R   0.412433 0.480630 0.788701 -0.337397
N5    N     N_R   0.678718 0.765494 0.875124 0.201475
O13   O     O_R   0.648002 0.858639 0.868457 -0.172508
O14   O     O_R   0.786550 0.723012 0.818906 -0.139114
N6    N     N_R   0.899704 0.851373 0.290199 0.184053
O15   O     O_R   0.785175 0.844452 0.271394 -0.365366
O16   O     O_R   0.972623 0.770607 0.212357 -0.176125
Cl6   Cl    Cl    0.251228 0.704509 0.302842 -0.543138
Cl7   Cl    Cl    0.736059 0.526337 0.203421 -0.378396
N7    N     N_R   0.817754 0.341649 0.242739 0.182024
O17   O     O_R   0.909482 0.426583 0.280094 -0.154253
O18   O     O_R   0.842615 0.245361 0.147619 -0.183558
N8    N     N_R   0.335647 0.866865 0.761485 0.135646
O19   O     O_R   0.440257 0.909584 0.805601 -0.259532
O20   O     O_R   0.229147 0.896888 0.830366 -0.218906
N9    N     N_R   0.246734 0.427970 0.571772 0.138614
O21   O     O_R   0.228793 0.345869 0.469497 -0.256452
O22   O     O_R   0.192636 0.409257 0.662260 -0.228041
Cl8   Cl    Cl    0.131932 0.652273 0.756923 -0.228158
Cl9   Cl    Cl    0.192595 0.050790 0.307970 -0.399765
Cl10  Cl    Cl    0.923333 0.249434 0.533747 -0.386562
Cl11  Cl    Cl    0.813867 0.981001 0.712143 -0.333049
N10   N     N_R   0.837031 0.789232 0.507165 0.121035
O23   O     O_R   0.760601 0.739585 0.569966 -0.231616
O24   O     O_R   0.884421 0.717160 0.403500 -0.288494

loop_
_geom_bond_atom_site_label_1
_geom_bond_atom_site_label_2
_geom_bond_distance
_ccdc_geom_bond_type
C1    C26   1.494928 S    
C11   Cl2   1.797526 S    
C15   C26   1.417641 A    
Cu1   Cu2   2.709417 S    
C35   C36   1.392764 A    
Cu1   O7    1.991758 S    
C6    C10   1.571856 S    
N6    O16   1.302469 A    
Cu1   N1    2.041978 S    
C20   C21   1.426142 A    
O2    C1    1.304902 A    
O4    C2    1.304717 A    
O7    C4    1.308012 A    
C27   C34   1.426591 A    
C27   N7    1.432115 S    
C5    H1    1.110954 S    
C2    C9    1.495757 S    
C13   C25   1.386367 A    
Cu1   O5    1.930884 S    
C18   C19   1.416150 A    
C19   C26   1.435968 A    
O5    C3    1.301598 A    
C28   N8    1.433191 S    
C5    C9    1.573610 S    
C29   C30   1.402479 A    
N1    C38   1.350564 A    
N4    O11   1.300857 A    
N3    O10   1.301211 A    
C10   C11   1.549961 S    
C14   C25   1.388535 A    
C12   Cl1   1.801903 S    
C18   C20   1.428006 A    
C8    C9    1.597363 S    
O3    Cu1   1.984775 S    
C17   C18   1.422457 A    
C16   N5    1.433173 S    
C36   H9    1.063544 S    
N9    O22   1.299495 A    
N6    O15   1.298744 A    
C33   C34   1.423572 A    
C7    C11   1.553818 S    
C3    C14   1.462370 S    
C20   C24   1.415481 A    
C6    Cl9   1.801567 S    
O3    C2    1.300892 A    
N7    O18   1.301122 A    
C15   N3    1.433280 S    
C31   C33   1.452633 A    
C12   H4    1.109093 S    
N9    O21   1.300692 A    
C7    Cl10  1.806273 S    
O1    C1    1.316188 A    
C4    C10   1.500496 S    
C19   C23   1.420452 A    
C21   C22   1.406231 A    
Cu2   N2    2.030077 S    
H7    C38   1.082288 S    
C15   C16   1.401493 A    
Cu2   O8    1.984774 S    
N10   O24   1.299616 A    
C6    H2    1.094311 S    
C14   C24   1.396900 A    
C32   C36   1.402116 A    
Cu2   O6    1.946332 S    
C30   C31   1.412464 A    
C7    C9    1.592017 S    
N8    O19   1.300447 A    
N8    O20   1.299911 A    
C28   N2    1.373118 A    
C23   Cl6   1.751958 S    
C34   C35   1.412432 A    
N5    O14   1.301085 A    
C8    Cl11  1.829547 S    
C5    C6    1.555327 S    
C8    C12   1.556430 S    
C28   C29   1.405022 A    
H6    C25   1.076224 S    
O1    Cu1   1.946332 S    
C32   N2    1.398677 A    
O2    Cu2   1.930886 S    
O8    C4    1.299448 A    
O6    C3    1.305656 A    
O4    Cu2   1.991759 S    
C7    H5    1.108117 S    
C24   Cl5   1.774063 S    
C16   C17   1.404908 A    
H3    C11   1.100266 S    
N5    O13   1.299483 A    
N3    O9    1.300828 A    
C29   Cl8   1.770414 S    
C22   C23   1.394918 A    
C13   C21   1.423430 A    
N10   O23   1.302529 A    
C35   Cl7   1.767605 S    
C33   C37   1.429299 A    
C10   C12   1.571287 S    
N7    O17   1.301363 A    
C13   Cl4   1.766088 S    
C27   C38   1.397329 A    
C5    N6    1.477992 S    
N1    C37   1.368851 A    
N4    O12   1.301117 A    
C31   C32   1.430616 A    
C37   H8    1.075179 S    
C30   N9    1.428820 S    
C17   N4    1.443255 S    
C22   Cl3   1.772595 S    
C8    N10   1.480441 S    
