data_mof_unit_45760.cif
_audit_creation_date              2012-10-26T19:41:31-0400
_audit_creation_method            fapswitch 2.2
_symmetry_space_group_name_H-M    P1
_symmetry_Int_Tables_number       1
_space_group_crystal_system       triclinic
_cell_length_a                    17.100727
_cell_length_b                    11.005525
_cell_length_c                    9.900296
_cell_angle_alpha                 111.335497
_cell_angle_beta                  93.280295
_cell_angle_gamma                 93.053993
_cell_volume                      1727.21106256

loop_
_atom_site_label
_atom_site_type_symbol
_atom_type_description
_atom_site_fract_x
_atom_site_fract_y
_atom_site_fract_z
_atom_type_partial_charge
C1    C     C_R   0.494813 0.254238 0.441022 0.522764
C2    C     C_R   0.648081 0.493701 0.478019 0.544508
C3    C     C_R   0.267613 0.486485 0.534019 -0.031412
C4    C     C_R   0.731289 0.477877 0.455932 -0.028318
C5    C     C_R   0.216982 0.548961 0.470128 -0.210577
C6    C     C_R   0.787969 0.552094 0.566294 -0.219133
C7    C     C_R   0.136473 0.532906 0.477027 -0.179785
C8    C     C_R   0.867058 0.535839 0.547957 -0.181049
C9    C     C_R   0.104921 0.454587 0.549160 0.002644
C10   C     C_R   0.891216 0.445269 0.418343 0.015655
C11   C     C_R   0.156995 0.408470 0.632316 0.272281
C12   C     C_R   0.506146 0.745773 0.558736 0.542918
C13   C     C_R   0.834646 0.383794 0.299780 0.274813
C14   C     C_R   0.237421 0.412604 0.612346 0.259250
C15   C     C_R   0.754677 0.389812 0.323169 0.268682
C16   C     C_2   0.018391 0.420214 0.533231 0.250096
C17   C     C_2   0.974660 0.413151 0.410501 0.255711
C18   C     C_3   0.670904 0.203131 0.242820 0.033814
C19   C     C_3   0.719025 0.085847 0.174032 -0.278718
C20   C     C_3   0.683168 0.963649 0.193188 -0.478510
C21   C     C_3   0.301336 0.226104 0.570203 0.051071
C22   C     C_3   0.238694 0.118590 0.563391 -0.268292
C23   C     C_2   0.493101 0.114263 0.407579 -0.161266
C24   C     C_3   0.261218 0.983598 0.467638 -0.499457
C25   C     C_3   0.031777 0.258089 0.228042 0.017887
C26   C     C_3   0.074605 0.234544 0.090568 -0.249471
C27   C     C_3   0.103880 0.097827 0.033572 -0.484561
C28   C     C_3   0.966703 0.270758 0.624280 0.023019
C29   C     C_3   0.883478 0.218298 0.553361 -0.291476
C30   C     C_3   0.859123 0.088399 0.567626 -0.488515
C31   C     C_3   0.122002 0.455068 0.863867 0.023748
C32   C     C_3   0.199136 0.490494 0.961552 -0.241320
C33   C     C_3   0.188345 0.591423 0.111461 -0.502931
C34   C     C_2   0.510560 0.885764 0.591313 -0.133823
C35   C     C_3   0.871374 0.394555 0.085743 0.039661
C36   C     C_3   0.797651 0.402812 0.994724 -0.261154
C37   C     C_3   0.814486 0.491130 0.909769 -0.494107
C38   C     C_2   0.505856 0.069655 0.514638 -0.177431
C39   C     C_2   0.502525 0.930263 0.483145 -0.172100
C40   C     C_2   0.514764 0.493647 0.072330 0.447364
C41   C     C_2   0.500059 0.476015 0.914033 0.513359
C42   C     C_R   0.351762 0.499259 0.520102 0.554062
Cu1   Cu    Cu3+1 0.513640 0.521550 0.643210 1.024789
Cu2   Cu    Cu3+1 0.486360 0.478450 0.356790 0.977948
H1    H     H_    0.239871 0.609601 0.414251 0.134269
H2    H     H_    0.668360 0.223263 0.361400 0.104291
H3    H     H_    0.721093 0.066371 0.056016 0.184378
H4    H     H_    0.780051 0.108033 0.225870 0.174028
H5    H     H_    0.681246 0.980597 0.310592 0.151069
H6    H     H_    0.719377 0.880421 0.143173 0.168304
H7    H     H_    0.622580 0.937460 0.139314 0.173351
H8    H     H_    0.358915 0.200059 0.604479 0.192868
H9    H     H_    0.306837 0.228983 0.459566 0.093515
H10   H     H_    0.231741 0.120145 0.674958 0.194264
H11   H     H_    0.181477 0.136504 0.517874 0.163938
H12   H     H_    0.771025 0.621872 0.667445 0.138884
H13   H     H_    0.267945 0.979594 0.355179 0.147140
H14   H     H_    0.214487 0.907981 0.463489 0.144578
H15   H     H_    0.317257 0.961228 0.512736 0.163257
H16   H     H_    0.979240 0.186783 0.201852 0.161763
H17   H     H_    0.072515 0.240056 0.309324 0.109353
H18   H     H_    0.034307 0.245674 0.004645 0.156138
H19   H     H_    0.125685 0.308079 0.115229 0.171450
H20   H     H_    0.145964 0.085110 0.116280 0.141820
H21   H     H_    0.134339 0.084083 0.933532 0.153785
H22   H     H_    0.053724 0.022306 0.006618 0.142584
H23   H     H_    0.909463 0.593343 0.636715 0.160121
H24   H     H_    0.972104 0.261510 0.732439 0.158497
H25   H     H_    0.010552 0.207945 0.558503 0.138520
H26   H     H_    0.840525 0.289912 0.604740 0.181513
H27   H     H_    0.881610 0.202188 0.435917 0.144524
H28   H     H_    0.900983 0.014557 0.516330 0.145482
H29   H     H_    0.799554 0.051831 0.512136 0.150063
H30   H     H_    0.857530 0.101562 0.684129 0.150388
H31   H     H_    0.076787 0.418584 0.918961 0.144762
H32   H     H_    0.099839 0.544625 0.852015 0.143802
H33   H     H_    0.220402 0.400958 0.973518 0.206793
H34   H     H_    0.098737 0.581366 0.424493 0.157441
H35   H     H_    0.244493 0.532658 0.911772 0.210448
H36   H     H_    0.167086 0.681714 0.101615 0.139030
H37   H     H_    0.245678 0.617383 0.177547 0.171328
H38   H     H_    0.145486 0.551234 0.167589 0.158358
H39   H     H_    0.916699 0.352063 0.010054 0.149119
H40   H     H_    0.896310 0.494867 0.157364 0.140548
H41   H     H_    0.776425 0.303105 0.917491 0.177154
H42   H     H_    0.750504 0.443911 0.066475 0.235930
H43   H     H_    0.829345 0.593652 0.985810 0.148070
H44   H     H_    0.761553 0.488376 0.838005 0.177954
H45   H     H_    0.492594 0.863666 0.370273 0.167401
H46   H     H_    0.864243 0.457966 0.841830 0.178833
H47   H     H_    0.454794 0.298441 0.857597 0.309086
H48   H     H_    0.576230 0.621385 0.234259 0.350610
H49   H     H_    0.598690 0.703966 0.884843 0.349780
H50   H     H_    0.367054 0.363190 0.137892 0.360253
H51   H     H_    0.517890 0.136197 0.627097 0.168113
H52   H     H_    0.520378 0.952755 0.703967 0.102652
H53   H     H_    0.481193 0.047402 0.295245 0.106369
H54   H     H_    0.609511 0.176709 0.193122 0.170384
N1    N     N_2   0.465840 0.446060 0.141630 -0.103612
N2    N     N_2   0.534160 0.553940 0.858370 -0.053403
O1    O     O_R   0.507280 0.332200 0.576490 -0.462647
O2    O     O_3   0.286389 0.348344 0.675523 -0.513261
O3    O     O_3   0.008700 0.387882 0.279660 -0.598140
O4    O     O_3   0.981623 0.405652 0.648674 -0.605436
O5    O     O_3   0.130497 0.353763 0.728465 -0.569780
O6    O     O_3   0.856162 0.310569 0.162909 -0.559195
O7    O     O_3   0.451677 0.371234 0.821596 -0.650243
O8    O     O_3   0.586398 0.554819 0.140076 -0.668049
O9    O     O_3   0.577763 0.660725 0.948537 -0.638962
O10   O     O_3   0.393661 0.401642 0.075142 -0.652271
O11   O     O_R   0.492720 0.667800 0.423510 -0.527138
O12   O     O_R   0.484240 0.295800 0.334620 -0.516077
O13   O     O_R   0.515760 0.704200 0.665380 -0.513966
O14   O     O_R   0.399260 0.520290 0.634950 -0.430421
O15   O     O_R   0.600740 0.479710 0.365050 -0.451849
O16   O     O_R   0.376220 0.483890 0.393080 -0.523106
O17   O     O_R   0.623780 0.516110 0.606920 -0.524557
O18   O     O_3   0.699942 0.312655 0.212388 -0.538884

loop_
_geom_bond_atom_site_label_1
_geom_bond_atom_site_label_2
_ccdc_geom_bond_type
C3    C42   S    
C37   H44   S    
C35   C36   S    
Cu1   Cu2   S    
C40   N1    D    
C22   H10   S    
C26   C27   S    
C29   C30   S    
C37   H46   S    
C28   C29   S    
C28   H24   S    
C9    C16   S    
C34   H52   S    
C12   O13   A    
C20   H7    S    
C1    O12   A    
C38   C39   S    
C30   H30   S    
Cu2   N1    S    
C19   H3    S    
C14   O2    S    
C10   C17   S    
C18   C19   S    
C20   H6    S    
C32   H33   S    
C16   O4    S    
C28   H25   S    
Cu2   O15   S    
C24   H13   S    
C38   H51   S    
C11   O5    S    
C25   H16   S    
H48   O8    S    
C33   H38   S    
C18   O18   S    
C40   O8    S    
N2    O9    S    
C21   C22   S    
C31   O5    S    
C18   H2    S    
C2    O17   A    
C42   O14   A    
C34   C39   D    
C24   H14   S    
H47   O7    S    
Cu1   N2    S    
C4    C6    A    
C5    C7    A    
C30   H29   S    
C35   H39   S    
C19   H4    S    
C16   C17   D    
C6    C8    A    
C36   H42   S    
C25   C26   S    
N1    O10   S    
C5    H1    S    
H50   O10   S    
C2    C4    S    
C26   H19   S    
Cu1   O1    S    
C20   H5    S    
C27   H21   S    
C2    O15   A    
C28   O4    S    
C31   H31   S    
C31   C32   S    
C41   N2    D    
C25   H17   S    
C9    C11   A    
C3    C14   A    
Cu1   O17   S    
C7    H34   S    
C21   O2    S    
Cu2   O12   S    
C42   O16   A    
C40   C41   S    
C23   H53   S    
C1    C23   S    
C13   C15   A    
C22   C24   S    
C12   C34   S    
C1    O1    A    
C29   H26   S    
C7    C9    A    
C36   C37   S    
C41   O7    S    
C37   H43   S    
C25   O3    S    
C6    H12   S    
C13   O6    S    
C3    C5    A    
C10   C13   A    
C30   H28   S    
C35   H40   S    
C33   H36   S    
C22   H11   S    
C36   H41   S    
C23   C38   D    
C15   O18   S    
C32   C33   S    
C19   C20   S    
C26   H18   S    
Cu1   O14   S    
C35   O6    S    
Cu1   O13   S    
C32   H35   S    
C21   H9    S    
C31   H32   S    
C4    C15   A    
C24   H15   S    
C11   C14   A    
C21   H8    S    
C17   O3    S    
C27   H20   S    
Cu2   O11   S    
Cu2   O16   S    
C8    H23   S    
C8    C10   A    
C27   H22   S    
C18   H54   S    
C33   H37   S    
C39   H45   S    
C12   O11   A    
H49   O9    S    
C29   H27   S    
