data_mof_unit_12107.cif
_audit_creation_date              2012-12-10T20:30:59-0500
_audit_creation_method            fapswitch 2.2
_symmetry_space_group_name_H-M    P1
_symmetry_Int_Tables_number       1
_space_group_crystal_system       triclinic
_cell_length_a                    14.894832
_cell_length_b                    10.694802
_cell_length_c                    9.953864
_cell_angle_alpha                 89.976699
_cell_angle_beta                  89.000679
_cell_angle_gamma                 89.862805
_cell_volume                      1585.37763047

loop_
_atom_site_label
_atom_site_type_symbol
_atom_type_description
_atom_site_fract_x
_atom_site_fract_y
_atom_site_fract_z
_atom_type_partial_charge
C1    C     C_R   0.502782 0.260790 0.499686 0.938082
C2    C     C_R   0.907340 0.611971 0.461323 -0.006152
C3    C     C_R   0.950694 0.267719 0.501881 -0.054512
C4    C     C_R   0.043964 0.267630 0.502941 -0.135053
C5    C     C_R   0.093193 0.379071 0.490355 0.071026
C6    C     C_R   0.047312 0.494989 0.479438 -0.034236
C7    C     C_R   0.095059 0.609954 0.478071 -0.052454
C8    C     C_R   0.049011 0.722503 0.449873 0.474841
C9    C     C_R   0.956385 0.722330 0.442963 -0.235081
C10   C     C_R   0.187381 0.377846 0.491789 -0.082570
C11   C     C_R   0.231874 0.493019 0.503245 -0.209259
C12   C     C_R   0.327491 0.496780 0.501130 1.000565
C13   C     C_R   0.186476 0.607173 0.507184 0.415026
C14   C     C_R   0.553648 0.061721 0.591159 0.076395
C15   C     C_R   0.507503 0.129135 0.495184 -0.080462
C16   C     C_R   0.467960 0.068033 0.387338 -0.189447
C17   C     C_R   0.460239 0.939447 0.388200 -0.108504
C18   C     C_R   0.497467 0.872243 0.496741 -0.159729
C19   C     C_R   0.548652 0.934335 0.591574 0.190584
C20   C     C_3   0.546787 0.927801 0.741611 -0.392049
C21   C     C_3   0.552993 0.069464 0.740938 -0.438274
C22   C     C_R   0.428332 0.545472 0.072513 0.134881
C23   C     C_R   0.496800 0.739563 0.499718 0.969333
C24   C     C_R   0.572864 0.457716 0.068180 0.002845
C25   C     C_R   0.572912 0.460423 0.925168 -0.100636
C26   C     C_R   0.428740 0.545464 0.930950 0.076608
C27   C     C_3   0.331744 0.509706 0.923285 -0.397908
C28   C     C_3   0.330659 0.505735 0.077634 0.162955
C29   C     C_R   0.672517 0.500336 0.498773 0.887556
C30   C     C_R   0.813356 0.614617 0.468210 -0.015640
C31   C     C_R   0.767889 0.502786 0.494355 -0.105674
C32   C     C_R   0.811915 0.389225 0.505309 -0.232640
C33   C     C_R   0.904823 0.383053 0.492071 0.074340
C34   C     C_R   0.953219 0.496395 0.475896 0.091364
H1    H     H_    0.481833 0.892395 0.783110 0.222797
H2    H     H_    0.607665 0.881530 0.781579 0.238906
H3    H     H_    0.492048 0.115511 0.783050 0.254534
H4    H     H_    0.617613 0.105005 0.779846 0.216890
H5    H     H_    0.630464 0.425520 0.868723 0.160697
H6    H     H_    0.291296 0.587537 0.880996 0.224977
H7    H     H_    0.772141 0.306595 0.525753 0.161520
H8    H     H_    0.077428 0.178841 0.516478 0.228917
H9    H     H_    0.923303 0.810560 0.424261 0.210122
H10   H     H_    0.435207 0.120761 0.309126 0.238692
N1    N     N_R   0.499390 0.499140 0.142800 -0.138039
N2    N     N_R   0.499390 0.499180 0.857150 -0.096599
O1    O     O_R   0.500010 0.316790 0.614690 -0.604054
O2    O     O_R   0.500000 0.316760 0.385350 -0.559104
O3    O     O_R   0.367850 0.499990 0.614680 -0.604311
O4    O     O_R   0.367840 0.499950 0.385340 -0.590587
O5    O     O_R   0.500000 0.683240 0.614650 -0.605964
O6    O     O_R   0.499990 0.683210 0.385310 -0.617078
O7    O     O_R   0.632160 0.500050 0.614660 -0.617831
O8    O     O_R   0.632150 0.500010 0.385320 -0.615990
Zn1   Zn    Zn3+2 0.500010 0.500020 0.653130 1.018211
Zn2   Zn    Zn3+2 0.499990 0.499980 0.346870 1.061292
C35   C     C_2   0.762109 0.733248 0.454961 0.863698
O9    O     O_2   0.716496 0.771456 0.549611 -0.650650
O10   O     O_R   0.765663 0.800053 0.334283 -0.751056
H11   H     H_    0.727598 0.878762 0.337771 0.365628
C36   C     C_2   0.404096 0.882869 0.283367 0.994037
O11   O     O_2   0.349004 0.803206 0.313941 -0.508744
O12   O     O_R   0.411253 0.925123 0.150645 -0.784852
H12   H     H_    0.368758 0.880193 0.088617 0.369485
C37   C     C_2   0.651190 0.400495 0.131947 0.966615
O13   O     O_2   0.726316 0.441431 0.107631 -0.601436
O14   O     O_R   0.640248 0.295397 0.213787 -0.756973
H13   H     H_    0.699165 0.263869 0.250655 0.354411
C38   C     C_2   0.312540 0.385891 0.856578 1.046464
O15   O     O_2   0.239897 0.370288 0.803989 -0.570155
O16   O     O_R   0.374380 0.287666 0.862115 -0.785427
H14   H     H_    0.350308 0.208021 0.821199 0.366843
Cl1   Cl    Cl    0.257645 0.622759 0.146057 -0.489906
C39   C     C_2   0.309459 0.378372 0.136852 0.954060
O17   O     O_2   0.368556 0.311724 0.181573 -0.609516
O18   O     O_R   0.221192 0.334747 0.131897 -0.733917
H15   H     H_    0.215771 0.243603 0.158037 0.387806
C40   C     C_2   0.904619 0.144752 0.510943 0.937738
O19   O     O_2   0.842253 0.120627 0.437030 -0.627740
O20   O     O_R   0.935464 0.054353 0.600696 -0.752883
H16   H     H_    0.898747 0.974717 0.598487 0.355119
C41   C     C_2   0.239332 0.257875 0.486508 0.919849
O21   O     O_2   0.300682 0.239827 0.564025 -0.632840
O22   O     O_R   0.217932 0.165592 0.393072 -0.774704
H17   H     H_    0.257873 0.089015 0.399775 0.378533
Cl2   Cl    Cl    0.243543 0.739649 0.570994 -0.514368
Cl3   Cl    Cl    0.101842 0.864508 0.404551 -0.439239

loop_
_geom_bond_atom_site_label_1
_geom_bond_atom_site_label_2
_ccdc_geom_bond_type
C19   C20   S    
C28   C39   S    
C4    H8    S    
C12   O3    A    
C35   O9    D    
C7    C8    A    
C26   C27   S    
C39   O18   S    
C24   N1    A    
C14   C21   S    
C5    C6    A    
C40   O20   S    
C35   O10   S    
C16   C17   A    
C29   O8    A    
C3    C33   A    
C15   C16   A    
C30   C35   S    
C38   O16   S    
C18   C19   A    
C36   O12   S    
C17   C36   S    
C20   H1    S    
O22   H17   S    
C21   H4    S    
N1    Zn2   S    
C8    C9    A    
C37   O14   S    
C13   Cl2   S    
C32   H7    S    
C1    C15   S    
C16   H10   S    
C27   C38   S    
C2    C34   A    
O10   H11   S    
C22   C28   S    
C38   O15   D    
C28   Cl1   S    
C17   C18   A    
O7    Zn1   S    
O8    Zn2   S    
C9    H9    S    
C39   O17   D    
O14   H13   S    
C2    C9    A    
C24   C25   A    
C40   O19   D    
O20   H16   S    
O3    Zn1   S    
C10   C41   S    
O4    Zn2   S    
C18   C23   S    
N2    Zn1   S    
C23   O5    A    
C31   C32   A    
C27   H6    S    
C33   C34   A    
O18   H15   S    
C24   C37   S    
C41   O21   D    
C41   O22   S    
C3    C4    A    
O1    Zn1   S    
O2    Zn2   S    
C14   C19   A    
C1    O1    A    
C4    C5    A    
C12   O4    A    
C11   C12   S    
C1    O2    A    
C6    C7    A    
C2    C30   A    
C8    Cl3   S    
C32   C33   A    
C5    C10   A    
C29   C31   S    
C25   H5    S    
C11   C13   A    
C23   O6    A    
C30   C31   A    
C29   O7    A    
O5    Zn1   S    
C36   O11   D    
C10   C11   A    
C26   N2    A    
O12   H12   S    
C20   H2    S    
C6    C34   A    
C7    C13   A    
C22   N1    A    
C21   H3    S    
C20   C21   S    
C37   O13   D    
C22   C26   A    
C27   C28   S    
C14   C15   A    
O16   H14   S    
C3    C40   S    
C25   N2    A    
O6    Zn2   S    
