data_mof_unit_28117.cif
_audit_creation_date              2012-12-11T15:35:34-0500
_audit_creation_method            fapswitch 2.2
_symmetry_space_group_name_H-M    P1
_symmetry_Int_Tables_number       1
_space_group_crystal_system       triclinic
_cell_length_a                    17.551818
_cell_length_b                    24.761655
_cell_length_c                    15.021758
_cell_angle_alpha                 90.000641
_cell_angle_beta                  125.848946
_cell_angle_gamma                 89.999501
_cell_volume                      5291.87707037

loop_
_atom_site_label
_atom_site_type_symbol
_atom_type_description
_atom_site_fract_x
_atom_site_fract_y
_atom_site_fract_z
_atom_type_partial_charge
C1    C     C_R   0.320242 0.135583 0.909188 0.023805
C2    C     C_R   0.559345 0.151295 0.912405 -0.155074
C3    C     C_R   0.268529 0.545594 0.250777 -0.138517
C4    C     C_R   0.247070 0.153122 0.796647 0.116579
C5    C     C_R   0.269795 0.186235 0.739545 -0.198259
C6    C     C_R   0.198488 0.205758 0.635279 -0.122125
C7    C     C_R   0.104942 0.191591 0.587116 -0.126274
C8    C     C_R   0.081985 0.159072 0.644277 -0.147181
C9    C     C_R   0.152628 0.140622 0.749578 -0.127196
C10   C     C_R   0.247045 0.846898 0.796646 0.116606
C11   C     C_R   0.152606 0.859399 0.749585 -0.127201
C12   C     C_R   0.081960 0.840950 0.644286 -0.147163
C13   C     C_R   0.059360 0.348707 0.912405 -0.155014
C14   C     C_R   0.104913 0.808433 0.587115 -0.126284
C15   C     C_R   0.198457 0.794266 0.635270 -0.122126
C16   C     C_R   0.269766 0.813786 0.739536 -0.198275
C17   C     C_R   0.747077 0.653126 0.796647 0.116583
C18   C     C_R   0.769799 0.686238 0.739540 -0.198266
C19   C     C_R   0.698491 0.705760 0.635274 -0.122120
C20   C     C_R   0.604946 0.691592 0.587115 -0.126272
C21   C     C_R   0.581992 0.659074 0.644280 -0.147184
C22   C     C_R   0.652636 0.640625 0.749581 -0.127192
C23   C     C_R   0.747085 0.346867 0.796641 0.116558
C24   C     C_R   0.059385 0.651286 0.912406 -0.155018
C25   C     C_R   0.652654 0.359378 0.749616 -0.127171
C26   C     C_R   0.581983 0.340946 0.644310 -0.147165
C27   C     C_R   0.604900 0.308437 0.587097 -0.126280
C28   C     C_R   0.698434 0.294260 0.635213 -0.122124
C29   C     C_R   0.769769 0.313762 0.739487 -0.198322
C30   C     C_R   0.457704 0.101135 0.672433 0.119666
C31   C     C_R   0.381225 0.136647 0.627852 -0.212207
C32   C     C_R   0.387647 0.189023 0.598144 -0.144579
C33   C     C_R   0.470401 0.206404 0.614019 -0.082775
C34   C     C_R   0.546922 0.171363 0.658525 -0.122036
C35   C     C_R   0.429696 0.999999 0.627901 -0.073610
C36   C     C_R   0.540490 0.118660 0.686994 -0.168531
C37   C     C_R   0.457703 0.898863 0.672434 0.119651
C38   C     C_R   0.540491 0.881335 0.687004 -0.168525
C39   C     C_R   0.546925 0.828629 0.658545 -0.121992
C40   C     C_R   0.470402 0.793590 0.614038 -0.082798
C41   C     C_R   0.387645 0.810974 0.598152 -0.144585
C42   C     C_R   0.381222 0.863352 0.627852 -0.212204
C43   C     C_R   0.957715 0.601134 0.672437 0.119636
C44   C     C_R   0.881239 0.636648 0.627864 -0.212195
C45   C     C_R   0.887665 0.689025 0.598160 -0.144583
C46   C     C_R   0.929711 0.499998 0.627905 -0.073628
C47   C     C_R   0.970419 0.706404 0.614036 -0.082808
C48   C     C_R   0.046937 0.671362 0.658537 -0.121980
C49   C     C_R   0.040501 0.618657 0.686997 -0.168511
C50   C     C_R   0.957709 0.398862 0.672438 0.119647
C51   C     C_R   0.040498 0.381331 0.687014 -0.168536
C52   C     C_R   0.046929 0.328625 0.658554 -0.121986
C53   C     C_R   0.970403 0.293588 0.614041 -0.082804
C54   C     C_R   0.887645 0.310975 0.598151 -0.144601
C55   C     C_R   0.881224 0.363354 0.627851 -0.212195
C56   C     C_R   0.824643 0.000000 0.277923 -0.007116
C57   C     C_R   0.324643 0.500000 0.277926 -0.007118
C58   C     C_R   0.624142 0.179324 0.004560 0.022064
C59   C     C_R   0.624164 0.820682 0.004561 0.022047
C60   C     C_R   0.124196 0.679308 0.004567 0.022062
C61   C     C_R   0.320220 0.864437 0.909185 0.023796
C62   C     C_R   0.124158 0.320679 0.004562 0.022047
C63   C     C_3   0.081285 0.949447 0.456342 -0.414687
C64   C     C_3   0.041673 0.000001 0.570944 -0.385091
C65   C     C_3   0.581285 0.449446 0.456343 -0.414685
C66   C     C_3   0.541672 0.499997 0.570947 -0.385092
C67   C     C_3   0.976370 0.949304 0.359162 -0.395612
C68   C     C_3   0.938277 0.999996 0.474933 -0.403050
C69   C     C_3   0.476367 0.449300 0.359171 -0.395617
C70   C     C_3   0.438276 0.500000 0.474936 -0.403050
C71   C     C_3   0.081283 0.050558 0.456347 -0.414687
C72   C     C_R   0.820251 0.635590 0.909188 0.023801
C73   C     C_3   0.581282 0.550556 0.456351 -0.414687
C74   C     C_3   0.104142 0.000002 0.529311 0.407948
C75   C     C_3   0.604141 0.500000 0.529313 0.407946
C76   C     C_3   0.926894 0.000001 0.364653 0.395378
C77   C     C_3   0.426893 0.500000 0.364655 0.395382
C78   C     C_R   0.417859 0.861579 0.093439 -0.163972
C79   C     C_R   0.417886 0.138439 0.093444 -0.164007
C80   C     C_R   0.917935 0.361529 0.093447 -0.164071
C81   C     C_R   0.917896 0.638446 0.093444 -0.164030
C82   C     C_3   0.976365 0.050704 0.359175 -0.395614
C83   C     C_R   0.820284 0.364382 0.909190 0.023805
C84   C     C_3   0.476367 0.550699 0.359171 -0.395617
C85   C     C_R   0.270948 0.754344 0.951334 -0.170331
C86   C     C_R   0.270939 0.245677 0.951325 -0.170359
C87   C     C_R   0.770883 0.254297 0.951222 -0.170393
C88   C     C_R   0.770950 0.745686 0.951322 -0.170372
C89   C     C_R   0.716043 0.214640 0.948872 -0.172110
C90   C     C_R   0.716141 0.785362 0.948983 -0.172121
C91   C     C_R   0.216168 0.714652 0.949005 -0.172144
C92   C     C_R   0.216133 0.285355 0.948985 -0.172123
C93   C     C_R   0.675292 0.222646 0.004380 0.159001
C94   C     C_R   0.652362 0.148864 0.094299 -0.130912
C95   C     C_R   0.675300 0.777351 0.004387 0.158996
C96   C     C_R   0.175316 0.722650 0.004399 0.158977
C97   C     C_R   0.175290 0.277346 0.004388 0.158985
C98   C     C_R   0.689969 0.269183 0.064487 -0.199961
C99   C     C_R   0.689846 0.730788 0.064370 -0.199952
C100  C     C_R   0.189819 0.769217 0.064359 -0.199931
C101  C     C_R   0.189832 0.230782 0.064369 -0.199940
C102  C     C_R   0.243732 0.809783 0.064874 -0.189146
C103  C     C_R   0.243776 0.190231 0.064899 -0.189132
C104  C     C_R   0.743947 0.309715 0.065029 -0.189104
C105  C     C_R   0.652373 0.851139 0.094300 -0.130941
C106  C     C_R   0.743793 0.690238 0.064901 -0.189130
C107  C     C_R   0.282070 0.802018 0.006535 0.157710
C108  C     C_R   0.282103 0.198006 0.006550 0.157706
C109  C     C_R   0.782172 0.301946 0.006566 0.157700
C110  C     C_R   0.782118 0.698016 0.006551 0.157712
C111  C     C_R   0.384803 0.951679 0.455140 -0.172580
C112  C     C_R   0.384794 0.048317 0.455136 -0.172567
C113  C     C_R   0.884808 0.451678 0.455137 -0.172582
C114  C     C_R   0.884798 0.548316 0.455132 -0.172570
C115  C     C_R   0.396468 0.951408 0.371948 -0.187800
C116  C     C_R   0.152389 0.648856 0.094305 -0.130958
C117  C     C_R   0.396461 0.048589 0.371947 -0.187795
C118  C     C_R   0.896437 0.451408 0.371917 -0.187792
C119  C     C_R   0.896430 0.548588 0.371915 -0.187800
C120  C     C_R   0.415016 1.000000 0.341037 0.153298
C121  C     C_R   0.914969 0.499998 0.340988 0.153296
C122  C     C_R   0.489554 0.045007 0.258845 -0.128749
C123  C     C_R   0.489567 0.954994 0.258858 -0.128743
C124  C     C_R   0.989528 0.545006 0.258817 -0.128734
C125  C     C_R   0.989520 0.454993 0.258806 -0.128740
C126  C     C_R   0.396331 0.999998 0.510937 0.142470
C127  C     C_R   0.152370 0.351138 0.094300 -0.130928
C128  C     C_R   0.896346 0.499997 0.510939 0.142486
C129  C     C_R   0.246723 0.955348 0.693017 -0.142949
C130  C     C_R   0.246723 0.044654 0.693020 -0.142959
C131  C     C_R   0.746721 0.455347 0.693021 -0.142960
C132  C     C_R   0.746723 0.544653 0.693020 -0.142962
C133  C     C_R   0.334454 0.156345 0.002993 -0.018080
C134  C     C_R   0.334414 0.843686 0.002987 -0.018104
C135  C     C_R   0.834468 0.656355 0.002993 -0.018072
C136  C     C_R   0.834529 0.343599 0.002997 -0.018034
C137  C     C_R   0.460941 0.000000 0.286313 0.039153
C138  C     C_R   0.559363 0.848709 0.912404 -0.155035
C139  C     C_R   0.960891 0.499999 0.286258 0.039145
C140  C     C_R   0.201708 0.000001 0.629002 -0.029736
C141  C     C_R   0.701707 0.500000 0.629004 -0.029726
C142  C     C_R   0.449832 0.044632 0.695327 0.022385
C143  C     C_R   0.449832 0.955367 0.695328 0.022391
C144  C     C_R   0.949840 0.544631 0.695330 0.022394
C145  C     C_R   0.949841 0.455367 0.695331 0.022393
C146  C     C_R   0.768529 0.954406 0.250775 -0.138521
C147  C     C_R   0.768528 0.045594 0.250773 -0.138527
C148  C     C_R   0.268529 0.454406 0.250775 -0.138527
H1    H     H_    0.096182 0.911736 0.503555 0.168760
H2    H     H_    0.903838 0.036236 0.480829 0.154140
H3    H     H_    0.474351 0.753134 0.590452 0.111289
H4    H     H_    0.328093 0.784016 0.560981 0.108187
H5    H     H_    0.315631 0.876885 0.610812 0.122706
H6    H     H_    0.815650 0.623119 0.610833 0.122715
H7    H     H_    0.828116 0.715985 0.560993 0.108190
H8    H     H_    0.974370 0.746858 0.590449 0.111300
H9    H     H_    0.110863 0.684897 0.670206 0.121731
H10   H     H_    0.099593 0.591465 0.719833 0.114902
H11   H     H_    0.099597 0.408519 0.719860 0.114903
H12   H     H_    0.110857 0.315084 0.670235 0.121747
H13   H     H_    0.468690 0.448745 0.280215 0.157075
H14   H     H_    0.974350 0.253133 0.590455 0.111291
H15   H     H_    0.828091 0.284019 0.560975 0.108191
H16   H     H_    0.815633 0.376889 0.610808 0.122713
H17   H     H_    0.403848 0.536246 0.480832 0.154141
H18   H     H_    0.125508 0.050862 0.425506 0.156837
H19   H     H_    0.096187 0.088268 0.503564 0.168753
H20   H     H_    0.625514 0.550865 0.425518 0.156834
H21   H     H_    0.596178 0.588266 0.503568 0.168758
H22   H     H_    0.968687 0.051263 0.280220 0.157076
H23   H     H_    0.944836 0.088515 0.363791 0.146529
H24   H     H_    0.468697 0.551251 0.280220 0.157079
H25   H     H_    0.056784 0.963815 0.622900 0.160039
H26   H     H_    0.444835 0.588513 0.363771 0.146524
H27   H     H_    0.304668 0.747930 0.910643 0.122674
H28   H     H_    0.304646 0.252099 0.910621 0.122681
H29   H     H_    0.804517 0.247874 0.910436 0.122701
H30   H     H_    0.804654 0.752108 0.910616 0.122680
H31   H     H_    0.707040 0.177265 0.906054 0.125812
H32   H     H_    0.707224 0.822752 0.906248 0.125788
H33   H     H_    0.207282 0.677261 0.906286 0.125781
H34   H     H_    0.207220 0.322745 0.906252 0.125787
H35   H     H_    0.659353 0.273982 0.109115 0.118631
H36   H     H_    0.596190 0.411734 0.503555 0.168754
H37   H     H_    0.659150 0.725982 0.108908 0.118643
H38   H     H_    0.159114 0.774013 0.108889 0.118645
H39   H     H_    0.159135 0.225978 0.108906 0.118646
H40   H     H_    0.254797 0.847015 0.108929 0.121792
H41   H     H_    0.254869 0.153001 0.108970 0.121790
H42   H     H_    0.755140 0.346926 0.109194 0.121772
H43   H     H_    0.754889 0.653008 0.108972 0.121787
H44   H     H_    0.371970 0.913448 0.476596 0.146394
H45   H     H_    0.371951 0.086547 0.476589 0.146390
H46   H     H_    0.871990 0.413446 0.476605 0.146398
H47   H     H_    0.556777 0.463808 0.622892 0.160042
H48   H     H_    0.871969 0.586547 0.476597 0.146391
H49   H     H_    0.454793 0.846018 0.175981 0.101678
H50   H     H_    0.454831 0.153997 0.175990 0.101679
H51   H     H_    0.954896 0.345976 0.175998 0.101680
H52   H     H_    0.954844 0.654004 0.175990 0.101682
H53   H     H_    0.397536 0.912977 0.338521 0.110271
H54   H     H_    0.397525 0.087021 0.338520 0.110268
H55   H     H_    0.897498 0.412976 0.338486 0.110246
H56   H     H_    0.897485 0.587020 0.338481 0.110264
H57   H     H_    0.487121 0.086193 0.279141 0.088377
H58   H     H_    0.944838 0.911489 0.363755 0.146525
H59   H     H_    0.487156 0.913809 0.279178 0.088370
H60   H     H_    0.987091 0.586192 0.279113 0.088381
H61   H     H_    0.987068 0.413805 0.279080 0.088383
H62   H     H_    0.234849 0.914802 0.663620 0.119318
H63   H     H_    0.234851 0.085201 0.663628 0.119316
H64   H     H_    0.734846 0.414799 0.663628 0.119328
H65   H     H_    0.734850 0.585200 0.663626 0.119315
H66   H     H_    0.790395 0.912788 0.267657 0.089700
H67   H     H_    0.790391 0.087213 0.267648 0.089705
H68   H     H_    0.290393 0.412787 0.267654 0.089702
H69   H     H_    0.903853 0.963747 0.480825 0.154139
H70   H     H_    0.290394 0.587212 0.267660 0.089699
H71   H     H_    0.697296 0.161238 0.179398 0.088278
H72   H     H_    0.697304 0.838764 0.179398 0.088295
H73   H     H_    0.197314 0.661233 0.179402 0.088296
H74   H     H_    0.197299 0.338763 0.179398 0.088292
H75   H     H_    0.515996 0.832146 0.831159 0.143699
H76   H     H_    0.515976 0.167854 0.831157 0.143685
H77   H     H_    0.015990 0.332145 0.831160 0.143694
H78   H     H_    0.016023 0.667851 0.831164 0.143701
H79   H     H_    0.125517 0.949142 0.425510 0.156832
H80   H     H_    0.444839 0.411487 0.363780 0.146528
H81   H     H_    0.056775 0.036190 0.622890 0.160033
H82   H     H_    0.625510 0.449145 0.425502 0.156839
H83   H     H_    0.556780 0.536183 0.622904 0.160030
H84   H     H_    0.342112 0.197568 0.776449 0.120585
H85   H     H_    0.215357 0.232146 0.591834 0.103520
H86   H     H_    0.050104 0.206228 0.505872 0.102519
H87   H     H_    0.009406 0.148434 0.607209 0.104230
H88   H     H_    0.134041 0.116046 0.793852 0.105895
H89   H     H_    0.134022 0.883974 0.793865 0.105888
H90   H     H_    0.009382 0.851588 0.607225 0.104231
H91   H     H_    0.403842 0.463756 0.480828 0.154139
H92   H     H_    0.050072 0.793798 0.505871 0.102514
H93   H     H_    0.215323 0.767881 0.591816 0.103521
H94   H     H_    0.342082 0.802453 0.776433 0.120587
H95   H     H_    0.842116 0.697571 0.776443 0.120588
H96   H     H_    0.715357 0.732147 0.591826 0.103517
H97   H     H_    0.550106 0.706229 0.505871 0.102518
H98   H     H_    0.509413 0.648436 0.607215 0.104231
H99   H     H_    0.634051 0.616050 0.793858 0.105895
H100  H     H_    0.634097 0.383945 0.793930 0.105904
H101  H     H_    0.509412 0.351591 0.607278 0.104232
H102  H     H_    0.968700 0.948756 0.280211 0.157077
H103  H     H_    0.550041 0.293816 0.505848 0.102511
H104  H     H_    0.715272 0.267881 0.591726 0.103521
H105  H     H_    0.842077 0.302421 0.776357 0.120603
H106  H     H_    0.315635 0.123117 0.610819 0.122712
H107  H     H_    0.328096 0.215982 0.560971 0.108187
H108  H     H_    0.474350 0.246858 0.590427 0.111287
H109  H     H_    0.610847 0.184899 0.670193 0.121731
H110  H     H_    0.599585 0.091469 0.719835 0.114903
H111  H     H_    0.599588 0.908524 0.719847 0.114903
H112  H     H_    0.610852 0.815089 0.670222 0.121745
N1    N     N_R   0.392140 0.102630 0.941800 -0.057572
N2    N     N_R   0.525160 0.972040 0.206160 -0.039835
N3    N     N_R   0.025160 0.527960 0.206160 -0.039840
N4    N     N_R   0.025160 0.472040 0.206160 -0.039841
N5    N     N_R   0.317870 0.971120 0.792790 -0.039046
N6    N     N_R   0.317870 0.028880 0.792790 -0.039045
N7    N     N_R   0.817870 0.471120 0.792790 -0.039046
N8    N     N_R   0.817870 0.528880 0.792790 -0.039046
N9    N     N_R   0.473480 0.027920 0.793480 -0.065420
N10   N     N_R   0.473480 0.972080 0.793480 -0.065420
N11   N     N_R   0.973480 0.527920 0.793480 -0.065419
N12   N     N_R   0.392140 0.897370 0.941800 -0.057577
N13   N     N_R   0.973480 0.472080 0.793480 -0.065421
N14   N     N_R   0.681610 0.971120 0.207570 -0.038275
N15   N     N_R   0.681610 0.028880 0.207570 -0.038276
N16   N     N_R   0.181610 0.471120 0.207570 -0.038275
N17   N     N_R   0.181610 0.528880 0.207570 -0.038275
N18   N     N_R   0.605410 0.102620 0.056870 -0.035855
N19   N     N_R   0.605410 0.897380 0.056870 -0.035856
N20   N     N_R   0.105410 0.602620 0.056870 -0.035852
N21   N     N_R   0.105410 0.397380 0.056870 -0.035855
N22   N     N_R   0.549680 0.896430 0.944180 -0.040299
N23   N     N_R   0.892140 0.602630 0.941800 -0.057574
N24   N     N_R   0.549680 0.103570 0.944180 -0.040293
N25   N     N_R   0.049680 0.396430 0.944180 -0.040301
N26   N     N_R   0.049680 0.603570 0.944180 -0.040300
N27   N     N_R   0.892140 0.397370 0.941800 -0.057566
N28   N     N_R   0.450890 0.896450 0.057150 -0.041376
N29   N     N_R   0.450890 0.103550 0.057150 -0.041371
N30   N     N_R   0.950890 0.396450 0.057150 -0.041362
N31   N     N_R   0.950890 0.603550 0.057150 -0.041371
N32   N     N_R   0.525160 0.027960 0.206160 -0.039836
Ni1   Ni    Ni4+2 0.433410 0.064680 0.868830 0.209799
Ni2   Ni    Ni4+2 0.433410 0.935320 0.868830 0.209795
Ni3   Ni    Ni4+2 0.933410 0.564680 0.868830 0.209798
Ni4   Ni    Ni4+2 0.933410 0.435320 0.868830 0.209804
Ni5   Ni    Ni4+2 0.565650 0.934380 0.131170 0.202972
Ni6   Ni    Ni4+2 0.565650 0.065620 0.131170 0.202974
Ni7   Ni    Ni4+2 0.065650 0.434380 0.131170 0.202974
Ni8   Ni    Ni4+2 0.065650 0.565620 0.131170 0.202971

loop_
_geom_bond_atom_site_label_1
_geom_bond_atom_site_label_2
_ccdc_geom_bond_type
C18   H95   S    
C143  N10   A    
C19   C20   A    
N4    Ni7   S    
C130  C140  A    
C90   C95   A    
C114  H48   S    
C65   H82   S    
C13   H77   S    
C5    C6    A    
C95   C99   A    
C131  N7    A    
N14   N15   A    
C98   H35   S    
C27   H103  S    
C91   C96   A    
C71   H18   S    
C29   H105  S    
N9    Ni1   S    
C71   C82   S    
C12   H90   S    
C101  C103  A    
C21   C22   A    
C124  H60   S    
C73   C75   S    
C43   C144  S    
C73   H20   S    
C90   H32   S    
C45   C47   A    
C51   C52   A    
C122  N32   A    
C63   H79   S    
C34   H109  S    
N13   Ni4   S    
C43   C44   A    
C37   C38   A    
C26   H101  S    
C87   H29   S    
C114  C128  A    
C42   H5    S    
N3    Ni8   S    
C78   C134  A    
C146  H66   S    
C3    C57   A    
C50   C145  S    
C13   N25   A    
C87   C89   A    
N20   Ni8   S    
C70   H17   S    
C10   C61   S    
C99   H37   S    
N16   Ni7   S    
C82   H23   S    
C31   H106  S    
C86   C108  A    
C119  H56   S    
C122  C137  A    
C4    C5    A    
C146  N14   A    
C80   C136  A    
C46   C144  A    
C6    C7    A    
C63   C74   S    
C77   C84   S    
C30   C36   A    
C44   H6    S    
C108  C133  S    
C92   H34   S    
C80   N30   A    
N18   Ni6   S    
C115  H53   S    
C125  N4    A    
C94   H71   S    
C39   H112  S    
C8    H87   S    
C20   C21   A    
C10   C16   A    
C147  N15   A    
C16   H94   S    
C52   H12   S    
N1    Ni1   S    
C113  H46   S    
C124  C139  A    
C69   C77   S    
C81   H52   S    
C7    C8    A    
C66   C70   S    
C53   C54   A    
N6    Ni1   S    
C64   C68   S    
C107  C134  S    
C147  H67   S    
C38   C39   A    
C3    N17   A    
N10   Ni2   S    
C116  H73   S    
C32   H107  S    
C75   C141  S    
N23   Ni3   S    
C148  N16   A    
C36   H110  S    
C54   H15   S    
C61   N12   A    
C114  C119  A    
C131  C141  A    
C7    H86   S    
C79   H50   S    
C71   H19   S    
C70   C77   S    
C130  H63   S    
C1    C133  A    
C148  H68   S    
C78   N28   A    
C92   C97   A    
C119  C121  A    
C24   N26   A    
C116  N20   A    
N14   Ni5   S    
C76   C82   S    
C39   C40   A    
C125  H61   S    
C72   C135  A    
C2    N24   A    
C59   C138  A    
C25   C26   A    
C80   H51   S    
C74   C140  S    
C66   H83   S    
N2    Ni5   S    
C94   N18   A    
C62   C97   S    
C31   C32   A    
C2    H76   S    
C17   C18   A    
C102  C107  A    
N31   Ni8   S    
N11   Ni3   S    
C83   C136  A    
C20   H97   S    
C60   C116  A    
C117  H54   S    
C69   H80   S    
C83   N27   A    
C52   C53   A    
C132  C141  A    
C99   C106  A    
C54   C55   A    
C84   H24   S    
N7    N8    A    
C88   H30   S    
C21   H98   S    
C68   C76   S    
C123  C137  A    
N19   Ni5   S    
C112  C117  A    
C121  C139  S    
C56   C147  A    
C68   H69   S    
C64   H25   S    
C14   H92   S    
C3    H70   S    
C96   C100  A    
C34   C36   A    
C89   C93   A    
N20   N26   A    
C68   H2    S    
C10   C11   A    
C35   C142  A    
C25   H100  S    
N16   N17   A    
C14   C15   A    
C132  H65   S    
C4    C9    A    
C101  H39   S    
N12   Ni2   S    
C65   H36   S    
C15   H93   S    
C41   C42   A    
N32   Ni6   S    
C66   H47   S    
N3    N4    A    
C113  C128  A    
C26   C27   A    
C59   C105  A    
C23   C83   S    
C28   C29   A    
C58   C93   S    
C30   C31   A    
C53   H14   S    
C47   H8    S    
C123  N2    A    
C18   C19   A    
C127  H74   S    
C13   C62   A    
N1    N29   A    
N28   Ni5   S    
C103  H41   S    
C112  C126  A    
C88   C110  A    
C111  H44   S    
N9    N10   A    
C122  H57   S    
C84   H26   S    
C61   C134  A    
C81   C135  A    
N21   N25   A    
C57   C77   S    
C117  C120  A    
N22   Ni2   S    
C124  N3    A    
N23   N31   A    
C28   H104  S    
N17   Ni8   S    
C138  N22   A    
C111  C126  A    
C50   C51   A    
N27   N30   A    
C72   N23   A    
C81   N31   A    
C67   H58   S    
C19   H96   S    
C60   C96   S    
C48   C49   A    
C88   C90   A    
C91   H33   S    
C11   H89   S    
C73   H21   S    
C23   C29   A    
C129  N5    A    
C44   C45   A    
C37   C143  S    
C33   H108  S    
C64   H81   S    
C71   C74   S    
C2    C58   A    
C87   C109  A    
C48   H9    S    
C17   C22   A    
C30   C142  S    
C100  H38   S    
C32   C33   A    
C142  N9    A    
C104  C109  A    
C138  H75   S    
C65   C69   S    
C66   C75   S    
N25   Ni4   S    
N2    N32   A    
N26   Ni3   S    
C56   C146  A    
C130  N6    A    
C67   H102  S    
C62   C127  A    
C57   C148  A    
C64   C74   S    
C120  C137  S    
C129  H62   S    
C35   C143  A    
C82   H22   S    
C56   C76   S    
C118  H55   S    
C38   H111  S    
N21   Ni7   S    
C85   C91   A    
C41   H4    S    
C125  C139  A    
N29   Ni6   S    
C46   C128  S    
C69   H13   S    
C55   H16   S    
C22   H99   S    
C46   C145  A    
C15   C16   A    
N27   Ni4   S    
N19   N22   A    
C63   H1    S    
C8    C9    A    
C103  C108  A    
C45   H7    S    
C78   H49   S    
N5    N6    A    
C73   C84   S    
N15   Ni6   S    
C23   C25   A    
N18   N24   A    
C9    H88   S    
C110  C135  S    
C59   C95   S    
C106  H43   S    
C24   H78   S    
C37   C42   A    
C79   C133  A    
C63   C67   S    
C5    H84   S    
C144  N11   A    
C43   C49   A    
C102  H40   S    
C40   H3    S    
C118  C121  A    
C35   C126  S    
C145  N13   A    
C132  N8    A    
C47   C48   A    
C24   C60   A    
C105  H72   S    
C104  H42   S    
C100  C102  A    
C33   C34   A    
C123  H59   S    
C79   N29   A    
C1    N1    A    
C40   C41   A    
C6    H85   S    
C12   C14   A    
C105  N19   A    
C49   H10   S    
C70   H91   S    
C27   C28   A    
C106  C110  A    
N11   N13   A    
N30   Ni7   S    
C11   C12   A    
N12   N28   A    
C50   C55   A    
C65   C75   S    
C1    C4    S    
C127  N21   A    
N8    Ni3   S    
C58   C94   A    
C86   C92   A    
C129  C140  A    
N24   Ni1   S    
C98   C104  A    
C51   H11   S    
N5    Ni2   S    
C85   H27   S    
C86   H28   S    
C89   H31   S    
N7    Ni4   S    
C112  H45   S    
C113  C118  A    
C17   C72   S    
C115  C120  A    
C131  H64   S    
C111  C115  A    
C67   C76   S    
C85   C107  A    
C93   C98   A    
C97   C101  A    
C109  C136  S    
