data_mof_unit_39474.cif
_audit_creation_date              2012-10-26T20:13:57-0400
_audit_creation_method            fapswitch 2.2
_symmetry_space_group_name_H-M    P1
_symmetry_Int_Tables_number       1
_space_group_crystal_system       triclinic
_cell_length_a                    8.713368
_cell_length_b                    10.862479
_cell_length_c                    9.545821
_cell_angle_alpha                 90.286514
_cell_angle_beta                  97.255286
_cell_angle_gamma                 89.74525
_cell_volume                      896.248395959

loop_
_atom_site_label
_atom_site_type_symbol
_atom_type_description
_atom_site_fract_x
_atom_site_fract_y
_atom_site_fract_z
_atom_type_partial_charge
C1    C     C_R   0.501551 0.262748 0.499721 0.550535
C2    C     C_R   0.633753 0.519533 0.942019 0.165335
C3    C     C_3   0.735918 0.629626 0.948080 -0.288868
C4    C     C_R   0.204069 0.500155 0.464695 0.562739
C5    C     C_3   0.734177 0.631356 0.107129 -0.287220
C6    C     C_R   0.500989 0.737378 0.500439 0.535113
C7    C     C_R   0.795311 0.505917 0.535168 0.540944
C8    C     C_2   0.038913 0.491314 0.448323 -0.134354
C9    C     C_2   0.958608 0.530113 0.550989 0.228460
C10   C     C_R   0.492945 0.063500 0.619520 -0.020754
C11   C     C_R   0.506893 0.130225 0.498658 0.004553
C12   C     C_R   0.526571 0.934535 0.375959 -0.186717
C13   C     C_R   0.526288 0.063670 0.374856 -0.171460
C14   C     C_3   0.969295 0.720989 0.657682 0.008945
C15   C     C_3   0.032260 0.794749 0.540264 -0.245681
C16   C     C_3   0.985867 0.930204 0.544919 -0.464960
C17   C     C_3   0.272224 0.899714 0.920072 -0.010188
C18   C     C_3   0.281127 0.774946 0.994060 -0.252607
C19   C     C_3   0.198973 0.778268 0.126172 -0.482951
C20   C     C_R   0.506340 0.870075 0.500568 -0.012517
C21   C     C_R   0.491875 0.939441 0.621211 0.051721
C22   C     C_3   0.459784 0.935365 0.771750 0.153250
C23   C     C_3   0.460701 0.077513 0.767726 -0.239606
C24   C     C_R   0.633480 0.520300 0.089160 0.162916
C25   C     C_R   0.372576 0.465618 0.059324 -0.034845
C26   C     C_R   0.372527 0.465746 0.910666 -0.022318
Cu1   Cu    Cu3+1 0.499990 0.499980 0.640670 0.966031
Cu2   Cu    Cu3+1 0.500010 0.500020 0.359330 0.902821
H1    H     H_    0.982848 0.447251 0.352895 0.067399
H2    H     H_    0.346061 0.121119 0.774159 0.146143
H3    H     H_    0.559447 0.119167 0.836617 0.097989
H4    H     H_    0.268341 0.439565 0.101845 0.122612
H5    H     H_    0.006891 0.766280 0.760502 0.156225
H6    H     H_    0.840609 0.724637 0.644557 0.122474
H7    H     H_    0.160355 0.787095 0.551840 0.223637
H8    H     H_    0.985793 0.756671 0.435236 0.128370
H9    H     H_    0.857870 0.939589 0.530017 0.144024
H10   H     H_    0.033080 0.980576 0.458997 0.148468
H11   H     H_    0.032669 0.972407 0.647528 0.173538
H12   H     H_    0.268322 0.439918 0.843583 0.147561
H13   H     H_    0.151239 0.934430 0.910740 0.134279
H14   H     H_    0.344240 0.967777 0.987105 0.108321
H15   H     H_    0.226211 0.703398 0.921056 0.203692
H16   H     H_    0.404402 0.749360 0.023664 0.161993
H17   H     H_    0.249565 0.850358 0.200671 0.156221
H18   H     H_    0.211594 0.687809 0.179690 0.185695
H19   H     H_    0.073618 0.797348 0.097266 0.126905
H20   H     H_    0.851695 0.607121 0.917353 0.148557
H21   H     H_    0.678100 0.710222 0.893421 0.130268
H22   H     H_    0.849204 0.610936 0.167063 0.122143
H23   H     H_    0.674139 0.713045 0.145351 0.133474
H24   H     H_    0.539983 0.110595 0.277388 0.133637
H25   H     H_    0.540967 0.885938 0.279123 0.128689
H26   H     H_    0.555198 0.893117 0.844114 0.086683
N1    N     N_R   0.500980 0.500930 0.148050 -0.232912
N2    N     N_R   0.500990 0.500890 0.852140 -0.232291
O1    O     O_R   0.500000 0.319640 0.618810 -0.505843
O2    O     O_3   0.311813 0.886340 0.781341 -0.562205
O3    O     O_R   0.500020 0.319680 0.381230 -0.504849
O4    O     O_R   0.274830 0.499980 0.591380 -0.449073
O5    O     O_R   0.274850 0.500020 0.353800 -0.534041
O6    O     O_R   0.499980 0.680320 0.618770 -0.484450
O7    O     O_R   0.500000 0.680360 0.381190 -0.515182
O8    O     O_R   0.725150 0.499980 0.646200 -0.493195
O9    O     O_R   0.725170 0.500020 0.408620 -0.529936
O10   O     O_3   0.027668 0.598595 0.665310 -0.573336

loop_
_geom_bond_atom_site_label_1
_geom_bond_atom_site_label_2
_ccdc_geom_bond_type
C6    O7    A    
C14   H6    S    
C19   H17   S    
C22   O2    S    
Cu1   O6    S    
C18   H16   S    
C10   C23   S    
C7    O9    A    
C13   H24   S    
C6    C20   S    
C3    H20   S    
C12   H25   S    
C1    C11   S    
C17   O2    S    
C4    C8    S    
C26   H12   S    
Cu2   O5    S    
C6    O6    A    
C25   H4    S    
C17   C18   S    
C3    H21   S    
C19   H18   S    
C22   H26   S    
C2    N2    A    
C21   C22   S    
C20   C21   A    
C24   N1    A    
C11   C13   A    
C4    O4    A    
C5    C24   S    
C12   C20   A    
C14   H5    S    
C8    H1    S    
C15   H7    S    
Cu2   N1    S    
Cu2   O9    S    
C1    O1    A    
Cu1   O4    S    
C1    O3    A    
C10   C21   A    
C2    C24   A    
C14   C15   S    
C7    O8    A    
C17   H13   S    
C5    H22   S    
Cu2   O3    S    
C10   C11   A    
C16   H11   S    
C15   C16   S    
C23   H2    S    
C15   H8    S    
C17   H14   S    
Cu1   O8    S    
C12   C13   A    
C14   O10   S    
C18   C19   S    
Cu1   O1    S    
C19   H19   S    
C18   H15   S    
Cu1   Cu2   S    
C7    C9    S    
Cu2   O7    S    
Cu1   N2    S    
C5    H23   S    
C2    C3    S    
C23   H3    S    
C25   C26   A    
C9    O10   S    
C4    O5    A    
C22   C23   S    
C25   N1    A    
C16   H9    S    
C16   H10   S    
C8    C9    D    
C3    C5    S    
C26   N2    A    
