data_mof_unit_41796.cif
_audit_creation_date              2012-12-11T15:48:04-0500
_audit_creation_method            fapswitch 2.2
_symmetry_space_group_name_H-M    P1
_symmetry_Int_Tables_number       1
_space_group_crystal_system       triclinic
_cell_length_a                    6.928155
_cell_length_b                    17.604501
_cell_length_c                    19.452888
_cell_angle_alpha                 108.530662
_cell_angle_beta                  89.598864
_cell_angle_gamma                 90.542619
_cell_volume                      2249.47321725

loop_
_atom_site_label
_atom_site_type_symbol
_atom_type_description
_atom_site_fract_x
_atom_site_fract_y
_atom_site_fract_z
_atom_type_partial_charge
O1    O     O_R   0.494330 0.415710 0.413720 -0.540717
O2    O     O_R   0.819360 0.430070 0.560210 -0.544078
O3    O     O_R   0.994320 0.584290 0.586280 -0.540272
C1    C     C_R   0.650142 0.414298 0.581315 0.710299
O4    O     O_R   0.823740 0.406290 0.412670 -0.544579
O5    O     O_R   0.998730 0.560340 0.437690 -0.539209
C2    C     C_R   0.654744 0.383093 0.384678 0.686121
O6    O     O_R   0.489920 0.439660 0.562310 -0.538912
O7    O     O_3   0.662330 0.550570 0.508380 -0.369022
V1    V     V_3+5 0.935370 0.490620 0.498440 1.402436
O8    O     O_R   0.328720 0.569930 0.439790 -0.543345
C3    C     C_R   0.160622 0.585300 0.418305 0.710070
O9    O     O_R   0.324340 0.593710 0.587330 -0.544438
C4    C     C_R   0.155195 0.616900 0.615319 0.686894
V2    V     V_3+5 0.435940 0.509380 0.501560 1.402417
O10   O     O_3   0.159110 0.449430 0.491620 -0.369382
C5    C     C_R   0.312363 0.723793 0.718619 -0.153964
H1    H     H_    0.453319 0.704653 0.695572 0.116862
C6    C     C_R   0.301114 0.787577 0.783574 -0.146444
H2    H     H_    0.434003 0.815719 0.808438 0.119032
C7    C     C_R   0.121220 0.814666 0.815844 -0.046766
C8    C     C_R   0.952901 0.776197 0.781262 -0.154711
H3    H     H_    0.811935 0.795333 0.804301 0.116338
C9    C     C_R   0.964148 0.712418 0.716312 -0.147308
H4    H     H_    0.831246 0.684284 0.691453 0.118511
C10   C     C_R   0.144036 0.685313 0.684049 -0.046602
C11   C     C_R   0.991831 0.631209 0.325103 -0.219828
C12   C     C_R   0.152771 0.635518 0.369649 -0.070603
C13   C     C_R   0.306530 0.687472 0.367318 -0.221193
C14   C     C_R   0.300579 0.736618 0.322172 0.006003
C15   C     C_R   0.139019 0.729346 0.275882 0.083665
C16   C     C_R   0.985084 0.676583 0.277610 0.122975
C17   C     C_R   0.450701 0.792229 0.321099 -0.026086
C18   C     C_R   0.440472 0.835335 0.271330 -0.165211
C19   C     C_R   0.282756 0.827078 0.224903 0.044156
C20   C     C_R   0.130064 0.774929 0.227765 0.076704
C21   C     C_R   0.967907 0.768390 0.182435 0.116858
C22   C     C_R   0.817020 0.715680 0.184848 -0.174324
C23   C     C_R   0.825807 0.670032 0.231800 -0.185252
C24   C     C_R   0.274401 0.871493 0.176392 -0.199862
C25   C     C_R   0.112691 0.866090 0.131629 -0.081652
C26   C     C_R   0.959225 0.814630 0.135429 -0.221195
H5    H     H_    0.872936 0.591122 0.326271 0.119236
H6    H     H_    0.429746 0.688425 0.401112 0.114549
H7    H     H_    0.555165 0.876994 0.269472 0.170462
H8    H     H_    0.392643 0.911599 0.174522 0.126195
H9    H     H_    0.834027 0.809731 0.101113 0.124884
H10   H     H_    0.691553 0.709934 0.150557 0.124316
H11   H     H_    0.706668 0.630050 0.232798 0.120307
C27   C     C_R   0.469843 0.186170 0.867630 -0.218535
C28   C     C_R   0.623874 0.135391 0.869731 -0.081308
C29   C     C_R   0.783335 0.130976 0.823565 -0.203473
C30   C     C_R   0.788007 0.175367 0.774881 0.046163
C31   C     C_R   0.634217 0.226522 0.773468 0.070737
C32   C     C_R   0.474862 0.232259 0.820524 0.109777
C33   C     C_R   0.943694 0.168463 0.727208 -0.159457
C34   C     C_R   0.951504 0.212117 0.677767 -0.029266
C35   C     C_R   0.797863 0.265333 0.676993 0.005417
C36   C     C_R   0.639001 0.271766 0.724991 0.079866
C37   C     C_R   0.483467 0.323294 0.724596 0.118965
C38   C     C_R   0.327448 0.329226 0.772375 -0.195246
C39   C     C_R   0.322726 0.283847 0.819624 -0.184056
C40   C     C_R   0.796187 0.312097 0.629822 -0.212714
C41   C     C_R   0.642249 0.363630 0.629528 -0.069328
C42   C     C_R   0.485546 0.368168 0.676561 -0.227413
H12   H     H_    0.346292 0.190357 0.903136 0.125857
H13   H     H_    0.901957 0.091502 0.824307 0.125840
H14   H     H_    0.060823 0.128689 0.728940 0.170893
H15   H     H_    0.912569 0.309096 0.592117 0.114321
H16   H     H_    0.366611 0.407841 0.676759 0.118357
H17   H     H_    0.207424 0.368324 0.772545 0.122359
H18   H     H_    0.199360 0.288883 0.855317 0.126951
C43   C     C_R   0.811670 0.276354 0.281560 -0.153362
H19   H     H_    0.952440 0.295607 0.304752 0.117045
C44   C     C_R   0.800589 0.212572 0.216600 -0.146780
H20   H     H_    0.933351 0.184544 0.191878 0.119069
C45   C     C_R   0.620992 0.185339 0.184148 -0.046599
C46   C     C_R   0.452772 0.223657 0.218548 -0.154333
H21   H     H_    0.312010 0.204395 0.195353 0.116461
C47   C     C_R   0.463854 0.287444 0.283513 -0.147696
H22   H     H_    0.331103 0.315475 0.308243 0.118242
C48   C     C_R   0.643463 0.314688 0.315952 -0.046333
O11   O     O_R   0.774940 0.060470 0.937800 -0.539838
O12   O     O_R   0.440880 0.093730 0.087350 -0.544732
O13   O     O_R   0.266130 0.939630 0.062280 -0.540292
C49   C     C_R   0.609811 0.116960 0.115398 0.685917
O14   O     O_R   0.445480 0.069960 0.939820 -0.542458
O15   O     O_R   0.270770 0.915690 0.913690 -0.540144
C50   C     C_R   0.614770 0.085522 0.918549 0.712349
O16   O     O_R   0.770300 0.084410 0.086380 -0.540719
O17   O     O_3   0.602600 0.949510 0.991670 -0.369810
V3    V     V_3+5 0.329470 0.009370 0.001550 1.402645
O18   O     O_R   0.940760 0.906160 0.912560 -0.544974
C51   C     C_R   0.109966 0.883047 0.884597 0.686167
O19   O     O_R   0.936150 0.929930 0.060100 -0.541792
C52   C     C_R   0.104278 0.914905 0.081848 0.711832
V4    V     V_3+5 0.828930 0.990450 0.998310 1.403007
O20   O     O_3   0.105670 0.050490 0.008320 -0.369928
C53   C     C_2   0.122706 0.200448 0.628561 0.411593
H23   H     H_    0.151938 0.238779 0.595975 0.036925
O21   O     O_2   0.237994 0.147062 0.624372 -0.518081
C54   C     C_2   0.616579 0.809068 0.372364 0.407725
H24   H     H_    0.617886 0.788349 0.419034 0.041217
O22   O     O_2   0.755390 0.848427 0.363721 -0.521363

loop_
_geom_bond_atom_site_label_1
_geom_bond_atom_site_label_2
_ccdc_geom_bond_type
O18   C51   A    
C43   H19   S    
O19   C52   A    
C1    O6    A    
V4    O20   S    
V3    O20   S    
C45   C46   A    
C24   H8    S    
C13   C14   A    
C3    C12   S    
C5    C10   A    
C7    C8    A    
C12   C13   A    
C6    C7    A    
O12   C49   A    
C15   C20   A    
O5    C3    A    
C14   C15   A    
O13   C52   A    
C46   C47   A    
C25   C52   S    
C7    C51   S    
C42   H16   S    
C34   C53   S    
C32   C39   A    
C33   C34   A    
C18   C19   A    
C25   C26   A    
C16   C23   A    
C21   C26   A    
O8    V2    S    
O15   V3    S    
O1    V2    S    
O7    V1    S    
O16   V4    S    
C22   H10   S    
C38   H17   S    
C36   C37   A    
O14   V3    S    
C43   C44   A    
C38   C39   A    
O13   V3    S    
C27   C28   A    
C31   C36   A    
O11   C50   A    
O15   C51   A    
C28   C29   A    
C40   H15   S    
C9    H4    S    
C47   C48   A    
C49   O16   A    
O17   V3    S    
O4    C2    A    
C46   H21   S    
C35   C36   A    
C33   H14   S    
O17   V4    S    
C17   C54   S    
C37   C38   A    
C19   C20   A    
O2    C1    A    
C44   H20   S    
O5    V1    S    
C21   C22   A    
C27   H12   S    
C53   H23   S    
C5    H1    S    
C39   H18   S    
C18   H7    S    
C4    C10   S    
C54   O22   D    
C44   C45   A    
O3    C4    A    
C24   C25   A    
C53   O21   D    
C45   C49   S    
O6    V2    S    
O14   C50   A    
C13   H6    S    
C8    C9    A    
O2    V1    S    
O18   V4    S    
C43   C48   A    
C29   C30   A    
C30   C33   A    
C35   C40   A    
C31   C32   A    
C20   C21   A    
C14   C17   A    
C23   H11   S    
C11   C16   A    
O1    C2    A    
C15   C16   A    
C9    C10   A    
C47   H22   S    
C37   C42   A    
O8    C3    A    
O19   V4    S    
C30   C31   A    
C1    C41   S    
C27   C32   A    
C41   C42   A    
C6    H2    S    
O9    V2    S    
C19   C24   A    
O7    V2    S    
O4    V1    S    
O3    V1    S    
V1    O10   S    
C28   C50   S    
C34   C35   A    
C22   C23   A    
C29   H13   S    
C5    C6    A    
C17   C18   A    
C26   H9    S    
C54   H24   S    
C40   C41   A    
C11   H5    S    
C2    C48   S    
O11   V4    S    
C11   C12   A    
C8    H3    S    
O12   V3    S    
O9    C4    A    
V2    O10   S    
