data_mof_unit_39673.cif
_audit_creation_date              2012-10-26T18:41:05-0400
_audit_creation_method            fapswitch 2.2
_symmetry_space_group_name_H-M    P1
_symmetry_Int_Tables_number       1
_space_group_crystal_system       triclinic
_cell_length_a                    19.420659
_cell_length_b                    18.13905
_cell_length_c                    10.891982
_cell_angle_alpha                 90.005686
_cell_angle_beta                  90.223667
_cell_angle_gamma                 89.947144
_cell_volume                      3836.91271527

loop_
_atom_site_label
_atom_site_type_symbol
_atom_type_description
_atom_site_fract_x
_atom_site_fract_y
_atom_site_fract_z
_atom_type_partial_charge
C1    C     C_R   0.367436 0.500070 0.500412 0.554064
C2    C     C_R   0.291742 0.500105 0.502191 -0.031288
C3    C     C_R   0.963717 0.460938 0.427023 -0.183357
C4    C     C_R   0.035194 0.461424 0.425716 -0.192078
C5    C     C_R   0.072018 0.496735 0.519397 0.010583
C6    C     C_R   0.927870 0.495748 0.522012 0.016386
C7    C     C_R   0.036664 0.528842 0.619050 0.344431
C8    C     C_R   0.964370 0.528412 0.620602 0.336783
C9    C     C_R   0.440491 0.721470 0.477863 0.021948
C10   C     C_R   0.559488 0.721382 0.522208 0.021932
C11   C     C_R   0.438889 0.799499 0.476025 0.204118
C12   C     C_R   0.632563 0.499991 0.500304 0.554082
C13   C     C_R   0.561046 0.799399 0.524173 0.203985
C14   C     C_R   0.499961 0.839225 0.500114 0.032794
C15   C     C_R   0.495177 0.500545 0.262023 0.549481
C16   C     C_R   0.504825 0.500540 0.737976 0.548944
C17   C     C_R   0.529081 0.962116 0.598093 -0.080684
C18   C     C_R   0.470803 0.962140 0.402102 -0.080715
C19   C     C_R   0.530015 0.039812 0.598097 0.233779
C20   C     C_R   0.469886 0.039837 0.402041 0.233650
C21   C     C_R   0.499956 0.079450 0.500052 0.033571
C22   C     C_R   0.499949 0.922235 0.500104 0.002093
C23   C     C_R   0.852391 0.498520 0.515085 0.059721
C24   C     C_R   0.534242 0.201520 0.408017 -0.117739
C25   C     C_R   0.465709 0.201626 0.592016 -0.117843
C26   C     C_R   0.534044 0.278907 0.410152 0.034888
C27   C     C_R   0.465938 0.279010 0.589855 0.034772
C28   C     C_R   0.499968 0.161895 0.500024 0.067442
C29   C     C_R   0.470731 0.639086 0.115936 -0.125748
C30   C     C_R   0.529179 0.639048 0.884096 -0.125892
C31   C     C_R   0.485430 0.705900 0.058522 0.282136
C32   C     C_R   0.514411 0.705881 0.941503 0.282035
C33   C     C_R   0.510015 0.570914 0.937917 -0.030318
C34   C     C_R   0.147542 0.499416 0.511817 0.060522
C35   C     C_R   0.489946 0.570927 0.062100 -0.030297
C36   C     C_R   0.491045 0.502936 0.127533 0.002719
C37   C     C_R   0.508961 0.502926 0.872465 0.002499
C38   C     C_R   0.497053 0.436456 0.063204 -0.153369
C39   C     C_R   0.503000 0.436453 0.936773 -0.153678
C40   C     C_R   0.744115 0.432769 0.510367 -0.154816
C41   C     C_R   0.255651 0.433250 0.502098 -0.153670
C42   C     C_R   0.815579 0.432216 0.515153 -0.196730
C43   C     C_R   0.184215 0.432977 0.507258 -0.195563
C44   C     C_3   0.342367 0.817418 0.356166 -0.145174
C45   C     C_R   0.817552 0.566546 0.509410 0.317000
C46   C     C_3   0.657282 0.817448 0.644525 -0.145398
C47   C     C_3   0.630264 0.079003 0.682389 -0.114621
C48   C     C_3   0.369650 0.079419 0.317994 -0.114343
C49   C     C_3   0.530873 0.793798 0.180788 -0.096510
C50   C     C_3   0.468898 0.793845 0.819299 -0.095933
C51   C     C_3   0.828394 0.688178 0.572790 -0.087316
C52   C     C_3   0.171181 0.687709 0.435157 -0.114583
C53   C     C_3   0.093091 0.512521 0.800050 -0.109441
C54   C     C_3   0.899192 0.511816 0.793215 -0.128572
C55   C     C_R   0.182489 0.567381 0.506975 0.326296
C56   C     C_R   0.745062 0.566348 0.501312 -0.134909
C57   C     C_R   0.255139 0.566904 0.505516 -0.130072
C58   C     C_R   0.708239 0.499748 0.503713 -0.031316
Cu1   Cu    Cu3+1 0.500000 0.573360 0.500000 0.913607
Cu2   Cu    Cu3+1 0.500000 0.426640 0.500000 0.937926
H1    H     H_    0.561543 0.172776 0.335894 0.120914
H2    H     H_    0.684080 0.763783 0.634058 0.094725
H3    H     H_    0.622113 0.816164 0.724851 0.164831
H4    H     H_    0.697239 0.859531 0.664126 0.137535
H5    H     H_    0.551285 0.933185 0.675515 0.146622
H6    H     H_    0.448558 0.933223 0.324732 0.147049
H7    H     H_    0.644938 0.106930 0.595261 0.114315
H8    H     H_    0.652874 0.022638 0.686316 0.121359
H9    H     H_    0.652772 0.111264 0.759165 0.141997
H10   H     H_    0.355152 0.107586 0.405036 0.114420
H11   H     H_    0.346896 0.023155 0.314446 0.121534
H12   H     H_    0.438394 0.172966 0.664148 0.120868
H13   H     H_    0.347129 0.111637 0.241140 0.142262
H14   H     H_    0.561270 0.308985 0.339730 0.121821
H15   H     H_    0.438717 0.309169 0.660262 0.121497
H16   H     H_    0.442733 0.642354 0.201131 0.156003
H17   H     H_    0.557191 0.642278 0.798918 0.155921
H18   H     H_    0.574847 0.802705 0.117243 0.159978
H19   H     H_    0.545228 0.753185 0.253079 0.122262
H20   H     H_    0.520502 0.847088 0.226507 0.137050
H21   H     H_    0.424938 0.802829 0.882883 0.160730
H22   H     H_    0.454536 0.753245 0.747022 0.122783
H23   H     H_    0.496665 0.383946 0.110582 0.135233
H24   H     H_    0.479239 0.847114 0.773568 0.136916
H25   H     H_    0.717006 0.380628 0.512006 0.140754
H26   H     H_    0.282600 0.380974 0.499550 0.140042
H27   H     H_    0.842414 0.379907 0.520457 0.111447
H28   H     H_    0.157307 0.380692 0.509429 0.110878
H29   H     H_    0.808549 0.668242 0.662751 0.118471
H30   H     H_    0.787655 0.717847 0.520767 0.106207
H31   H     H_    0.869846 0.728500 0.592814 0.165130
H32   H     H_    0.189907 0.665701 0.345769 0.093436
H33   H     H_    0.212561 0.718203 0.484041 0.122611
H34   H     H_    0.503425 0.383941 0.889379 0.135107
H35   H     H_    0.129665 0.727883 0.414295 0.155798
H36   H     H_    0.717394 0.617796 0.491775 0.111229
H37   H     H_    0.283208 0.618320 0.508290 0.110692
H38   H     H_    0.936133 0.435155 0.351788 0.128822
H39   H     H_    0.061947 0.435891 0.349634 0.126356
H40   H     H_    0.128208 0.470418 0.760316 0.097851
H41   H     H_    0.048078 0.485296 0.843388 0.103015
H42   H     H_    0.121911 0.541559 0.873645 0.150353
H43   H     H_    0.895770 0.535694 0.886748 0.148020
H44   H     H_    0.928401 0.459055 0.801183 0.073729
H45   H     H_    0.393416 0.691413 0.463320 0.134825
H46   H     H_    0.845821 0.500507 0.761861 0.123312
H47   H     H_    0.606592 0.691277 0.536706 0.134953
H48   H     H_    0.315218 0.764085 0.367625 0.095454
H49   H     H_    0.377397 0.815331 0.275683 0.164610
H50   H     H_    0.302669 0.859782 0.336110 0.137968
N1    N     N_R   0.500000 0.683620 0.500000 -0.286447
N2    N     N_R   0.500000 0.316380 0.500000 -0.224065
O1    O     O_R   0.400190 0.561980 0.499980 -0.518065
O2    O     O_3   0.622733 0.837500 0.535244 -0.582183
O3    O     O_3   0.558188 0.077111 0.696824 -0.565670
O4    O     O_3   0.441701 0.077146 0.303291 -0.565685
O5    O     O_3   0.471034 0.771506 0.117157 -0.587621
O6    O     O_3   0.528761 0.771465 0.882878 -0.588063
O7    O     O_3   0.856303 0.630844 0.500752 -0.534337
O8    O     O_3   0.143889 0.632112 0.511419 -0.516389
O9    O     O_3   0.072181 0.564817 0.711651 -0.492051
O10   O     O_3   0.930797 0.564121 0.715591 -0.521344
O11   O     O_R   0.599810 0.561980 0.500020 -0.518202
O12   O     O_R   0.400190 0.438070 0.500040 -0.498951
O13   O     O_R   0.599810 0.438070 0.499960 -0.499150
O14   O     O_R   0.500000 0.561970 0.319650 -0.506499
O15   O     O_R   0.500000 0.561970 0.680350 -0.506377
O16   O     O_R   0.500010 0.438060 0.319710 -0.509319
O17   O     O_R   0.499990 0.438060 0.680290 -0.509880
O18   O     O_3   0.377201 0.837734 0.464995 -0.581613

loop_
_geom_bond_atom_site_label_1
_geom_bond_atom_site_label_2
_ccdc_geom_bond_type
C9    N1    A    
C24   H1    S    
C23   C45   A    
C38   H23   S    
C47   H8    S    
C35   C36   A    
C3    C6    A    
C2    C57   A    
C50   H24   S    
C7    C8    A    
C29   H16   S    
C25   C28   A    
C47   O3    S    
C41   H26   S    
C23   C42   A    
C46   H2    S    
C43   H28   S    
C54   H44   S    
Cu2   O13   S    
C19   C21   A    
C24   C26   A    
C51   H30   S    
C38   C39   A    
C33   C35   A    
C11   C14   A    
C2    C41   A    
C9    H45   S    
C49   H18   S    
C52   H35   S    
C1    C2    S    
Cu2   O12   S    
C31   O5    S    
C51   H31   S    
C30   H17   S    
C47   H9    S    
C45   C56   A    
C53   H41   S    
C15   O14   A    
C51   O7    S    
C13   O2    S    
C16   C37   S    
C48   O4    S    
C12   C58   S    
C44   H49   S    
C45   O7    S    
C40   C42   A    
C54   O10   S    
C34   C55   A    
C18   C22   A    
C13   C14   A    
C41   C43   A    
C10   H47   S    
C1    O1    A    
C7    O9    S    
C27   H15   S    
C47   H7    S    
C55   O8    S    
C44   H48   S    
C53   H40   S    
Cu1   O11   S    
C49   O5    S    
C40   C58   A    
C46   O2    S    
C54   H43   S    
Cu2   O16   S    
C48   H10   S    
C5    C7    A    
C54   H46   S    
C17   C19   A    
C6    C8    A    
C12   O13   A    
C33   C37   A    
C49   H19   S    
C46   H4    S    
Cu1   O14   S    
C40   H25   S    
C44   O18   S    
C39   H34   S    
Cu2   N2    S    
Cu1   N1    S    
C31   C32   A    
C19   O3    S    
C53   H42   S    
Cu1   O1    S    
C57   H37   S    
C5    C34   S    
C10   N1    A    
C25   H12   S    
C16   O17   A    
C9    C11   A    
C52   O8    S    
C21   C28   S    
C27   N2    A    
C15   O16   A    
C55   C57   A    
C52   H32   S    
C18   H6    S    
C48   H11   S    
C3    C4    A    
C11   O18   S    
C26   N2    A    
C15   C36   S    
C50   H22   S    
C20   O4    S    
C56   H36   S    
C30   C33   A    
C50   O6    S    
C48   H13   S    
C34   C43   A    
C24   C28   A    
C32   O6    S    
C4    C5    A    
C10   C13   A    
Cu2   O17   S    
C25   C27   A    
C29   C35   A    
C17   H5    S    
C17   C22   A    
C49   H20   S    
C52   H33   S    
C46   H3    S    
C14   C22   S    
C36   C38   A    
C1    O12   A    
C37   C39   A    
C53   O9    S    
C51   H29   S    
C30   C32   A    
C3    H38   S    
C8    O10   S    
C12   O11   A    
C6    C23   S    
C26   H14   S    
C56   C58   A    
C18   C20   A    
C16   O15   A    
Cu1   Cu2   S    
C20   C21   A    
C29   C31   A    
C4    H39   S    
C42   H27   S    
Cu1   O15   S    
C50   H21   S    
C44   H50   S    
