data_mof_unit_63197.cif
_audit_creation_date              2012-12-10T16:44:53-0500
_audit_creation_method            fapswitch 2.2
_symmetry_space_group_name_H-M    P1
_symmetry_Int_Tables_number       1
_space_group_crystal_system       triclinic
_cell_length_a                    18.47921
_cell_length_b                    18.409753
_cell_length_c                    18.422167
_cell_angle_alpha                 119.65486
_cell_angle_beta                  119.679124
_cell_angle_gamma                 90.480098
_cell_volume                      4457.4448152

loop_
_atom_site_label
_atom_site_type_symbol
_atom_type_description
_atom_site_fract_x
_atom_site_fract_y
_atom_site_fract_z
_atom_type_partial_charge
C1    C     C_R   0.138351 0.361336 0.998567 0.518836
C2    C     C_R   0.911406 0.168907 0.136509 -0.105894
C3    C     C_R   0.965159 0.222041 0.136483 -0.100071
C4    C     C_R   0.860210 0.637301 0.998696 0.543188
C5    C     C_R   0.929924 0.266576 0.091200 -0.076939
C6    C     C_2   0.715231 0.771332 0.937701 -0.061912
C7    C     C_2   0.708027 0.821453 0.015502 0.289324
C8    C     C_2   0.780759 0.726088 0.945921 0.352406
C9    C     C_2   0.794797 0.681648 0.988959 0.427351
C10   C     C_2   0.726853 0.282098 0.444461 0.383051
C11   C     C_2   0.703995 0.193274 0.387348 -0.036990
C12   C     C_R   0.564311 0.231140 0.899658 0.291276
C13   C     C_2   0.794663 0.334566 0.556041 0.268682
C14   C     C_2   0.794072 0.306334 0.611131 0.247796
C15   C     C_2   0.334358 0.278938 0.050456 -0.094050
C16   C     C_R   0.138379 0.638343 0.277111 0.531207
C17   C     C_2   0.305640 0.192356 0.010199 0.447689
C18   C     C_2   0.278807 0.334647 0.059774 -0.101914
C19   C     C_2   0.191933 0.305026 0.987161 0.446759
C20   C     C_2   0.219856 0.761247 0.924537 -0.155409
C21   C     C_2   0.307678 0.794038 0.990818 -0.133631
C22   C     C_2   0.166070 0.693623 0.915088 0.255320
C23   C     C_R   0.656365 0.240506 0.950673 0.016858
C24   C     C_2   0.193097 0.696260 0.999275 -0.037463
C25   C     C_2   0.219639 0.777685 0.557104 -0.118744
C26   C     C_2   0.308069 0.809837 0.612411 -0.158114
C27   C     C_2   0.162612 0.725276 0.444983 0.356725
C28   C     C_R   0.860039 0.361228 0.722487 0.553504
C29   C     C_2   0.194535 0.690912 0.388010 -0.056203
C30   C     C_R   0.639742 0.138604 0.277183 0.525573
C31   C     C_R   0.361757 0.861872 0.723016 0.503057
C32   C     C_R   0.640225 0.863185 0.001791 0.499886
C33   C     C_R   0.361568 0.138463 0.001170 0.531435
C34   C     C_R   0.712556 0.295688 0.952732 -0.027208
C35   C     C_R   0.360691 0.858885 0.998917 0.524011
C36   C     C_R   0.639303 0.139850 0.999413 0.548492
C37   C     C_R   0.139276 0.638824 0.998739 0.541032
C38   C     C_R   0.860081 0.360071 0.999934 0.477305
C39   C     C_R   0.676881 0.341304 0.907139 -0.094807
C40   C     C_R   0.588327 0.333998 0.861767 -0.149971
C41   C     C_R   0.532672 0.279999 0.858653 -0.087968
C42   C     C_3   0.826836 0.922060 0.178717 -0.092569
C43   C     C_3   0.834802 0.473508 0.593095 -0.031159
C44   C     C_3   0.743775 0.174102 0.585117 -0.104150
C45   C     C_R   0.693782 0.195745 0.997712 0.014649
C46   C     C_3   0.089182 0.598970 0.739345 -0.102803
C47   C     C_3   0.451078 0.101100 0.794765 -0.104429
C48   C     C_R   0.784399 0.204078 0.043808 -0.000303
C49   C     C_R   0.839209 0.258181 0.044048 0.016440
C50   C     C_R   0.803047 0.303806 0.998986 0.021024
C51   C     C_R   0.822153 0.159992 0.091170 -0.087755
F1    F     F_    0.825144 0.728610 0.905868 -0.627507
F2    F     F_    0.743428 0.670908 0.018610 -0.601205
F3    F     F_    0.689438 0.325270 0.400662 -0.624296
F4    F     F_    0.225762 0.153047 0.983437 -0.557668
F5    F     F_    0.152003 0.223904 0.896655 -0.556698
F6    F     F_    0.074458 0.711274 0.400172 -0.579926
H1    H     H_    0.034573 0.229132 0.172098 0.129769
H2    H     H_    0.343574 0.800448 0.577936 0.104924
H3    H     H_    0.263968 0.699111 0.421851 0.048399
H4    H     H_    0.562621 0.370373 0.828527 0.141597
H5    H     H_    0.463885 0.275559 0.823559 0.131281
H6    H     H_    0.783506 0.118439 0.094177 0.106270
H7    H     H_    0.939003 0.134647 0.172133 0.116534
H8    H     H_    0.974716 0.307842 0.094105 0.121623
H9    H     H_    0.674563 0.766334 0.866995 0.121707
H10   H     H_    0.794431 0.972976 0.195261 0.108813
H11   H     H_    0.863765 0.932903 0.150117 0.102843
H12   H     H_    0.736072 0.159287 0.422037 0.068914
H13   H     H_    0.875751 0.930900 0.251753 0.167259
H14   H     H_    0.777431 0.479541 0.598622 0.157904
H15   H     H_    0.818536 0.462524 0.521018 0.180779
H16   H     H_    0.888929 0.538124 0.656957 0.168893
H17   H     H_    0.751600 0.191444 0.656126 0.170903
H18   H     H_    0.804274 0.163597 0.588112 0.126728
H19   H     H_    0.689010 0.109840 0.521567 0.148964
H20   H     H_    0.150020 0.581133 0.753164 0.116675
H21   H     H_    0.084475 0.646534 0.718122 0.125773
H22   H     H_    0.031913 0.537229 0.673137 0.164773
H23   H     H_    0.401586 0.311027 0.080611 0.109120
H24   H     H_    0.491020 0.064739 0.769979 0.125549
H25   H     H_    0.405997 0.115795 0.739646 0.111740
H26   H     H_    0.409327 0.056562 0.793843 0.142478
H27   H     H_    0.311243 0.402727 0.127002 0.097220
H28   H     H_    0.716987 0.383481 0.906150 0.137940
H29   H     H_    0.186376 0.782776 0.874856 0.171589
H30   H     H_    0.342740 0.769301 0.036443 0.111844
H31   H     H_    0.255101 0.743412 0.072197 0.056343
H32   H     H_    0.186563 0.791403 0.595156 0.192595
O1    O     O_3   0.000000 0.500000 0.000000 -0.481383
O2    O     O_R   0.325040 0.054120 0.939900 -0.489903
O3    O     O_R   0.444330 0.884140 0.060080 -0.529963
O4    O     O_R   0.054210 0.325030 0.939940 -0.490483
O5    O     O_R   0.615830 0.175840 0.060080 -0.491710
O6    O     O_R   0.324160 0.884140 0.939910 -0.534468
O7    O     O_R   0.615850 0.055700 0.939930 -0.552241
O8    O     O_R   0.614980 0.885710 0.939940 -0.577129
O9    O     O_R   0.445830 0.174930 0.060060 -0.556692
O10   O     O_R   0.614300 0.054120 0.229160 -0.556728
O11   O     O_R   0.325070 0.885060 0.770830 -0.538949
O12   O     O_R   0.054160 0.614240 0.229150 -0.454434
O13   O     O_R   0.885070 0.614240 0.060060 -0.499327
O14   O     O_R   0.174980 0.614900 0.229170 -0.557900
O15   O     O_R   0.885740 0.445830 0.770840 -0.509329
O16   O     O_R   0.175880 0.615810 0.060090 -0.552817
O17   O     O_R   0.884210 0.324110 0.939920 -0.550631
O18   O     O_R   0.055710 0.615810 0.939920 -0.466797
O19   O     O_R   0.884190 0.444260 0.060070 -0.526426
O20   O     O_3   0.765002 0.835442 0.109591 -0.491223
O21   O     O_3   0.865268 0.406395 0.602041 -0.587978
O22   O     O_3   0.719861 0.238658 0.566302 -0.620098
O23   O     O_R   0.885120 0.325030 0.770840 -0.561498
O24   O     O_3   0.084564 0.633090 0.823929 -0.524025
O25   O     O_3   0.505345 0.179114 0.894788 -0.561910
O26   O     O_R   0.175010 0.445830 0.060100 -0.583810
O27   O     O_R   0.885710 0.614900 0.939900 -0.513788
O28   O     O_3   0.500040 0.999960 0.000000 -0.467631
O29   O     O_R   0.614930 0.174930 0.229160 -0.465448
O30   O     O_R   0.445880 0.885710 0.770850 -0.538687
O31   O     O_R   0.614330 0.885060 0.060100 -0.505232
Zn1   Zn    Zn3+2 0.956610 0.542450 0.085830 1.009210
Zn2   Zn    Zn3+2 0.129220 0.543380 0.085850 0.933746
Zn3   Zn    Zn3+2 0.957530 0.543380 0.914160 1.012204
Zn4   Zn    Zn3+2 0.956640 0.370790 0.914170 0.953677
Zn5   Zn    Zn3+2 0.543440 0.957510 0.914170 0.927619
Zn6   Zn    Zn3+2 0.542510 0.956570 0.085840 0.959489
Zn7   Zn    Zn3+2 0.370820 0.956570 0.914150 0.980007
Zn8   Zn    Zn3+2 0.543410 0.129170 0.085830 1.009823

loop_
_geom_bond_atom_site_label_1
_geom_bond_atom_site_label_2
_ccdc_geom_bond_type
C19   F5    S    
C43   H16   S    
C47   O25   S    
C21   H30   S    
C43   H15   S    
C23   C45   A    
O27   Zn3   S    
C27   C29   D    
O11   Zn7   S    
O1    Zn3   S    
C15   C18   S    
O4    Zn4   S    
O18   Zn3   S    
O19   Zn1   S    
O15   Zn3   S    
C28   O23   A    
C12   C23   A    
C13   O21   S    
O2    Zn7   S    
C42   O20   S    
C37   O18   A    
C33   O2    A    
C46   H22   S    
O31   Zn6   S    
C42   H13   S    
C32   O8    A    
C33   O9    A    
C47   H25   S    
C44   H19   S    
C28   O15   A    
O29   Zn8   S    
C48   C51   A    
C11   C30   S    
C8    C9    D    
C4    O13   A    
O16   Zn2   S    
C18   H27   S    
C43   O21   S    
C47   H26   S    
O13   Zn1   S    
C26   H2    S    
C8    F1    S    
C35   O3    A    
O9    Zn8   S    
C26   C31   S    
O26   Zn2   S    
C13   C14   D    
C42   H11   S    
O1    Zn2   S    
C5    C49   A    
C17   C33   S    
C41   H5    S    
C32   O31   A    
C2    H7    S    
O10   Zn6   S    
C12   O25   S    
C22   O24   S    
C14   O22   S    
C34   C50   A    
C1    C19   S    
C34   C39   A    
C51   H6    S    
C5    H8    S    
C27   F6    S    
C39   C40   A    
C46   H21   S    
C18   C19   D    
C6    C8    S    
C30   O29   A    
C16   C29   S    
C30   O10   A    
O12   Zn1   S    
C40   H4    S    
C7    O20   S    
C20   H29   S    
C38   O17   A    
C44   H18   S    
C3    H1    S    
C37   O16   A    
C12   C41   A    
O6    Zn7   S    
C24   H31   S    
C36   O7    A    
C16   O14   A    
C15   H23   S    
C29   H3    S    
C23   C34   A    
C24   C37   S    
C36   C45   S    
C31   O11   A    
C44   H17   S    
O28   Zn7   S    
C31   O30   A    
C21   C35   S    
O30   Zn5   S    
O8    Zn5   S    
C48   C49   A    
C20   C22   S    
C35   O6    A    
C10   C11   D    
C42   H10   S    
O1    Zn1   S    
C22   C24   D    
C9    F2    S    
C39   H28   S    
O28   Zn6   S    
C45   C48   A    
C15   C17   D    
C17   F4    S    
C40   C41   A    
C43   H14   S    
C7    C32   S    
C46   O24   S    
O1    Zn4   S    
C4    O27   A    
C3    C5    A    
C10   C13   S    
O3    Zn6   S    
C46   H20   S    
C11   H12   S    
O23   Zn4   S    
C6    C7    D    
C38   C50   S    
O5    Zn8   S    
C25   C27   S    
C25   H32   S    
C2    C3    A    
C25   C26   D    
O7    Zn5   S    
C47   H24   S    
C38   O19   A    
C10   F3    S    
O28   Zn8   S    
C2    C51   A    
C44   O22   S    
C36   O5    A    
C16   O12   A    
C6    H9    S    
C20   C21   D    
C1    O4    A    
C49   C50   A    
O17   Zn4   S    
C1    O26   A    
C14   C28   S    
C4    C9    S    
O14   Zn2   S    
O28   Zn5   S    
