data_mof_unit_62721.cif
_audit_creation_date              2013-03-05T16:15:02-0500
_audit_creation_method            fapswitch 2.2
_symmetry_space_group_name_H-M    P1
_symmetry_Int_Tables_number       1
_space_group_crystal_system       triclinic
_cell_length_a                    13.366475
_cell_length_b                    14.260515
_cell_length_c                    16.776256
_cell_angle_alpha                 90.011242
_cell_angle_beta                  85.722173
_cell_angle_gamma                 90.009806
_cell_volume                      3188.86057242

loop_
_atom_site_label
_atom_site_type_symbol
_atom_site_description
_atom_site_fract_x
_atom_site_fract_y
_atom_site_fract_z
_atom_type_partial_charge
O1    O     O_R   0.423530 0.626280 0.499990 -0.596149
O2    O     O_R   0.576470 0.373720 0.500010 -0.595578
O3    O     O_R   0.576470 0.626280 0.500010 -0.590397
O4    O     O_R   0.423530 0.373720 0.499990 -0.592091
C1    C     C_R   0.500009 0.673458 0.499957 0.935147
C2    C     C_R   0.499994 0.326536 0.499988 0.927615
O5    O     O_R   0.414510 0.500000 0.615790 -0.610069
O6    O     O_R   0.585490 0.500000 0.384210 -0.604443
O7    O     O_R   0.567420 0.500000 0.615810 -0.610177
O8    O     O_R   0.432580 0.500000 0.384190 -0.611604
C3    C     C_R   0.487224 0.498169 0.655653 0.904189
C4    C     C_R   0.512672 0.502236 0.344152 0.893084
Zn1   Zn    Zn3+2 0.397910 0.500000 0.499990 0.964084
Zn2   Zn    Zn3+2 0.602090 0.500000 0.500010 0.968208
C5    C     C_R   0.479690 0.505774 0.742002 -0.099889
C6    C     C_R   0.519368 0.537580 0.262708 -0.091273
C7    C     C_R   0.563937 0.486967 0.784041 -0.211752
C8    C     C_R   0.437475 0.586842 0.235926 -0.214845
C9    C     C_R   0.560801 0.501841 0.866289 0.248662
C10   C     C_R   0.443028 0.626677 0.160091 0.236153
C11   C     C_R   0.471992 0.538732 0.905429 0.168421
C12   C     C_R   0.531017 0.613364 0.109538 0.177860
C13   C     C_R   0.386522 0.552764 0.863827 -0.212046
C14   C     C_R   0.615311 0.570472 0.138491 -0.204012
C15   C     C_R   0.390224 0.536374 0.782256 -0.204852
C16   C     C_R   0.609693 0.532942 0.215135 -0.208908
C17   C     C_2   0.464089 0.558424 0.990511 -0.218664
C18   C     C_2   0.527413 0.617040 0.023191 -0.232154
H1    H     H_    0.317585 0.578445 0.894344 0.147153
H2    H     H_    0.682780 0.559557 0.099632 0.145170
C19   C     C_1   0.500018 0.774098 0.499900 -0.228149
C20   C     C_1   0.499982 0.225888 0.499968 -0.230006
C21   C     C_1   0.500012 0.858658 0.499872 -0.005439
C22   C     C_1   0.499982 0.141325 0.499938 -0.006493
C23   C     C_1   0.499999 0.957712 0.499873 0.008868
C24   C     C_1   0.499989 0.042269 0.499897 0.008507
N1    N     N_1   0.738130 0.500000 0.500020 -0.064836
N2    N     N_1   0.261870 0.500000 0.499980 -0.065830
C25   C     C_1   0.830584 0.500004 0.500015 0.063612
C26   C     C_1   0.169416 0.500007 0.499984 0.061936
C27   C     C_1   0.950476 0.500009 0.500004 -0.051176
C28   C     C_1   0.049525 0.500011 0.499994 -0.050923
H3    H     H_    0.632163 0.461049 0.752543 0.154688
H4    H     H_    0.369078 0.595069 0.274288 0.165674
H5    H     H_    0.674493 0.497769 0.236272 0.156193
H6    H     H_    0.324327 0.550418 0.750309 0.161939
H7    H     H_    0.585938 0.653383 0.986957 0.160178
H8    H     H_    0.406742 0.521087 0.027405 0.168135
C29   C     C_3   0.353098 0.679186 0.134185 -0.947305
H9    H     H_    0.289076 0.630109 0.130666 0.239773
H10   H     H_    0.331620 0.734882 0.178476 0.245970
H11   H     H_    0.368364 0.713649 0.075241 0.257402
C30   C     C_3   0.650576 0.474940 0.910785 -0.935025
H12   H     H_    0.705870 0.433763 0.872434 0.237717
H13   H     H_    0.689415 0.538471 0.930713 0.235557
H14   H     H_    0.626491 0.430976 0.963385 0.252192

loop_
_geom_bond_atom_site_label_1
_geom_bond_atom_site_label_2
_geom_bond_distance
_ccdc_geom_bond_type
C17   H8    1.087824 S    
O5    C3    1.220465 A    
O7    Zn2   1.963288 S    
C19   C21   1.205871 T    
C18   H7    1.085863 S    
C10   C29   1.507598 S    
C8    H4    1.084445 S    
N1    C25   1.235783 T    
C27   C28   1.323934 T    
C22   C24   1.412591 S    
C23   C24   1.205824 T    
O6    C4    1.223763 A    
C29   H11   1.109543 S    
C9    C30   1.509382 S    
C7    H3    1.084252 S    
C11   C17   1.450774 S    
C25   C27   1.602508 S    
C12   C18   1.453919 S    
C30   H12   1.110894 S    
Zn2   N1    1.818389 S    
N2    C26   1.235778 T    
O7    C3    1.220496 A    
Zn1   N2    1.818389 S    
O2    C2    1.223722 A    
O3    Zn2   1.833147 S    
O8    C4    1.221052 A    
O1    C1    1.223656 A    
C13   H1    1.083954 S    
C26   C28   1.602503 S    
C21   C23   1.412563 S    
C10   C12   1.410579 A    
C29   H9    1.110375 S    
C8    C10   1.390300 A    
C30   H13   1.108011 S    
C11   C13   1.396915 A    
C6    C16   1.398292 A    
O2    Zn2   1.833033 S    
C12   C14   1.400562 A    
C5    C15   1.398599 A    
C14   H2    1.083880 S    
O1    Zn1   1.833031 S    
O3    C1    1.223736 A    
O5    Zn1   1.971696 S    
C13   C15   1.385475 A    
C6    C8    1.402611 A    
O4    C2    1.223748 A    
C30   H14   1.110480 S    
C17   C18   1.335858 D    
C5    C7    1.398590 A    
C7    C9    1.393518 A    
C2    C20   1.435297 S    
O6    Zn2   1.971696 S    
C16   H5    1.083325 S    
C29   H10   1.110570 S    
C9    C11   1.414507 A    
C3    C5    1.448653 S    
C15   H6    1.083370 S    
C4    C6    1.452898 S    
O4    Zn1   1.833148 S    
C14   C16   1.389670 A    
C1    C19   1.435173 S    
O8    Zn1   1.963288 S    
C20   C22   1.205911 T    
