data_mof_unit_37877.cif
_audit_creation_date              2012-12-10T17:57:26-0500
_audit_creation_method            fapswitch 2.2
_symmetry_space_group_name_H-M    P1
_symmetry_Int_Tables_number       1
_space_group_crystal_system       triclinic
_cell_length_a                    9.639879
_cell_length_b                    10.93439
_cell_length_c                    13.528026
_cell_angle_alpha                 92.475958
_cell_angle_beta                  73.420773
_cell_angle_gamma                 89.230373
_cell_volume                      1364.88595832

loop_
_atom_site_label
_atom_site_type_symbol
_atom_type_description
_atom_site_fract_x
_atom_site_fract_y
_atom_site_fract_z
_atom_type_partial_charge
C1    C     C_R   0.498970 0.737473 0.499787 0.863884
C2    C     C_R   0.434215 0.479634 0.976091 -0.141826
C3    C     C_R   0.471213 0.454239 0.868684 -0.063311
C4    C     C_R   0.540359 0.464095 0.029652 -0.066293
C5    C     C_R   0.675212 0.404204 0.977046 -0.194910
C6    C     C_R   0.700850 0.361325 0.873047 0.346254
C7    C     C_R   0.592363 0.376891 0.823121 0.352924
C8    C     C_R   0.519870 0.515919 0.131157 0.429206
C9    C     C_R   0.759372 0.441939 0.129032 0.319100
C10   C     C_R   0.377640 0.497188 0.812628 -0.136588
C11   C     C_R   0.627127 0.933827 0.478573 0.332444
C12   C     C_R   0.422778 0.498101 0.699218 0.912370
C13   C     C_R   0.625142 0.060024 0.500308 0.353572
C14   C     C_R   0.495956 0.128581 0.515366 -0.354805
C15   C     C_R   0.363930 0.067220 0.538630 0.408260
C16   C     C_R   0.363587 0.939286 0.534792 0.246910
C17   C     C_R   0.495923 0.871566 0.501707 -0.349759
C18   C     C_R   0.893148 0.562148 0.576497 0.486583
C19   C     C_R   0.040982 0.561077 0.577373 0.323259
C20   C     C_R   0.104568 0.439040 0.422672 0.330572
C21   C     C_R   0.955859 0.436866 0.424197 0.468014
C22   C     C_R   0.498251 0.262755 0.506435 0.913479
C23   C     C_R   0.577794 0.501667 0.299925 0.792555
C24   C     C_R   0.782940 0.392521 0.028955 0.466785
C25   C     C_R   0.622436 0.491789 0.184865 -0.400234
C26   C     C_R   0.242512 0.550298 0.866208 -0.320605
C27   C     C_R   0.194966 0.552805 0.973279 0.486287
C28   C     C_R   0.285830 0.504591 0.027459 0.492241
Cu1   Cu    Cu3+1 0.359340 0.499980 0.500000 0.981361
Cu2   Cu    Cu3+1 0.640660 0.500020 0.500000 1.056780
H1    H     H_    0.170874 0.586192 0.825045 0.238509
N1    N     N_R   0.147940 0.499970 0.499970 -0.299640
N2    N     N_R   0.852060 0.500060 0.499990 -0.296328
O1    O     O_R   0.381250 0.680340 0.500010 -0.614520
O2    O     O_R   0.618820 0.680370 0.500010 -0.528494
O3    O     O_R   0.323240 0.499950 0.650980 -0.581118
O4    O     O_R   0.560810 0.499980 0.650980 -0.499697
O5    O     O_R   0.381180 0.319630 0.499990 -0.592247
O6    O     O_R   0.618750 0.319660 0.499990 -0.504060
O7    O     O_R   0.439190 0.500020 0.349020 -0.551972
O8    O     O_R   0.676760 0.500050 0.349020 -0.536516
O9    O     O_3   0.873543 0.438024 0.170410 -0.615703
H2    H     H_    0.876534 0.519417 0.204778 0.372668
O10   O     O_3   0.748690 0.116862 0.508096 -0.571437
C29   C     C_3   0.795230 0.068026 0.588734 -0.261890
H3    H     H_    0.853380 0.139507 0.620159 0.175180
H4    H     H_    0.872545 0.990560 0.558281 0.190800
H5    H     H_    0.704875 0.037705 0.654113 0.132597
O11   O     O_3   0.234961 0.132511 0.577748 -0.504466
C30   C     C_3   0.162200 0.134811 0.501306 -0.234505
H6    H     H_    0.235322 0.150280 0.423026 0.110976
H7    H     H_    0.082025 0.211640 0.523284 0.166308
H8    H     H_    0.104689 0.048658 0.497795 0.165671
O12   O     O_3   0.232943 0.883039 0.568039 -0.697317
H9    H     H_    0.213547 0.846901 0.504927 0.319365
O13   O     O_3   0.787737 0.622447 0.655659 -0.530751
C31   C     C_3   0.808353 0.750085 0.654551 -0.170814
H10   H     H_    0.874083 0.781662 0.578597 0.156318
H11   H     H_    0.859719 0.778882 0.715210 0.196869
H12   H     H_    0.700759 0.797323 0.673454 0.155780
O14   O     O_3   0.071916 0.622406 0.658895 -0.700984
H13   H     H_    0.168048 0.657423 0.632768 0.384140
O15   O     O_3   0.202880 0.380301 0.340050 -0.692816
H14   H     H_    0.278813 0.343292 0.365287 0.350912
O16   O     O_3   0.914790 0.377239 0.345279 -0.498845
C32   C     C_3   0.945278 0.250203 0.340366 -0.118521
H15   H     H_    0.048090 0.225930 0.281202 0.132003
H16   H     H_    0.858004 0.201453 0.317776 0.172542
H17   H     H_    0.952817 0.215588 0.413920 0.147398
O17   O     O_3   0.833608 0.308501 0.819390 -0.702585
H18   H     H_    0.848723 0.315911 0.744282 0.338325
O18   O     O_3   0.914239 0.333597 0.983855 -0.628123
H19   H     H_    0.892125 0.247306 0.970002 0.335559
O19   O     O_3   0.406326 0.598828 0.172816 -0.680165
H20   H     H_    0.432026 0.655311 0.223772 0.311878
O20   O     O_3   0.222609 0.455361 0.121563 -0.484211
C33   C     C_3   0.215527 0.326558 0.105979 -0.120303
H21   H     H_    0.264771 0.280289 0.159501 0.162608
H22   H     H_    0.272159 0.287520 0.026792 0.088181
H23   H     H_    0.100854 0.301177 0.121785 0.224820
O21   O     O_3   0.053519 0.589261 0.022467 -0.517521
C34   C     C_3   0.053431 0.697883 0.082606 -0.329120
H24   H     H_    0.116004 0.770563 0.035321 0.150809
H25   H     H_    0.095811 0.680597 0.149205 0.202836
H26   H     H_    0.940038 0.732686 0.114191 0.165818
O22   O     O_3   0.594084 0.305177 0.736396 -0.725723
H27   H     H_    0.642939 0.226354 0.740439 0.315176
O23   O     O_3   0.758889 0.871389 0.442458 -0.559022
C35   C     C_3   0.802326 0.871004 0.333798 -0.313277
H28   H     H_    0.908152 0.821151 0.304827 0.175179
H29   H     H_    0.817410 0.965686 0.306180 0.149258
H30   H     H_    0.723776 0.822230 0.300801 0.139700

loop_
_geom_bond_atom_site_label_1
_geom_bond_atom_site_label_2
_ccdc_geom_bond_type
C32   H16   S    
C4    C8    A    
O21   C34   S    
C9    C25   A    
C33   H21   S    
Cu1   O3    S    
C1    O2    A    
C26   C27   A    
Cu2   O2    S    
Cu1   N1    S    
C3    C7    A    
C5    C6    A    
C31   H11   S    
C32   H17   S    
C21   N2    A    
C15   C16   A    
C22   O5    A    
O13   C31   S    
C18   C19   A    
C12   O4    A    
O11   C30   S    
C16   C17   A    
Cu1   O5    S    
C30   H7    S    
Cu2   O8    S    
O17   H18   S    
C35   H29   S    
C18   O13   S    
C10   C26   A    
C33   H22   S    
C32   H15   S    
C26   H1    S    
C13   C14   A    
C8    C25   A    
C19   N1    A    
C1    O1    A    
C29   H4    S    
C30   H8    S    
O19   H20   S    
C27   O21   S    
O20   C33   S    
O22   H27   S    
C4    C5    A    
C31   H12   S    
C29   H5    S    
C29   H3    S    
Cu1   O1    S    
Cu2   O4    S    
C2    C4    A    
Cu1   Cu2   S    
C11   O23   S    
C8    O19   S    
C30   H6    S    
C9    O9    S    
C20   C21   A    
C35   H30   S    
C10   C12   S    
C34   H24   S    
C34   H25   S    
C12   O3    A    
O9    H2    S    
C28   O20   S    
O10   C29   S    
C24   O18   S    
C20   N1    A    
C33   H23   S    
C6    O17   S    
O12   H9    S    
C11   C17   A    
Cu2   N2    S    
C21   O16   S    
O18   H19   S    
C9    C24   A    
C6    C7    A    
C34   H26   S    
C1    C17   S    
C23   O8    A    
C14   C22   S    
C20   O15   S    
C2    C3    A    
C3    C10   A    
C11   C13   A    
C31   H10   S    
C5    C24   A    
C19   O14   S    
C22   O6    A    
Cu1   O7    S    
Cu2   O6    S    
C15   O11   S    
O14   H13   S    
C18   N2    A    
C16   O12   S    
O15   H14   S    
C7    O22   S    
C23   C25   S    
O23   C35   S    
O16   C32   S    
C27   C28   A    
C14   C15   A    
C2    C28   A    
C35   H28   S    
C13   O10   S    
C23   O7    A    
