data_mof_unit_56133.cif
_audit_creation_date              2012-10-26T17:11:31-0400
_audit_creation_method            fapswitch 2.2
_symmetry_space_group_name_H-M    P1
_symmetry_Int_Tables_number       1
_space_group_crystal_system       triclinic
_cell_length_a                    27.964592
_cell_length_b                    18.720358
_cell_length_c                    16.845485
_cell_angle_alpha                 90.025603
_cell_angle_beta                  62.903549
_cell_angle_gamma                 90.017286
_cell_volume                      7850.79635388

loop_
_atom_site_label
_atom_site_type_symbol
_atom_type_description
_atom_site_fract_x
_atom_site_fract_y
_atom_site_fract_z
_atom_type_partial_charge
C1    C     C_R   0.295271 0.728976 0.329418 0.839286
C2    C     C_R   0.705889 0.273288 0.669724 0.830668
C3    C     C_R   0.704779 0.728891 0.670557 0.820875
C4    C     C_R   0.294185 0.273145 0.330203 0.848239
C5    C     C_R   0.795270 0.228974 0.329432 0.824269
C6    C     C_R   0.205886 0.773289 0.669731 0.817396
C7    C     C_R   0.204780 0.228892 0.670545 0.805968
C8    C     C_R   0.794150 0.773217 0.330242 0.833374
C9    C     C_R   0.388001 0.000087 0.538048 0.072608
C10   C     C_R   0.582544 0.999973 0.565720 0.073806
C11   C     C_R   0.910720 0.499938 0.463093 0.070377
C12   C     C_R   0.089274 0.499912 0.536930 0.070428
C13   C     C_R   0.576883 0.870881 0.580867 -0.243762
C14   C     C_R   0.382642 0.128537 0.558216 -0.234579
C15   C     C_R   0.383093 0.871539 0.556743 -0.241624
C16   C     C_R   0.576506 0.128921 0.582802 -0.229094
C17   C     C_R   0.082570 0.371065 0.550267 -0.232399
C18   C     C_R   0.917358 0.628797 0.449995 -0.219651
C19   C     C_R   0.917474 0.371103 0.449424 -0.232726
C20   C     C_R   0.082590 0.628759 0.550355 -0.219386
C21   C     C_R   0.215165 0.755109 0.956882 -0.019856
C22   C     C_R   0.775954 0.226425 0.049031 -0.020444
C23   C     C_R   0.785230 0.754623 0.042745 -0.021173
C24   C     C_R   0.224879 0.225118 0.950191 -0.018762
C25   C     C_R   0.715307 0.255470 0.956856 -0.021000
C26   C     C_R   0.275938 0.726296 0.048912 -0.020058
C27   C     C_R   0.285620 0.253923 0.042341 -0.020668
C28   C     C_R   0.724704 0.725501 0.950402 -0.020291
C29   C     C_R   0.269216 0.776038 0.921266 -0.149755
C30   C     C_R   0.722122 0.204410 0.083987 -0.147004
C31   C     C_R   0.731387 0.776284 0.077605 -0.145561
C32   C     C_R   0.278975 0.204116 0.914374 -0.152563
C33   C     C_R   0.769162 0.277147 0.921910 -0.145595
C34   C     C_R   0.221918 0.704987 0.084499 -0.148744
C35   C     C_R   0.231532 0.274653 0.078020 -0.147087
C36   C     C_R   0.778542 0.703546 0.915462 -0.147870
C37   C     C_R   0.299941 0.762664 0.966248 0.014255
C38   C     C_R   0.691384 0.218181 0.038784 0.002912
C39   C     C_R   0.700809 0.762810 0.032391 0.012332
C40   C     C_R   0.309792 0.217852 0.959478 0.006961
C41   C     C_R   0.799810 0.263675 0.967014 0.012247
C42   C     C_R   0.191117 0.718636 0.039391 0.005056
C43   C     C_R   0.200862 0.261388 0.032925 0.012658
C44   C     C_R   0.809237 0.717393 0.960735 0.004704
C45   C     C_R   0.141116 0.823009 0.946114 -0.276453
C46   C     C_R   0.852628 0.165586 0.058751 -0.285459
C47   C     C_R   0.859118 0.822656 0.053734 -0.276097
C48   C     C_R   0.148023 0.164526 0.940628 -0.286318
C49   C     C_R   0.641214 0.323187 0.946062 -0.275335
C50   C     C_R   0.352575 0.665437 0.058744 -0.286058
C51   C     C_R   0.359384 0.322258 0.053508 -0.277191
C52   C     C_R   0.648002 0.664651 0.940804 -0.286744
C53   C     C_R   0.120039 0.855327 0.893371 -0.157340
C54   C     C_R   0.882589 0.149171 0.104421 -0.160255
C55   C     C_R   0.880160 0.855040 0.106506 -0.156381
C56   C     C_R   0.117739 0.148696 0.895335 -0.161702
C57   C     C_R   0.619995 0.355285 0.893389 -0.156506
C58   C     C_R   0.382538 0.649076 0.104411 -0.160571
C59   C     C_R   0.380228 0.354910 0.106414 -0.155365
C60   C     C_R   0.617833 0.648605 0.895400 -0.160559
C61   C     C_R   0.145281 0.844278 0.801004 0.402212
C62   C     C_R   0.867555 0.178424 0.189276 0.384084
C63   C     C_R   0.855053 0.843832 0.198852 0.400412
C64   C     C_R   0.132644 0.178196 0.810673 0.384775
C65   C     C_R   0.645067 0.344024 0.801061 0.398971
C66   C     C_R   0.367494 0.678361 0.189253 0.383961
C67   C     C_R   0.354991 0.343835 0.198782 0.402885
C68   C     C_R   0.632772 0.678013 0.810715 0.386338
C69   C     C_R   0.184123 0.790652 0.764506 -0.158770
C70   C     C_R   0.818080 0.213898 0.233455 -0.167614
C71   C     C_R   0.816026 0.790417 0.235394 -0.163741
C72   C     C_R   0.182189 0.213481 0.766362 -0.160667
C73   C     C_R   0.684123 0.290662 0.764504 -0.163205
C74   C     C_R   0.318029 0.713808 0.233441 -0.170062
C75   C     C_R   0.316144 0.290197 0.235262 -0.167279
C76   C     C_R   0.682204 0.713495 0.766409 -0.166676
C77   C     C_R   0.204737 0.757956 0.817503 -0.269287
C78   C     C_R   0.788591 0.230403 0.186853 -0.258085
C79   C     C_R   0.795407 0.757728 0.182349 -0.264320
C80   C     C_R   0.211963 0.229488 0.812638 -0.265315
C81   C     C_R   0.704924 0.258256 0.817424 -0.264161
C82   C     C_R   0.288561 0.730334 0.186802 -0.259198
C83   C     C_R   0.295784 0.257139 0.182051 -0.263302
C84   C     C_R   0.711902 0.729686 0.812769 -0.258317
C85   C     C_R   0.196619 0.631671 0.527214 0.804140
C86   C     C_R   0.803394 0.368302 0.472728 0.790261
C87   C     C_R   0.803373 0.631661 0.472817 0.802609
C88   C     C_R   0.196612 0.368311 0.527252 0.791542
C89   C     C_R   0.696346 0.131807 0.528583 0.799491
C90   C     C_R   0.299029 0.868823 0.488295 0.800440
C91   C     C_R   0.298936 0.131210 0.488582 0.811498
C92   C     C_R   0.696382 0.868211 0.528450 0.786925
C93   C     C_R   0.185086 0.776534 0.907447 0.062453
C94   C     C_R   0.806672 0.208298 0.098491 0.062694
C95   C     C_R   0.815185 0.776143 0.092344 0.061257
C96   C     C_R   0.194061 0.207108 0.900828 0.064829
C97   C     C_R   0.685258 0.276850 0.907360 0.060577
C98   C     C_R   0.306665 0.708243 0.098400 0.064308
C99   C     C_R   0.315590 0.275490 0.091976 0.062461
C100  C     C_R   0.693985 0.707322 0.900981 0.062808
C101  C     C_R   0.925487 0.904684 0.067304 0.821183
C102  C     C_R   0.073279 0.097303 0.933654 0.804777
C103  C     C_R   0.074597 0.904804 0.932620 0.821088
C104  C     C_R   0.926822 0.097435 0.066276 0.805072
C105  C     C_R   0.425488 0.404676 0.067298 0.821890
C106  C     C_R   0.573329 0.597243 0.933646 0.806581
C107  C     C_R   0.574560 0.404755 0.932651 0.821414
C108  C     C_R   0.426795 0.597388 0.066289 0.804065
C109  C     C_R   0.041034 0.629389 0.526288 0.100738
C110  C     C_R   0.959020 0.370424 0.473553 0.101175
C111  C     C_R   0.958900 0.629409 0.474099 0.100681
C112  C     C_R   0.041034 0.370404 0.526111 0.101090
C113  C     C_R   0.526685 0.129072 0.581651 0.102045
C114  C     C_R   0.430190 0.871104 0.566403 0.099423
C115  C     C_R   0.429490 0.128871 0.568892 0.099391
C116  C     C_R   0.527400 0.870732 0.578722 0.103945
C117  C     C_R   0.019747 0.694156 0.514667 -0.169524
C118  C     C_R   0.980303 0.305650 0.485210 -0.172663
C119  C     C_R   0.980156 0.694167 0.485905 -0.169364
C120  C     C_R   0.019784 0.305639 0.514267 -0.172712
C121  C     C_R   0.498146 0.192904 0.591406 -0.152002
C122  C     C_R   0.451180 0.806911 0.580457 -0.155276
C123  C     C_R   0.449859 0.192773 0.585356 -0.154662
C124  C     C_R   0.499598 0.806685 0.585827 -0.172092
C125  C     C_R   0.978652 0.564592 0.488684 0.040037
C126  C     C_R   0.021323 0.435210 0.511397 0.039327
C127  C     C_R   0.021309 0.564584 0.511528 0.040101
C128  C     C_R   0.978701 0.435219 0.488448 0.039224
C129  C     C_R   0.456461 0.064582 0.563177 0.042643
C130  C     C_R   0.505398 0.935376 0.568704 0.039839
C131  C     C_R   0.505049 0.064598 0.570074 0.040470
C132  C     C_R   0.456817 0.935473 0.561874 0.040560
C133  C     C_R   0.433837 0.000064 0.553918 -0.038820
C134  C     C_R   0.531117 0.999990 0.568033 -0.040564
C135  C     C_R   0.956601 0.499915 0.478450 -0.039831
C136  C     C_R   0.043391 0.499899 0.521579 -0.039690
C137  C     C_R   0.364730 0.934440 0.531596 0.046658
C138  C     C_R   0.607918 0.065767 0.565010 0.047115
C139  C     C_R   0.608053 0.934158 0.564353 0.049487
C140  C     C_R   0.364567 0.065714 0.532166 0.049879
C141  C     C_R   0.887857 0.434326 0.455893 0.050126
C142  C     C_R   0.112176 0.565549 0.543993 0.047003
C143  C     C_R   0.112161 0.434300 0.543989 0.050069
C144  C     C_R   0.887798 0.565575 0.456163 0.047200
C145  C     C_R   0.323384 0.934905 0.503126 -0.109325
C146  C     C_R   0.663083 0.065570 0.547648 -0.105181
C147  C     C_R   0.663137 0.934416 0.547405 -0.107948
C148  C     C_R   0.323290 0.065196 0.503454 -0.105037
C149  C     C_R   0.836067 0.434488 0.457944 -0.109316
C150  C     C_R   0.163954 0.565439 0.541978 -0.105878
C151  C     C_R   0.163941 0.434485 0.542007 -0.109242
C152  C     C_R   0.836033 0.565441 0.458097 -0.105847
C153  C     C_R   0.304442 0.000046 0.488613 -0.297190
C154  C     C_R   0.689106 0.000001 0.539647 -0.282689
C155  C     C_R   0.811670 0.499960 0.458277 -0.287076
C156  C     C_R   0.188327 0.499972 0.541739 -0.287188
Cu1   Cu    Cu3+1 0.209920 0.785290 0.495070 0.954114
Cu2   Cu    Cu3+1 0.790080 0.214710 0.504930 0.943131
Cu3   Cu    Cu3+1 0.790080 0.785290 0.504930 0.953327
Cu4   Cu    Cu3+1 0.209920 0.214710 0.495070 0.943783
Cu5   Cu    Cu3+1 0.709920 0.285290 0.495070 0.955777
Cu6   Cu    Cu3+1 0.290080 0.714710 0.504930 0.934816
Cu7   Cu    Cu3+1 0.290080 0.285290 0.504930 0.951479
Cu8   Cu    Cu3+1 0.709920 0.714710 0.495070 0.948028
Cu9   Cu    Cu3+1 0.495240 0.500000 0.924150 0.968267
Cu10  Cu    Cu3+1 0.504760 0.500000 0.075850 0.975941
Cu11  Cu    Cu3+1 0.995240 0.000000 0.924150 0.974241
Cu12  Cu    Cu3+1 0.004760 0.000000 0.075850 0.973369
H1    H     H_    0.515872 0.756180 0.593291 0.131430
H2    H     H_    0.429135 0.242927 0.591436 0.133338
H3    H     H_    0.430930 0.756613 0.584863 0.133313
H4    H     H_    0.513685 0.243135 0.601908 0.139110
H5    H     H_    0.034890 0.255047 0.524706 0.133773
H6    H     H_    0.964995 0.744765 0.475614 0.139506
H7    H     H_    0.965219 0.255067 0.474633 0.133708
H8    H     H_    0.034886 0.744745 0.525094 0.139543
H9    H     H_    0.273754 0.000034 0.466186 0.188397
H10   H     H_    0.731222 0.000012 0.523982 0.186559
H11   H     H_    0.771763 0.499954 0.462809 0.187934
H12   H     H_    0.228232 0.499986 0.537211 0.187735
H13   H     H_    0.589254 0.821066 0.597638 0.174528
H14   H     H_    0.360682 0.177916 0.573872 0.178507
H15   H     H_    0.361234 0.822099 0.572531 0.180643
H16   H     H_    0.589060 0.178582 0.599731 0.177038
H17   H     H_    0.089988 0.321454 0.574882 0.174133
H18   H     H_    0.909986 0.678450 0.425361 0.180747
H19   H     H_    0.910047 0.321522 0.424697 0.173867
H20   H     H_    0.089976 0.678384 0.575091 0.180771
H21   H     H_    0.286981 0.805178 0.858791 0.184360
H22   H     H_    0.704473 0.175086 0.146295 0.186398
H23   H     H_    0.713699 0.806058 0.139627 0.187618
H24   H     H_    0.296797 0.175633 0.851424 0.182749
H25   H     H_    0.786813 0.306891 0.859888 0.187273
H26   H     H_    0.204161 0.676260 0.147242 0.185795
H27   H     H_    0.213710 0.303681 0.140593 0.187035
H28   H     H_    0.796228 0.674242 0.853113 0.186076
H29   H     H_    0.125112 0.836397 0.016151 0.174143
H30   H     H_    0.864373 0.144445 0.992540 0.176992
H31   H     H_    0.875137 0.835990 0.983687 0.174114
H32   H     H_    0.136405 0.143132 0.006663 0.177171
H33   H     H_    0.625235 0.336597 0.016091 0.174865
H34   H     H_    0.364302 0.644210 0.992577 0.175699
H35   H     H_    0.375424 0.335631 0.983472 0.172889
H36   H     H_    0.636330 0.643402 0.006923 0.177410
H37   H     H_    0.237660 0.720280 0.788268 0.175364
H38   H     H_    0.751205 0.259805 0.219261 0.177945
H39   H     H_    0.762424 0.720135 0.211564 0.177551
H40   H     H_    0.249399 0.258779 0.780124 0.173378
H41   H     H_    0.737950 0.220737 0.788164 0.177541
H42   H     H_    0.251191 0.759769 0.219204 0.177205
H43   H     H_    0.262920 0.219368 0.211225 0.177205
H44   H     H_    0.749279 0.759111 0.780332 0.177545
O1    O     O_R   0.255040 0.869590 0.478480 -0.589101
O2    O     O_R   0.744960 0.130410 0.521520 -0.589724
O3    O     O_R   0.744960 0.869590 0.521520 -0.589768
O4    O     O_R   0.255040 0.130410 0.478480 -0.589761
O5    O     O_R   0.755040 0.369590 0.478480 -0.589869
O6    O     O_R   0.244960 0.630410 0.521520 -0.590055
O7    O     O_R   0.244960 0.369590 0.521520 -0.590355
O8    O     O_R   0.755040 0.630410 0.478480 -0.589939
O9    O     O_R   0.182050 0.796550 0.624440 -0.536131
O10   O     O_R   0.817950 0.203450 0.375560 -0.542995
O11   O     O_R   0.817950 0.796550 0.375560 -0.534809
O12   O     O_R   0.182050 0.203450 0.624440 -0.545673
O13   O     O_R   0.682050 0.296550 0.624440 -0.537077
O14   O     O_R   0.317950 0.703450 0.375560 -0.535394
O15   O     O_R   0.317950 0.296550 0.375560 -0.524349
O16   O     O_R   0.682050 0.703450 0.624440 -0.544976
O17   O     O_R   0.250530 0.763330 0.367210 -0.592841
O18   O     O_R   0.749470 0.236670 0.632790 -0.596702
O19   O     O_R   0.749470 0.763330 0.632790 -0.595032
O20   O     O_R   0.250530 0.236670 0.367210 -0.594525
O21   O     O_R   0.750530 0.263330 0.367210 -0.593988
O22   O     O_R   0.249470 0.736670 0.632790 -0.612176
O23   O     O_R   0.249470 0.263330 0.632790 -0.611166
O24   O     O_R   0.750530 0.736670 0.367210 -0.595930
O25   O     O_R   0.177260 0.690030 0.513710 -0.598974
O26   O     O_R   0.822740 0.309970 0.486290 -0.600912
O27   O     O_R   0.822740 0.690030 0.486290 -0.599154
O28   O     O_R   0.177260 0.309970 0.513710 -0.601078
O29   O     O_R   0.677260 0.190030 0.513710 -0.594670
O30   O     O_R   0.322740 0.809970 0.486290 -0.604754
O31   O     O_R   0.322740 0.190030 0.486290 -0.596827
O32   O     O_R   0.677260 0.809970 0.513710 -0.596487
O33   O     O_R   0.051640 0.926880 0.885090 -0.532709
O34   O     O_R   0.948360 0.073120 0.114910 -0.541576
O35   O     O_R   0.948360 0.926880 0.114910 -0.532662
O36   O     O_R   0.051640 0.073120 0.885090 -0.541038
O37   O     O_R   0.551640 0.426880 0.885090 -0.533451
O38   O     O_R   0.448360 0.573120 0.114910 -0.541981
O39   O     O_R   0.448360 0.426880 0.114910 -0.531004
O40   O     O_R   0.551640 0.573120 0.885090 -0.541131
O41   O     O_R   0.940620 0.926560 0.986760 -0.599663
O42   O     O_R   0.059380 0.073440 0.013240 -0.605342
O43   O     O_R   0.059380 0.926560 0.013240 -0.599689
O44   O     O_R   0.940620 0.073440 0.986760 -0.605232
O45   O     O_R   0.440620 0.426560 0.986760 -0.600545
O46   O     O_R   0.559380 0.573440 0.013240 -0.605631
O47   O     O_R   0.559380 0.426560 0.013240 -0.598758
O48   O     O_R   0.440620 0.573440 0.986760 -0.607864
C157  C     C_2   0.134879 0.692395 0.077498 0.346451
H45   H     H_    0.112362 0.695968 0.039581 0.087660
O49   O     O_2   0.112960 0.665866 0.151841 -0.537629
C158  C     C_2   0.855669 0.291597 0.929494 0.334420
H46   H     H_    0.877695 0.290455 0.968329 0.082441
O50   O     O_2   0.877842 0.316874 0.854476 -0.548724
C159  C     C_2   0.865318 0.690677 0.923315 0.347546
H47   H     H_    0.887776 0.694741 0.961292 0.087391
O51   O     O_2   0.887175 0.663226 0.849479 -0.537098
C160  C     C_2   0.144811 0.288702 0.071198 0.333420
H48   H     H_    0.122825 0.288363 0.032285 0.082835
O52   O     O_2   0.122441 0.312610 0.146933 -0.549612
C161  C     C_2   0.635352 0.191274 0.076157 0.351385
H49   H     H_    0.612859 0.195306 0.038239 0.087475
O53   O     O_2   0.613578 0.163669 0.149879 -0.533127
C162  C     C_2   0.356044 0.789829 0.927844 0.329705
H50   H     H_    0.378161 0.789136 0.966539 0.083939
O54   O     O_2   0.378319 0.813961 0.852225 -0.552821
C163  C     C_2   0.366194 0.192203 0.920881 0.342583
H51   H     H_    0.388727 0.195648 0.958785 0.088943
O55   O     O_2   0.388242 0.166378 0.846120 -0.542316
C164  C     C_2   0.644988 0.790827 0.069744 0.334751
H52   H     H_    0.623017 0.789679 0.030819 0.082209
O56   O     O_2   0.622790 0.816217 0.144719 -0.548082
O57   O     O_3   0.133683 0.888170 0.745739 -0.549223
C165  C     C_3   0.168435 0.947966 0.722391 0.079709
H53   H     H_    0.211275 0.931097 0.685724 0.120170
H54   H     H_    0.162537 0.978909 0.782723 0.125395
C166  C     C_3   0.156395 0.997216 0.661993 -0.672723
H55   H     H_    0.114054 0.015713 0.696923 0.265340
H56   H     H_    0.183355 0.044448 0.643902 0.205729
H57   H     H_    0.163058 0.968539 0.600075 0.233329
O58   O     O_3   0.899446 0.168003 0.231468 -0.555435
C167  C     C_3   0.934702 0.226758 0.212008 0.093934
H58   H     H_    0.911861 0.277217 0.238960 0.124165
H59   H     H_    0.960359 0.232332 0.138710 0.120938
C168  C     C_3   0.971304 0.215059 0.255435 -0.743508
H60   H     H_    0.995975 0.166305 0.227659 0.247744
H61   H     H_    0.998438 0.261685 0.242318 0.220626
H62   H     H_    0.946925 0.208632 0.328618 0.231750
O59   O     O_3   0.867273 0.887047 0.254014 -0.548882
C169  C     C_3   0.832909 0.947252 0.278292 0.083579
H63   H     H_    0.790041 0.930824 0.316258 0.124126
H64   H     H_    0.838215 0.978268 0.218352 0.125041
C170  C     C_3   0.846277 0.996193 0.337489 -0.679057
H65   H     H_    0.888660 0.014318 0.301182 0.266248
H66   H     H_    0.819542 0.043676 0.356558 0.207945
H67   H     H_    0.840364 0.967398 0.398923 0.232204
O60   O     O_3   0.100519 0.168254 0.768802 -0.555250
C171  C     C_3   0.065439 0.227237 0.788743 0.095031
H68   H     H_    0.088420 0.277594 0.761770 0.125362
H69   H     H_    0.040005 0.232767 0.862114 0.120218
C172  C     C_3   0.028525 0.216008 0.745798 -0.744321
H70   H     H_    0.003723 0.167363 0.773613 0.247553
H71   H     H_    0.001521 0.262814 0.759305 0.220317
H72   H     H_    0.052670 0.209644 0.672552 0.232198
O61   O     O_3   0.632865 0.387230 0.745915 -0.549981
C173  C     C_3   0.667326 0.447354 0.721563 0.084533
H73   H     H_    0.710195 0.430822 0.684006 0.124504
H74   H     H_    0.661854 0.478602 0.781461 0.124965
C174  C     C_3   0.654304 0.496037 0.661789 -0.677470
H75   H     H_    0.611951 0.514349 0.697687 0.264920
H76   H     H_    0.681155 0.543415 0.642612 0.208397
H77   H     H_    0.660345 0.466971 0.600430 0.233037
O62   O     O_3   0.399478 0.668383 0.231339 -0.556762
C175  C     C_3   0.436058 0.725883 0.208509 0.090680
H78   H     H_    0.414385 0.777585 0.232056 0.131582
H79   H     H_    0.461991 0.728391 0.135012 0.119392
C176  C     C_3   0.472164 0.715330 0.253058 -0.719555
H80   H     H_    0.494791 0.664457 0.230132 0.242572
H81   H     H_    0.501204 0.760199 0.235431 0.219958
H82   H     H_    0.447572 0.713712 0.326651 0.243126
O63   O     O_3   0.366820 0.387487 0.254036 -0.547274
C177  C     C_3   0.332128 0.447344 0.277979 0.079752
H83   H     H_    0.289305 0.430522 0.315225 0.122974
H84   H     H_    0.337695 0.478362 0.217901 0.124916
C178  C     C_3   0.344683 0.496456 0.337972 -0.673489
H85   H     H_    0.386980 0.515052 0.302391 0.265599
H86   H     H_    0.317655 0.543634 0.356815 0.206726
H87   H     H_    0.338531 0.467623 0.399508 0.233416
O64   O     O_3   0.600572 0.668008 0.769086 -0.555373
C179  C     C_3   0.564366 0.725887 0.791211 0.091627
H88   H     H_    0.586063 0.775254 0.756595 0.129010
H89   H     H_    0.543182 0.735756 0.864585 0.116069
C180  C     C_3   0.522124 0.708814 0.760877 -0.759390
H90   H     H_    0.497135 0.663046 0.799692 0.250938
H91   H     H_    0.495788 0.755933 0.771342 0.223331
H92   H     H_    0.542011 0.694526 0.689064 0.234018

loop_
_geom_bond_atom_site_label_1
_geom_bond_atom_site_label_2
_ccdc_geom_bond_type
C81   H41   S    
Cu5   O5    S    
C22   C94   S    
C34   C42   A    
C16   C113  A    
C110  C118  A    
C178  H85   S    
O59   C169  S    
C27   C99   S    
C164  H52   S    
C13   C139  A    
C24   C96   S    
C46   H30   S    
C30   C38   A    
C106  O40   A    
C109  C127  A    
C111  C125  A    
C175  H78   S    
Cu5   O29   S    
C165  C166  S    
C34   H26   S    
C143  C151  A    
C126  C136  A    
C19   C141  A    
C92   C147  S    
C82   C98   A    
C130  C134  A    
Cu7   O15   S    
C73   C81   A    
C14   H14   S    
C153  H9    S    
C50   H34   S    
C171  H69   S    
C115  C123  A    
C84   C100  A    
Cu4   Cu7   S    
C87   O27   A    
C127  C136  A    
C128  C135  A    
C112  C120  A    
C179  H88   S    
C27   C35   A    
O63   C177  S    
C21   C29   A    
C108  O38   A    
Cu3   O19   S    
C101  O41   A    
C24   C32   A    
C5    C70   S    
C77   H37   S    
C146  C154  A    
Cu12  O42   S    
C175  C176  S    
C26   C37   A    
C180  H92   S    
C8    O11   A    
Cu2   O26   S    
C129  C133  A    
Cu4   O12   S    
C63   C71   A    
C160  O52   D    
C36   C44   A    
C148  C153  A    
C4    O20   A    
C178  H87   S    
C137  C145  A    
C8    C71   S    
C48   C96   A    
C173  C174  S    
C16   C138  A    
C179  C180  S    
C16   H16   S    
C88   O7    A    
C117  C119  A    
C149  C155  A    
C165  H54   S    
C156  H12   S    
C177  C178  S    
C21   C93   S    
C78   C94   A    
C79   H39   S    
C86   O26   A    
C23   C95   S    
C163  O55   D    
C118  C120  A    
C121  C123  A    
C49   C97   A    
C21   C42   A    
Cu5   O21   S    
C174  H75   S    
C125  C127  A    
C24   C43   A    
C10   C138  A    
C3    O16   A    
C110  C128  A    
C89   O2    A    
C15   C137  A    
Cu7   O7    S    
C1    O14   A    
C6    C69   S    
Cu11  O41   S    
C69   C77   A    
C45   C93   A    
Cu4   O4    S    
C71   C79   A    
Cu1   O17   S    
C62   C70   A    
C103  O33   A    
C1    C74   S    
C119  H6    S    
C157  H45   S    
C9    C140  A    
C172  H71   S    
C45   H29   S    
Cu11  O36   S    
C66   C74   A    
C49   C57   A    
C92   O3    A    
C111  C119  A    
C4    O15   A    
C173  H74   S    
C52   C60   A    
C59   C67   A    
C53   C61   A    
C40   C163  S    
Cu9   O45   S    
C158  H46   S    
C170  H66   S    
C55   C63   A    
C56   C64   A    
Cu7   O31   S    
C35   C43   A    
C58   C108  S    
C7    O12   A    
C5    O10   A    
C6    O22   A    
C45   C53   A    
Cu1   O9    S    
C168  H61   S    
C47   H31   S    
C42   C157  S    
C64   O60   S    
Cu6   O14   S    
C44   C159  S    
C49   H33   S    
C50   C98   A    
Cu3   O3    S    
C3    O19   A    
C7    C72   S    
C177  H83   S    
C52   C100  A    
C85   O6    A    
C36   H28   S    
O58   C167  S    
C25   C38   A    
C20   H20   S    
C46   C94   A    
C27   C40   A    
C174  H77   S    
C166  H55   S    
C116  C130  A    
C87   O8    A    
C11   C141  A    
C60   C68   A    
C2    C73   S    
C25   C97   S    
C80   H40   S    
C14   C140  A    
C104  O34   A    
C87   C152  S    
C90   O30   A    
C88   C151  S    
C66   O62   S    
C67   C75   A    
C122  C124  A    
C60   C106  S    
C126  C128  A    
C22   C30   A    
C41   C158  S    
C162  O54   D    
C159  H47   S    
C68   C76   A    
C13   H13   S    
C12   C143  A    
C56   C102  S    
C144  C152  A    
C169  H64   S    
C125  C135  A    
C138  C146  A    
Cu1   Cu6   S    
C161  O53   D    
C30   H22   S    
C17   H17   S    
C123  H2    S    
Cu7   O23   S    
C2    O18   A    
Cu12  O35   S    
C113  C121  A    
C162  H50   S    
C122  H3    S    
C12   C136  A    
Cu3   Cu8   S    
C175  H79   S    
C9    C133  A    
C82   H42   S    
Cu6   O6    S    
Cu8   O24   S    
Cu9   O40   S    
C103  O43   A    
C131  C134  A    
C76   C84   A    
C109  C117  A    
C59   C105  S    
C48   H32   S    
Cu10  O46   S    
C54   C104  S    
C90   C145  S    
C37   C162  S    
C167  H58   S    
C179  H89   S    
C22   C41   A    
C39   C164  S    
C14   C115  A    
C88   O28   A    
C31   H23   S    
C166  H57   S    
C32   H24   S    
C176  H80   S    
C85   C150  S    
C4    C75   S    
Cu2   Cu5   S    
C19   H19   S    
C9    C137  A    
C124  H1    S    
C65   O61   S    
C15   H15   S    
C163  H51   S    
Cu6   O30   S    
Cu4   O28   S    
C112  C126  A    
C35   H27   S    
C33   H25   S    
C83   C99   A    
C140  C148  A    
C74   C82   A    
C178  H86   S    
C155  H11   S    
C7    O23   A    
C51   H35   S    
C50   C58   A    
C167  C168  S    
Cu11  Cu12  S    
C54   C62   A    
C28   C39   A    
O60   C171  S    
C23   C44   A    
C72   C80   A    
C52   H36   S    
C130  C132  A    
C78   H38   S    
C79   C95   A    
C91   O4    A    
C11   C135  A    
C67   O63   S    
C152  C155  A    
C46   C54   A    
Cu10  O38   S    
C151  C156  A    
C18   C111  A    
C8    O24   A    
Cu1   O25   S    
C154  H10   S    
Cu2   O2    S    
C10   C139  A    
Cu8   O32   S    
C171  H68   S    
C105  O45   A    
Cu11  O44   S    
C116  C124  A    
C164  O56   D    
C57   C65   A    
C84   H44   S    
C38   C161  S    
Cu10  O39   S    
C17   C143  A    
C33   C41   A    
C142  C150  A    
C18   C144  A    
C68   O64   S    
C159  O51   D    
C75   C83   A    
C172  H70   S    
C53   C103  S    
C77   C93   A    
C12   C142  A    
C85   O25   A    
O62   C175  S    
C13   C116  A    
Cu6   O22   S    
C28   C36   A    
C158  O50   D    
C170  H65   S    
C29   C37   A    
Cu3   O27   S    
C160  H48   S    
C102  O42   A    
C90   O1    A    
C2    O13   A    
C23   C31   A    
C171  C172  S    
Cu12  O34   S    
Cu9   Cu10  S    
C70   C78   A    
C168  H60   S    
Cu2   O18   S    
C141  C149  A    
O64   C179  S    
C169  C170  S    
C139  C147  A    
O57   C165  S    
Cu9   O37   S    
C107  O47   A    
C165  H53   S    
C177  H84   S    
C62   O58   S    
C65   C73   A    
C147  C154  A    
C43   C160  S    
C26   C34   A    
C132  C133  A    
C174  H76   S    
C61   O57   S    
C80   C96   A    
C11   C144  A    
C6    O9    A    
C145  C153  A    
C28   C100  S    
C32   C40   A    
Cu2   O10   S    
C5    O21   A    
C91   C148  S    
C58   C66   A    
Cu5   O13   S    
C51   C99   A    
C89   C146  S    
C107  O37   A    
C20   C142  A    
C102  O36   A    
C105  O39   A    
C86   C149  S    
C157  O49   D    
C172  H72   S    
C168  H62   S    
Cu11  O33   S    
Cu12  O43   S    
C18   H18   S    
C86   O5    A    
C173  H73   S    
C170  H67   S    
C121  H4    S    
Cu4   O20   S    
C161  H49   S    
C176  H81   S    
C15   C114  A    
Cu8   O16   S    
C3    C76   S    
C26   C98   S    
C117  H8    S    
C57   C107  S    
C91   O31   A    
C118  H7    S    
C63   O59   S    
C176  H82   S    
C89   O29   A    
C108  O48   A    
C51   C59   A    
C17   C112  A    
C47   C55   A    
C115  C129  A    
C19   C110  A    
C61   C69   A    
C48   C56   A    
C169  H63   S    
C113  C131  A    
C114  C132  A    
C10   C134  A    
C55   C101  S    
Cu1   O1    S    
C104  O44   A    
Cu9   O48   S    
Cu10  O47   S    
C167  H59   S    
C92   O32   A    
Cu8   O8    S    
C180  H91   S    
C81   C97   A    
Cu3   O11   S    
C166  H56   S    
C31   C39   A    
C29   H21   S    
C64   C72   A    
O61   C173  S    
C20   C109  A    
C114  C122  A    
C1    O17   A    
C120  H5    S    
C25   C33   A    
C106  O46   A    
C47   C95   A    
C150  C156  A    
C180  H90   S    
C83   H43   S    
C129  C131  A    
C101  O35   A    
