data_mof_unit_24043.cif
_audit_creation_date              2012-12-11T15:22:38-0500
_audit_creation_method            fapswitch 2.2
_symmetry_space_group_name_H-M    P1
_symmetry_Int_Tables_number       1
_space_group_crystal_system       triclinic
_cell_length_a                    22.439688
_cell_length_b                    12.955628
_cell_length_c                    26.938079
_cell_angle_alpha                 89.931347
_cell_angle_beta                  90.360968
_cell_angle_gamma                 89.999442
_cell_volume                      7831.28402436

loop_
_atom_site_label
_atom_site_type_symbol
_atom_type_description
_atom_site_fract_x
_atom_site_fract_y
_atom_site_fract_z
_atom_type_partial_charge
C1    C     C_R   0.722069 0.348971 0.179275 0.590008
C2    C     C_R   0.480033 0.257219 0.896881 -0.123235
C3    C     C_R   0.007656 0.588413 0.553824 -0.110247
C4    C     C_R   0.500999 0.081827 0.393410 -0.100190
C5    C     C_R   0.497023 0.085538 0.604701 -0.101258
C6    C     C_R   0.000999 0.581827 0.393410 -0.100162
C7    C     C_R   0.997022 0.585537 0.604700 -0.101259
C8    C     C_R   0.736592 0.964146 0.373237 0.023751
C9    C     C_R   0.264486 0.971791 0.624589 0.021511
C10   C     C_R   0.236597 0.464126 0.373232 0.023763
C11   C     C_R   0.764485 0.471786 0.624590 0.021509
C12   C     C_R   0.691060 0.995505 0.405395 -0.176380
C13   C     C_R   0.020221 0.757401 0.102947 -0.124539
C14   C     C_R   0.314142 0.994184 0.594812 -0.172641
C15   C     C_R   0.191070 0.495481 0.405396 -0.176369
C16   C     C_R   0.814142 0.494171 0.594813 -0.172646
C17   C     C_R   0.695968 0.978045 0.455713 -0.153401
C18   C     C_R   0.310193 0.987849 0.543698 -0.143853
C19   C     C_R   0.195980 0.477995 0.455711 -0.153402
C20   C     C_R   0.810192 0.487835 0.543699 -0.143855
C21   C     C_R   0.746017 0.927637 0.474405 -0.033301
C22   C     C_R   0.256728 0.958029 0.521508 -0.020668
C23   C     C_R   0.246027 0.427564 0.474395 -0.033320
C24   C     C_R   0.980034 0.757219 0.896881 -0.123235
C25   C     C_R   0.756725 0.458023 0.521509 -0.020669
C26   C     C_R   0.790042 0.889803 0.442517 -0.111601
C27   C     C_R   0.207968 0.929147 0.550725 -0.114753
C28   C     C_R   0.290046 0.389734 0.442499 -0.111567
C29   C     C_R   0.707965 0.429148 0.550726 -0.114755
C30   C     C_R   0.786183 0.908922 0.391513 0.254193
C31   C     C_R   0.210986 0.937031 0.602450 0.228951
C32   C     C_R   0.286183 0.408877 0.391498 0.254253
C33   C     C_R   0.710983 0.437033 0.602451 0.228953
C34   C     C_R   0.795784 0.974171 0.554515 0.008779
C35   C     C_R   0.508781 0.258780 0.051743 0.008871
C36   C     C_R   0.214599 0.005721 0.437766 0.011215
C37   C     C_R   0.295804 0.474100 0.554499 0.008772
C38   C     C_R   0.714599 0.505719 0.437766 0.011219
C39   C     C_R   0.721333 0.348553 0.321311 0.547878
C40   C     C_R   0.279006 0.347860 0.678344 0.546638
C41   C     C_R   0.221333 0.848553 0.321311 0.547894
C42   C     C_R   0.779004 0.847864 0.678346 0.546634
C43   C     C_R   0.799109 0.959097 0.605967 -0.096670
C44   C     C_R   0.209314 0.978444 0.387501 -0.088511
C45   C     C_R   0.299124 0.459050 0.605953 -0.096680
C46   C     C_R   0.491470 0.258673 0.948081 0.008565
C47   C     C_R   0.709314 0.478444 0.387501 -0.088513
C48   C     C_R   0.716491 0.838223 0.602980 -0.127938
C49   C     C_R   0.283399 0.843576 0.397338 -0.131813
C50   C     C_R   0.216500 0.338189 0.602975 -0.127935
C51   C     C_R   0.783396 0.343568 0.397339 -0.131815
C52   C     C_R   0.711741 0.853482 0.552380 -0.133829
C53   C     C_R   0.289881 0.869882 0.446815 -0.127502
C54   C     C_R   0.211755 0.353421 0.552373 -0.133838
C55   C     C_R   0.789876 0.369872 0.446817 -0.127507
C56   C     C_R   0.752240 0.917533 0.527852 0.034334
C57   C     C_R   0.008781 0.758780 0.051743 0.008868
C58   C     C_R   0.254051 0.946754 0.467704 0.036919
C59   C     C_R   0.252258 0.417456 0.527841 0.034329
C60   C     C_R   0.754048 0.446748 0.467705 0.036921
C61   C     C_R   0.761881 0.887334 0.629633 0.016918
C62   C     C_R   0.240867 0.894235 0.368166 0.017808
C63   C     C_R   0.261889 0.387308 0.629626 0.016919
C64   C     C_R   0.740866 0.394232 0.368167 0.017803
C65   C     C_R   0.553778 0.158917 0.321377 0.540804
C66   C     C_R   0.445413 0.159066 0.678174 0.547433
C67   C     C_R   0.053778 0.658917 0.321377 0.540812
C68   C     C_R   0.991470 0.758673 0.948081 0.008566
C69   C     C_R   0.945413 0.659066 0.678174 0.547435
C70   C     C_R   0.731687 0.001324 0.322648 0.600879
C71   C     C_R   0.268782 0.003391 0.676424 0.592184
C72   C     C_R   0.231688 0.501321 0.322647 0.600862
C73   C     C_R   0.768782 0.503390 0.676425 0.592180
C74   C     C_R   0.515331 0.069885 0.102709 -0.108336
C75   C     C_R   0.484318 0.069659 0.897477 -0.108848
C76   C     C_R   0.015331 0.569885 0.102709 -0.108337
C77   C     C_R   0.984318 0.569659 0.897477 -0.108848
C78   C     C_R   0.506298 0.069824 0.051697 0.009725
C79   C     C_R   0.503581 0.164448 0.025894 0.062425
C80   C     C_R   0.493365 0.069697 0.948490 0.009668
C81   C     C_R   0.006299 0.569824 0.051697 0.009724
C82   C     C_R   0.993365 0.569697 0.948490 0.009668
C83   C     C_R   0.496723 0.976164 0.974483 -0.123494
C84   C     C_R   0.502683 0.976230 0.025883 -0.123299
C85   C     C_R   0.996723 0.476164 0.974483 -0.123494
C86   C     C_R   0.002683 0.476230 0.025883 -0.123298
C87   C     C_3   0.837991 0.047287 0.527313 -0.256305
C88   C     C_3   0.883732 0.104618 0.559926 -0.306611
C89   C     C_3   0.924594 0.172551 0.528685 -0.444929
C90   C     C_R   0.496373 0.164388 0.974112 0.062314
C91   C     C_3   0.178955 0.095047 0.459887 -0.256364
C92   C     C_3   0.133240 0.145669 0.424532 -0.303188
C93   C     C_3   0.097217 0.229783 0.450198 -0.452228
C94   C     C_3   0.338016 0.547195 0.527291 -0.256303
C95   C     C_3   0.383751 0.604551 0.559899 -0.306624
C96   C     C_3   0.424612 0.672470 0.528651 -0.444914
C97   C     C_3   0.678957 0.595048 0.459887 -0.256366
C98   C     C_3   0.633247 0.645678 0.424530 -0.303185
C99   C     C_3   0.597229 0.729800 0.450194 -0.452220
C100  C     C_R   0.003581 0.664448 0.025894 0.062424
C101  C     C_R   0.277942 0.348867 0.820748 0.588179
C102  C     C_R   0.996373 0.664388 0.974111 0.062315
C103  C     C_R   0.504886 0.352287 0.025535 -0.130584
C104  C     C_R   0.495665 0.352237 0.974104 -0.130296
C105  C     C_R   0.004887 0.852287 0.025535 -0.130581
C106  C     C_R   0.995665 0.852237 0.974104 -0.130296
C107  C     C_R   0.738122 0.957124 0.129487 0.035503
C108  C     C_R   0.261921 0.956983 0.870543 0.034438
C109  C     C_R   0.238122 0.457124 0.129487 0.035510
C110  C     C_R   0.761921 0.456983 0.870543 0.034438
C111  C     C_R   0.793744 0.953771 0.106200 -0.081834
C112  C     C_R   0.222069 0.848971 0.179275 0.590018
C113  C     C_R   0.206302 0.953497 0.893830 -0.081558
C114  C     C_R   0.293744 0.453770 0.106200 -0.081849
C115  C     C_R   0.706302 0.453497 0.893830 -0.081558
C116  C     C_R   0.797168 0.933472 0.055373 -0.097725
C117  C     C_R   0.202906 0.933315 0.944686 -0.097660
C118  C     C_R   0.297168 0.433472 0.055374 -0.097721
C119  C     C_R   0.702906 0.433315 0.944686 -0.097660
C120  C     C_R   0.744882 0.918850 0.026972 0.045586
C121  C     C_R   0.255215 0.918942 0.973100 0.045501
C122  C     C_R   0.244882 0.418849 0.026972 0.045587
C123  C     C_R   0.777942 0.848867 0.820748 0.588177
C124  C     C_R   0.755215 0.418942 0.973100 0.045501
C125  C     C_R   0.689712 0.916391 0.051164 -0.086311
C126  C     C_R   0.310383 0.916552 0.948912 -0.086518
C127  C     C_R   0.189713 0.416391 0.051164 -0.086311
C128  C     C_R   0.810383 0.416552 0.948912 -0.086517
C129  C     C_R   0.553598 0.157278 0.177547 0.552492
C130  C     C_R   0.446389 0.157198 0.822455 0.553925
C131  C     C_R   0.053599 0.657278 0.177547 0.552510
C132  C     C_R   0.946389 0.657199 0.822455 0.553925
C133  C     C_R   0.686506 0.933697 0.101880 -0.106372
C134  C     C_R   0.474273 0.162558 0.871825 -0.003766
C135  C     C_R   0.313564 0.933731 0.898172 -0.106547
C136  C     C_R   0.186506 0.433697 0.101880 -0.106367
C137  C     C_R   0.813564 0.433731 0.898172 -0.106546
C138  C     C_R   0.705540 0.855057 0.945211 -0.108111
C139  C     C_R   0.294619 0.855456 0.054944 -0.108138
C140  C     C_R   0.205540 0.355056 0.945211 -0.108112
C141  C     C_R   0.794619 0.355456 0.054944 -0.108140
C142  C     C_R   0.707438 0.850618 0.893464 0.217675
C143  C     C_R   0.292692 0.851066 0.106687 0.218691
C144  C     C_R   0.207438 0.350618 0.893464 0.217675
C145  C     C_R   0.525685 0.162775 0.128184 -0.003965
C146  C     C_R   0.792692 0.351066 0.106687 0.218676
C147  C     C_R   0.792645 0.967036 0.894461 0.222855
C148  C     C_R   0.207398 0.967296 0.105506 0.223849
C149  C     C_R   0.292646 0.467036 0.894461 0.222854
C150  C     C_R   0.707398 0.467296 0.105506 0.223859
C151  C     C_R   0.788344 0.973443 0.946051 -0.108334
C152  C     C_R   0.211724 0.973681 0.053913 -0.108347
C153  C     C_R   0.288344 0.473442 0.946052 -0.108334
C154  C     C_R   0.711724 0.473681 0.053913 -0.108345
C155  C     C_R   0.747381 0.912991 0.972107 -0.070070
C156  C     C_R   0.974273 0.662558 0.871825 -0.003766
C157  C     C_R   0.252733 0.913248 0.027962 -0.070315
C158  C     C_R   0.247381 0.412990 0.972107 -0.070071
C159  C     C_R   0.752733 0.413247 0.027962 -0.070313
C160  C     C_R   0.756629 0.894687 0.868186 0.001002
C161  C     C_R   0.243431 0.894999 0.131867 0.001700
C162  C     C_R   0.256629 0.394686 0.868187 0.001002
C163  C     C_R   0.743431 0.394999 0.131867 0.001701
C164  C     C_R   0.525057 0.168942 0.369918 0.043042
C165  C     C_R   0.470029 0.169819 0.628136 0.052450
C166  C     C_R   0.025056 0.668943 0.369918 0.043028
C167  C     C_R   0.025685 0.662775 0.128183 -0.003956
C168  C     C_R   0.970029 0.669819 0.628136 0.052449
C169  C     C_R   0.531029 0.261516 0.396599 -0.090366
C170  C     C_R   0.456485 0.258872 0.600379 -0.101977
C171  C     C_R   0.031027 0.761517 0.396599 -0.090606
C172  C     C_R   0.956486 0.758873 0.600379 -0.101980
C173  C     C_R   0.518072 0.264381 0.446983 -0.094033
C174  C     C_R   0.466145 0.261029 0.549497 -0.126492
C175  C     C_R   0.018070 0.764382 0.446982 -0.094056
C176  C     C_R   0.966146 0.761030 0.549497 -0.126493
C177  C     C_R   0.731142 0.001780 0.179237 0.560835
C178  C     C_R   0.520220 0.257401 0.102947 -0.124560
C179  C     C_R   0.268860 0.001704 0.820764 0.558179
C180  C     C_R   0.231142 0.501780 0.179237 0.560822
C181  C     C_R   0.768861 0.501704 0.820764 0.558178
C182  C     C_R   0.498070 0.175181 0.471314 0.036885
C183  C     C_R   0.490595 0.174974 0.525590 0.032607
C184  C     C_R   0.998070 0.675182 0.471314 0.036936
C185  C     C_R   0.990595 0.674974 0.525590 0.032607
C186  C     C_R   0.487325 0.085097 0.443717 -0.111307
C187  C     C_R   0.507657 0.088413 0.553824 -0.110245
C188  C     C_R   0.987325 0.585097 0.443717 -0.111275
Cr1   Cr    Cr6+3 0.756570 0.170940 0.251190 1.128496
Cr2   Cr    Cr6+3 0.374010 0.036240 0.749520 1.048643
Cr3   Cr    Cr6+3 0.125990 0.536240 0.250480 1.048494
Cr4   Cr    Cr6+3 0.874010 0.536240 0.749520 1.048639
Cr5   Cr    Cr6+3 0.243430 0.170940 0.748810 1.135894
Cr6   Cr    Cr6+3 0.256570 0.670940 0.251190 1.128324
Cr7   Cr    Cr6+3 0.743430 0.670940 0.748810 1.135898
Cr8   Cr    Cr6+3 0.623740 0.299110 0.249580 1.087812
Cr9   Cr    Cr6+3 0.376260 0.299110 0.750420 1.105257
Cr10  Cr    Cr6+3 0.123740 0.799110 0.249580 1.087829
Cr11  Cr    Cr6+3 0.876260 0.799110 0.750420 1.105253
Cr12  Cr    Cr6+3 0.625990 0.036240 0.250480 1.048474
H1    H     H_    0.480464 0.996166 0.878487 0.160203
H2    H     H_    0.357314 0.936672 0.881449 0.132084
H3    H     H_    0.398317 0.731756 0.508447 0.147285
H4    H     H_    0.457229 0.712238 0.553198 0.151503
H5    H     H_    0.360206 0.654181 0.587120 0.180682
H6    H     H_    0.412104 0.547794 0.580110 0.164469
H7    H     H_    0.363442 0.501862 0.499646 0.151228
H8    H     H_    0.310758 0.605322 0.506919 0.162501
H9    H     H_    0.576650 0.699943 0.484755 0.148911
H10   H     H_    0.626208 0.796517 0.458985 0.159131
H11   H     H_    0.561198 0.756944 0.424926 0.152673
H12   H     H_    0.656576 0.681069 0.392436 0.184537
H13   H     H_    0.142751 0.436547 0.118595 0.131963
H14   H     H_    0.601508 0.586071 0.410845 0.163233
H15   H     H_    0.653952 0.566401 0.492485 0.143509
H16   H     H_    0.710832 0.654882 0.473078 0.162299
H17   H     H_    0.922422 0.932729 0.320336 0.366926
H18   H     H_    0.078271 0.867646 0.584508 0.332829
H19   H     H_    0.422095 0.432889 0.319884 0.367085
H20   H     H_    0.578264 0.367669 0.584511 0.332828
H21   H     H_    0.602666 0.813757 0.790354 0.365059
H22   H     H_    0.397347 0.814398 0.209940 0.362787
H23   H     H_    0.102666 0.313757 0.790354 0.365058
H24   H     H_    0.857314 0.436672 0.881449 0.132084
H25   H     H_    0.897347 0.314401 0.209940 0.362807
H26   H     H_    0.549706 0.329882 0.379512 0.129855
H27   H     H_    0.434782 0.324625 0.617276 0.136526
H28   H     H_    0.049703 0.829883 0.379511 0.129705
H29   H     H_    0.934784 0.824627 0.617276 0.136530
H30   H     H_    0.528147 0.022116 0.536408 0.099308
H31   H     H_    0.470099 0.016215 0.461366 0.097422
H32   H     H_    0.028145 0.522115 0.536408 0.099307
H33   H     H_    0.518939 0.996420 0.121841 0.160434
H34   H     H_    0.970099 0.516215 0.461366 0.097409
H35   H     H_    0.507697 0.016039 0.625303 0.133749
H36   H     H_    0.495555 0.009754 0.373557 0.134399
H37   H     H_    0.007695 0.516038 0.625302 0.133748
H38   H     H_    0.995556 0.509754 0.373557 0.134393
H39   H     H_    0.526858 0.334827 0.467353 0.099098
H40   H     H_    0.452227 0.328480 0.528646 0.105496
H41   H     H_    0.026856 0.834828 0.467353 0.099077
H42   H     H_    0.952228 0.828482 0.528646 0.105487
H43   H     H_    0.652857 0.038615 0.391825 0.135818
H44   H     H_    0.980464 0.496166 0.878487 0.160203
H45   H     H_    0.355425 0.022243 0.610928 0.142016
H46   H     H_    0.152870 0.538607 0.391833 0.135818
H47   H     H_    0.855426 0.522225 0.610928 0.142019
H48   H     H_    0.832820 0.998087 0.627719 0.139171
H49   H     H_    0.178444 0.018450 0.363338 0.139024
H50   H     H_    0.332837 0.498045 0.627702 0.139167
H51   H     H_    0.678446 0.518452 0.363338 0.139030
H52   H     H_    0.493893 0.903020 0.955134 0.157304
H53   H     H_    0.505324 0.903130 0.045370 0.157928
H54   H     H_    0.993893 0.403020 0.955134 0.157304
H55   H     H_    0.018939 0.496420 0.121841 0.160435
H56   H     H_    0.005324 0.403130 0.045370 0.157930
H57   H     H_    0.661600 0.006435 0.480291 0.134207
H58   H     H_    0.348561 0.007587 0.521347 0.130591
H59   H     H_    0.161618 0.506385 0.480295 0.134211
H60   H     H_    0.848562 0.507568 0.521348 0.130592
H61   H     H_    0.677819 0.811808 0.532022 0.109799
H62   H     H_    0.320317 0.825659 0.469770 0.109253
H63   H     H_    0.177831 0.311745 0.532019 0.109801
H64   H     H_    0.820309 0.325645 0.469772 0.109244
H65   H     H_    0.687190 0.782798 0.620497 0.149331
H66   H     H_    0.648353 0.907369 0.030767 0.120362
H67   H     H_    0.308397 0.778628 0.383081 0.144555
H68   H     H_    0.187194 0.282778 0.620497 0.149335
H69   H     H_    0.808392 0.278618 0.383082 0.144562
H70   H     H_    0.827905 0.848321 0.457736 0.146733
H71   H     H_    0.167695 0.901163 0.532934 0.124880
H72   H     H_    0.327908 0.348236 0.457711 0.146738
H73   H     H_    0.667691 0.401168 0.532936 0.124879
H74   H     H_    0.472545 0.329118 0.877205 0.172853
H75   H     H_    0.527951 0.329291 0.122482 0.171368
H76   H     H_    0.972546 0.829118 0.877205 0.172853
H77   H     H_    0.351756 0.907709 0.969320 0.120182
H78   H     H_    0.027952 0.829291 0.122482 0.171387
H79   H     H_    0.491894 0.425266 0.954685 0.153384
H80   H     H_    0.508894 0.425348 0.044810 0.152905
H81   H     H_    0.991894 0.925266 0.954685 0.153384
H82   H     H_    0.008894 0.925348 0.044809 0.152910
H83   H     H_    0.834160 0.970740 0.126796 0.170150
H84   H     H_    0.165868 0.970310 0.873209 0.172207
H85   H     H_    0.334161 0.470739 0.126796 0.170103
H86   H     H_    0.665868 0.470309 0.873209 0.172207
H87   H     H_    0.670931 0.812853 0.964293 0.165945
H88   H     H_    0.148353 0.407368 0.030767 0.120362
H89   H     H_    0.329269 0.813300 0.035937 0.165832
H90   H     H_    0.170931 0.312853 0.964293 0.165945
H91   H     H_    0.829269 0.313300 0.035937 0.165831
H92   H     H_    0.840565 0.932824 0.038020 0.120401
H93   H     H_    0.159513 0.932587 0.962049 0.120629
H94   H     H_    0.340566 0.432822 0.038020 0.120397
H95   H     H_    0.659513 0.432587 0.962049 0.120629
H96   H     H_    0.816884 0.026822 0.965956 0.174378
H97   H     H_    0.183159 0.026988 0.033925 0.174390
H98   H     H_    0.316884 0.526821 0.965956 0.174378
H99   H     H_    0.851756 0.407709 0.969320 0.120182
H100  H     H_    0.683159 0.526987 0.033925 0.174390
H101  H     H_    0.872965 0.210339 0.880669 0.368514
H102  H     H_    0.126977 0.210487 0.119033 0.368064
H103  H     H_    0.372964 0.710340 0.880669 0.368515
H104  H     H_    0.626977 0.710487 0.119033 0.368061
H105  H     H_    0.949484 0.124921 0.501519 0.157111
H106  H     H_    0.898300 0.231861 0.508497 0.147280
H107  H     H_    0.957219 0.212291 0.553236 0.151514
H108  H     H_    0.860193 0.154233 0.587157 0.180685
H109  H     H_    0.912085 0.047844 0.580127 0.164473
H110  H     H_    0.642751 0.936547 0.118595 0.131963
H111  H     H_    0.863413 0.001975 0.499658 0.151196
H112  H     H_    0.810730 0.105428 0.506954 0.162489
H113  H     H_    0.076639 0.199919 0.484758 0.148908
H114  H     H_    0.126192 0.296504 0.458991 0.159131
H115  H     H_    0.061185 0.256923 0.424929 0.152660
H116  H     H_    0.156565 0.181067 0.392437 0.184542
H117  H     H_    0.101505 0.086057 0.410846 0.163186
H118  H     H_    0.153952 0.066399 0.492487 0.143510
H119  H     H_    0.210828 0.154885 0.473076 0.162289
H120  H     H_    0.449512 0.624823 0.501497 0.157151
O1    O     O_R   0.769900 0.064540 0.196060 -0.457996
O2    O     O_R   0.433710 0.069580 0.694600 -0.522163
O3    O     O_R   0.066290 0.569580 0.305400 -0.518986
O4    O     O_R   0.933710 0.569580 0.694600 -0.522164
O5    O     O_R   0.680760 0.993330 0.302620 -0.510554
O6    O     O_R   0.319240 0.993330 0.697380 -0.512205
O7    O     O_R   0.180760 0.493330 0.302620 -0.510516
O8    O     O_R   0.819240 0.493330 0.697380 -0.512209
O9    O     O_3   0.668770 0.168760 0.250420 -0.285575
O10   O     O_3   0.331230 0.168760 0.749580 -0.289861
O11   O     O_3   0.168770 0.668760 0.250420 -0.285550
O12   O     O_R   0.230100 0.064540 0.803940 -0.455334
O13   O     O_3   0.831230 0.668760 0.749580 -0.289859
O14   O     O_R   0.750800 0.274080 0.199250 -0.439088
O15   O     O_R   0.249200 0.274080 0.800750 -0.439656
O16   O     O_R   0.250800 0.774080 0.199250 -0.439077
O17   O     O_R   0.749200 0.774080 0.800750 -0.439657
O18   O     O_R   0.669990 0.371670 0.194150 -0.444851
O19   O     O_R   0.330010 0.371670 0.805850 -0.444295
O20   O     O_R   0.169990 0.871670 0.194150 -0.444848
O21   O     O_R   0.830010 0.871670 0.805850 -0.444297
O22   O     O_R   0.574600 0.238480 0.197800 -0.490423
O23   O     O_R   0.269900 0.564540 0.196060 -0.458070
O24   O     O_R   0.425400 0.238480 0.802200 -0.487225
O25   O     O_R   0.074600 0.738480 0.197800 -0.490401
O26   O     O_R   0.925400 0.738480 0.802200 -0.487225
O27   O     O_R   0.566130 0.068680 0.194240 -0.517688
O28   O     O_R   0.433870 0.068680 0.805760 -0.517621
O29   O     O_R   0.066130 0.568680 0.194240 -0.517691
O30   O     O_R   0.933870 0.568680 0.805760 -0.517621
O31   O     O_R   0.680610 0.992490 0.199570 -0.506616
O32   O     O_R   0.319390 0.992490 0.800430 -0.507288
O33   O     O_R   0.180610 0.492490 0.199570 -0.506601
O34   O     O_R   0.730100 0.564540 0.803940 -0.455334
O35   O     O_R   0.819390 0.492490 0.800430 -0.507289
O36   O     O_R   0.770060 0.065440 0.307230 -0.462581
O37   O     O_R   0.229940 0.065440 0.692770 -0.456595
O38   O     O_R   0.270060 0.565440 0.307230 -0.462757
O39   O     O_R   0.729940 0.565440 0.692770 -0.456589
O40   O     O_R   0.750960 0.274920 0.302300 -0.501537
O41   O     O_R   0.249040 0.274920 0.697700 -0.502838
O42   O     O_R   0.250960 0.774920 0.302300 -0.501531
O43   O     O_R   0.749040 0.774920 0.697700 -0.502835
O44   O     O_R   0.670160 0.372580 0.305320 -0.518202
O45   O     O_R   0.574760 0.239320 0.300850 -0.504658
O46   O     O_R   0.329840 0.372580 0.694680 -0.516844
O47   O     O_R   0.170160 0.872580 0.305320 -0.518207
O48   O     O_R   0.829840 0.872580 0.694680 -0.516849
O49   O     O_2   0.901734 0.009776 0.860367 -0.282464
O50   O     O_2   0.816963 0.083528 0.814238 -0.244218
O51   O     O_3   0.845566 0.164637 0.899214 -0.537949
O52   O     O_2   0.098266 0.009889 0.139498 -0.286489
O53   O     O_2   0.182974 0.083647 0.185617 -0.244243
O54   O     O_3   0.154422 0.164846 0.100553 -0.537490
O55   O     O_2   0.401734 0.509776 0.860367 -0.282463
O56   O     O_R   0.425240 0.239320 0.699150 -0.494978
O57   O     O_2   0.316964 0.583528 0.814238 -0.244214
O58   O     O_3   0.345567 0.664636 0.899214 -0.537949
O59   O     O_2   0.598266 0.509889 0.139498 -0.286517
O60   O     O_2   0.682973 0.583646 0.185617 -0.244249
O61   O     O_3   0.654422 0.664846 0.100553 -0.537488
O62   O     O_2   0.877841 0.779136 0.377104 -0.298828
O63   O     O_2   0.817295 0.825645 0.304281 -0.259955
O64   O     O_3   0.889884 0.963334 0.340176 -0.519955
O65   O     O_2   0.167389 0.849249 0.684908 -0.223236
O66   O     O_2   0.113690 0.998032 0.651064 -0.285059
O67   O     O_R   0.074760 0.739320 0.300850 -0.504679
O68   O     O_3   0.103530 0.822094 0.605393 -0.511696
O69   O     O_2   0.377832 0.279073 0.377060 -0.298373
O70   O     O_2   0.317266 0.325633 0.304257 -0.260448
O71   O     O_3   0.389883 0.463279 0.340156 -0.520080
O72   O     O_2   0.667384 0.349251 0.684908 -0.223239
O73   O     O_2   0.613691 0.498044 0.651068 -0.285053
O74   O     O_3   0.603522 0.322111 0.605394 -0.511701
O75   O     O_2   0.650959 0.683863 0.858452 -0.274466
O76   O     O_2   0.589256 0.822002 0.892221 -0.307111
O77   O     O_3   0.636552 0.851124 0.805751 -0.498963
O78   O     O_R   0.925240 0.739320 0.699150 -0.494977
O79   O     O_2   0.349299 0.684415 0.141878 -0.276902
O80   O     O_2   0.410902 0.822847 0.108102 -0.308465
O81   O     O_3   0.363407 0.851609 0.194492 -0.498965
O82   O     O_2   0.150959 0.183862 0.858452 -0.274467
O83   O     O_2   0.089256 0.322002 0.892221 -0.307111
O84   O     O_3   0.136552 0.351125 0.805751 -0.498962
O85   O     O_2   0.849299 0.184416 0.141879 -0.276865
O86   O     O_2   0.910902 0.322847 0.108102 -0.308461
O87   O     O_3   0.863407 0.351610 0.194492 -0.498960
O88   O     O_R   0.566290 0.069580 0.305400 -0.518999
S1    S     S_3+6 0.840692 0.056446 0.864930 0.029031
S2    S     S_3+6 0.355908 0.799367 0.137642 0.023168
S3    S     S_3+6 0.144224 0.298779 0.862624 0.025075
S4    S     S_3+6 0.855908 0.299368 0.137642 0.023191
S5    S     S_3+6 0.159297 0.056618 0.134933 0.027662
S6    S     S_3+6 0.340692 0.556446 0.864930 0.029032
S7    S     S_3+6 0.659297 0.556617 0.134933 0.027654
S8    S     S_3+6 0.843529 0.864617 0.352199 0.008472
S9    S     S_3+6 0.147971 0.902321 0.637877 0.024475
S10   S     S_3+6 0.343520 0.364573 0.352174 0.008436
S11   S     S_3+6 0.647967 0.402330 0.637878 0.024475
S12   S     S_3+6 0.644223 0.798779 0.862624 0.025076

loop_
_geom_bond_atom_site_label_1
_geom_bond_atom_site_label_2
_ccdc_geom_bond_type
C7    C168  A    
C92   H116  S    
C34   C56   A    
C77   H44   S    
C21   C26   A    
O69   S10   D    
C52   H61   S    
C6    H38   S    
Cr7   O43   S    
C2    C134  A    
C177  O1    A    
Cr4   O8    S    
C77   C156  A    
C19   H59   S    
O60   S7    D    
C29   C33   A    
C165  C170  A    
C4    C186  A    
C76   H55   S    
C149  C153  A    
C182  C183  S    
C79   C90   A    
Cr8   O44   S    
C69   O4    A    
C7    H37   S    
O74   S11   S    
C25   C60   S    
C151  C155  A    
Cr4   O13   S    
O50   S1    D    
C129  C145  S    
C81   C86   A    
C35   C178  A    
C98   H14   S    
O86   S4    D    
C101  O19   A    
C130  C134  S    
C72   O38   A    
Cr11  O78   S    
C141  H91   S    
C70   O5    A    
C123  O21   A    
C25   C29   A    
C27   C31   A    
C140  C144  A    
C28   C32   A    
H21   O77   S    
C127  C136  A    
C41   O47   A    
C47   C64   A    
C120  C125  A    
H103  O58   S    
C120  C155  S    
C17   C21   A    
O70   S10   D    
C117  H93   S    
C108  C113  A    
C19   C23   A    
C150  C163  A    
C2    H74   S    
C16   C20   A    
C88   H109  S    
C129  O27   A    
C152  H97   S    
Cr9   O19   S    
C36   C91   S    
C173  C182  A    
C22   C27   A    
C142  S12   S    
O71   S10   S    
C67   C166  S    
C36   C44   A    
Cr2   O2    S    
C37   C45   A    
C133  H110  S    
C139  H89   S    
C43   C61   A    
C170  C174  A    
C152  C157  A    
O75   S12   D    
C49   C62   A    
C51   C64   A    
O49   S1    D    
C22   C58   S    
C53   C58   A    
O61   S7    S    
O62   S8    D    
C82   C85   A    
Cr9   O46   S    
C35   C103  A    
Cr11  O48   S    
C71   O37   A    
C69   C168  S    
O52   S5    D    
C131  O29   A    
C89   H106  S    
C48   H65   S    
C49   C53   A    
C70   O36   A    
C51   C55   A    
C34   C87   S    
Cr10  O25   S    
C41   O42   A    
C44   H49   S    
Cr11  O13   S    
C88   C89   S    
C139  C157  A    
C71   O6    A    
C98   C99   S    
Cr10  O47   S    
C169  H26   S    
O54   S5    S    
C149  C162  A    
C143  C161  A    
C24   C156  A    
C178  H75   S    
C27   H71   S    
C28   H72   S    
Cr1   O1    S    
C181  O34   A    
C122  C127  A    
C74   C145  A    
H18   O68   S    
C96   H120  S    
C97   C98   S    
C75   C134  A    
Cr4   O30   S    
Cr3   O33   S    
C99   H11   S    
C85   C86   A    
C72   O7    A    
C23   C59   S    
C137  H24   S    
C65   O45   A    
Cr11  O26   S    
Cr3   O11   S    
C54   H63   S    
C77   C82   A    
O85   S4    D    
C91   H118  S    
C13   C57   A    
C86   H56   S    
C184  C185  S    
C118  C122  A    
Cr10  O11   S    
C140  C158  A    
Cr12  O5    S    
C139  C143  A    
C141  C159  A    
C94   H8    S    
C67   O67   A    
C110  C181  S    
C97   H16   S    
C93   H113  S    
Cr5   O15   S    
Cr2   O32   S    
C43   H48   S    
C47   H51   S    
Cr7   O13   S    
Cr5   O37   S    
C95   H6    S    
C154  H100  S    
O51   S1    S    
C50   C63   A    
C4    H36   S    
C103  H80   S    
C147  C160  A    
Cr4   O4    S    
C13   H78   S    
C96   H4    S    
C54   C59   A    
C29   H73   S    
O53   S5    D    
C55   H64   S    
Cr1   O36   S    
C119  H95   S    
C11   C33   A    
C108  C135  A    
C91   C92   S    
O79   S2    D    
Cr7   O34   S    
C138  H87   S    
C116  H92   S    
Cr4   O35   S    
H23   O84   S    
C116  C120  A    
C108  C179  S    
C12   C17   A    
C147  C151  A    
H101  O51   S    
C83   C84   A    
C15   H46   S    
C48   C52   A    
C8    C12   A    
C82   C102  A    
C23   C28   A    
C171  H28   S    
C30   S8    S    
C37   C59   A    
C109  C114  A    
Cr7   O39   S    
C113  C117  A    
C123  O17   A    
O66   S9    D    
Cr5   O41   S    
Cr10  O67   S    
Cr6   O42   S    
C26   C30   A    
C115  C119  A    
C97   H15   S    
C38   C60   A    
C17   H57   S    
H19   O71   S    
C179  O12   A    
O64   S8    S    
C176  H42   S    
C136  H13   S    
C99   H9    S    
C66   C165  S    
Cr1   O9    S    
C18   C22   A    
C107  C111  A    
C118  H94   S    
Cr5   O10   S    
C148  C152  A    
C172  H29   S    
C173  H39   S    
C88   H108  S    
C67   O3    A    
C149  S6    S    
C8    C70   S    
C154  C159  A    
C66   O56   A    
C177  O31   A    
C109  C180  S    
O59   S7    D    
C144  S3    S    
O55   S6    D    
C93   H115  S    
C35   C79   A    
C132  C156  S    
Cr7   O17   S    
O80   S2    D    
C113  H84   S    
C140  H90   S    
C84   H53   S    
C169  C173  A    
C1    O18   A    
C55   C60   A    
C172  C176  A    
C132  O26   A    
C10   C72   S    
C138  C155  A    
C87   C88   S    
C6    C166  A    
C83   H52   S    
Cr6   O16   S    
Cr3   O29   S    
Cr9   O56   S    
C131  O25   A    
Cr8   O18   S    
H22   O81   S    
C75   H1    S    
C176  C185  A    
C15   C19   A    
C39   C64   S    
C85   H54   S    
C50   C54   A    
C40   C63   S    
C101  C162  S    
C66   O2    A    
C68   C102  A    
C3    C7    A    
C80   C83   A    
C24   H76   S    
C20   C25   A    
C182  C186  A    
O68   S9    S    
Cr2   O10   S    
C26   H70   S    
C91   H119  S    
H17   O64   S    
C145  C178  A    
C111  C116  A    
O83   S3    D    
C124  C128  A    
C14   H45   S    
C65   O88   A    
C170  H27   S    
C87   H111  S    
Cr5   O12   S    
C111  H83   S    
C41   C62   S    
C112  O20   A    
C104  H79   S    
C147  S1    S    
C126  H77   S    
C50   H68   S    
C34   C43   A    
C151  H96   S    
C180  O33   A    
C146  S4    S    
C138  C142  A    
O73   S11   D    
C186  H31   S    
C101  O15   A    
Cr11  O21   S    
Cr12  O31   S    
C46   C104  A    
C121  C126  A    
C40   O41   A    
Cr2   O28   S    
C3    H32   S    
C9    C14   A    
C31   S9    S    
C130  O24   A    
C174  H40   S    
C11   C16   A    
C105  H82   S    
O65   S9    D    
C74   H33   S    
C141  C146  A    
O81   S2    S    
C33   S11   S    
C126  C135  A    
O57   S6    D    
C11   C73   S    
Cr3   O3    S    
Cr6   O11   S    
C188  H34   S    
C112  O16   A    
C128  H99   S    
C146  C163  A    
C16   H47   S    
C87   H112  S    
C42   O48   A    
C127  H88   S    
C110  C137  A    
C94   H7    S    
C9    C71   S    
C174  C183  A    
C21   C56   S    
C46   C90   A    
C81   C100  A    
C105  C106  A    
C36   C58   A    
Cr1   O14   S    
Cr8   O45   S    
C8    C30   A    
C107  C133  A    
C130  O28   A    
C98   H12   S    
C132  O30   A    
C92   C93   S    
C94   C95   S    
C18   H58   S    
C150  S7    S    
C24   C68   A    
C168  C172  A    
C92   H117  S    
C1    C163  S    
C74   C78   A    
C103  C104  A    
C3    C185  A    
C143  S2    S    
C40   O46   A    
C110  C115  A    
C180  O23   A    
C175  C184  A    
Cr12  O88   S    
C153  H98   S    
C95   H5    S    
C57   C105  A    
C125  H66   S    
C14   C18   A    
C95   C96   S    
C89   H105  S    
C119  C124  A    
C2    C46   A    
C148  C161  A    
C183  C187  A    
C10   C15   A    
C89   H107  S    
C13   C167  A    
C123  C160  S    
C115  H86   S    
C124  C159  S    
C153  C158  A    
H102  O54   S    
C76   C167  A    
C117  C121  A    
C187  H30   S    
O82   S3    D    
C4    C164  A    
O84   S3    S    
C5    C165  A    
Cr8   O22   S    
C75   C80   A    
Cr6   O38   S    
H104  O61   S    
C166  C171  A    
C121  C157  S    
C181  O35   A    
C109  C136  A    
C80   C90   A    
C164  C169  A    
C68   C106  A    
C38   C97   S    
C135  H2    S    
C148  S5    S    
C49   H67   S    
C122  C158  S    
C73   O39   A    
Cr2   O6    S    
C78   C79   A    
C44   C62   A    
C57   C100  A    
C171  C175  A    
C45   C63   A    
C53   H62   S    
C184  C188  A    
C128  C137  A    
C10   C32   A    
C45   H50   S    
Cr10  O20   S    
C179  O32   A    
C12   H43   S    
C93   H114  S    
C100  C102  A    
C39   O40   A    
O87   S4    S    
C42   C61   S    
C38   C47   A    
C114  C118  A    
C20   H60   S    
C6    C188  A    
O58   S6    S    
C51   H69   S    
C5    H35   S    
C129  O22   A    
Cr1   O40   S    
C96   H3    S    
C125  C133  A    
Cr6   O23   S    
C175  H41   S    
Cr12  O27   S    
C144  C162  A    
Cr8   O9    S    
C142  C160  A    
C32   S10   S    
C76   C81   A    
C114  H85   S    
O76   S12   D    
C42   O43   A    
C106  H81   S    
H20   O74   S    
C69   O78   A    
Cr9   O10   S    
C1    O14   A    
C48   C61   A    
Cr9   O24   S    
C65   C164  S    
Cr3   O7    S    
C37   C94   S    
H25   O87   S    
C39   O44   A    
C112  C161  S    
C9    C31   A    
C131  C167  S    
C73   O8    A    
C78   C84   A    
O77   S12   S    
C150  C154  A    
C5    C187  A    
O63   S8    D    
O72   S11   D    
C107  C177  S    
C52   C56   A    
Cr12  O9    S    
C99   H10   S    
