data_mof_unit_32804.cif
_audit_creation_date              2012-12-10T19:03:40-0500
_audit_creation_method            fapswitch 2.2
_symmetry_space_group_name_H-M    P1
_symmetry_Int_Tables_number       1
_space_group_crystal_system       triclinic
_cell_length_a                    15.853816
_cell_length_b                    10.882557
_cell_length_c                    9.638891
_cell_angle_alpha                 89.643023
_cell_angle_beta                  91.413307
_cell_angle_gamma                 91.379951
_cell_volume                      1661.98391197

loop_
_atom_site_label
_atom_site_type_symbol
_atom_type_description
_atom_site_fract_x
_atom_site_fract_y
_atom_site_fract_z
_atom_type_partial_charge
C1    C     C_R   0.504064 0.263068 0.499815 0.784882
C2    C     C_3   0.953662 0.441668 0.621323 -0.471239
C3    C     C_3   0.917136 0.514831 0.496742 0.241931
C4    C     C_3   0.951644 0.651477 0.508126 0.003620
C5    C     C_3   0.053300 0.658156 0.510689 0.273681
C6    C     C_1   0.824801 0.507832 0.501874 -0.074346
C7    C     C_1   0.175623 0.510385 0.492761 -0.108244
C8    C     C_1   0.251011 0.504770 0.495117 -0.207012
C9    C     C_R   0.478047 0.063565 0.611818 0.081565
C10   C     C_R   0.506880 0.129695 0.497172 -0.129943
C11   C     C_R   0.531702 0.063381 0.378424 0.144988
C12   C     C_R   0.340486 0.500236 0.498572 0.832751
C13   C     C_R   0.526186 0.935120 0.381409 -0.260099
C14   C     C_R   0.499018 0.870641 0.498444 -0.121219
C15   C     C_R   0.471808 0.936863 0.611328 0.075877
C16   C     C_3   0.496050 0.926511 0.761227 -0.482624
C17   C     C_3   0.504903 0.066140 0.762510 -0.036026
C18   C     C_R   0.573611 0.501145 0.074779 0.226048
C19   C     C_R   0.427772 0.471315 0.068559 0.194644
C20   C     C_R   0.427553 0.485519 0.921450 -0.065377
C21   C     C_R   0.573699 0.493386 0.929077 0.178707
C22   C     C_3   0.650964 0.573001 0.917833 -0.485389
C23   C     C_R   0.500087 0.737291 0.499879 0.801958
C24   C     C_3   0.647647 0.589885 0.075059 -0.094331
C25   C     C_R   0.659545 0.500236 0.501328 0.810367
C26   C     C_3   0.049971 0.434022 0.610779 -0.408449
C27   C     C_3   0.043558 0.468265 0.349361 0.013057
C28   C     C_3   0.946426 0.453592 0.361513 -0.388847
C29   C     C_1   0.749228 0.503414 0.503569 -0.208371
C30   C     C_3   0.083305 0.518304 0.490899 0.185497
Cu1   Cu    Cu3+1 0.500000 0.499980 0.640670 0.921921
Cu2   Cu    Cu3+1 0.500000 0.500020 0.359330 0.912892
H1    H     H_    0.925362 0.346997 0.623915 0.181798
H2    H     H_    0.081518 0.453979 0.712342 0.148852
H3    H     H_    0.937964 0.486488 0.720612 0.163955
H4    H     H_    0.548379 0.885623 0.294690 0.176328
H5    H     H_    0.442541 0.891224 0.823639 0.175131
H6    H     H_    0.555918 0.877088 0.777980 0.211288
H7    H     H_    0.456233 0.108591 0.826810 0.130798
H8    H     H_    0.065620 0.337184 0.594555 0.201899
H9    H     H_    0.369187 0.477121 0.862668 0.172614
H10   H     H_    0.705949 0.519005 0.886515 0.165481
H11   H     H_    0.641329 0.656803 0.853448 0.215500
H12   H     H_    0.703926 0.552245 0.130161 0.133035
H13   H     H_    0.052813 0.540317 0.269583 0.090829
H14   H     H_    0.926768 0.354865 0.362219 0.179739
H15   H     H_    0.914509 0.494751 0.268881 0.138193
H16   H     H_    0.929526 0.683036 0.610246 0.162548
N1    N     N_R   0.500530 0.500930 0.147930 -0.205843
N2    N     N_R   0.500530 0.500890 0.852020 -0.205874
O1    O     O_R   0.500000 0.319640 0.618810 -0.577301
O2    O     O_R   0.500010 0.319680 0.381230 -0.587445
O3    O     O_R   0.379430 0.499990 0.618840 -0.585367
O4    O     O_R   0.379440 0.500030 0.381260 -0.604074
O5    O     O_R   0.499990 0.680320 0.618770 -0.576929
O6    O     O_R   0.500000 0.680360 0.381190 -0.586233
O7    O     O_R   0.620560 0.499970 0.618740 -0.574009
O8    O     O_R   0.620570 0.500010 0.381160 -0.588527
C31   C     C_3   0.906889 0.737341 0.402353 -0.921793
H17   H     H_    0.930604 0.833239 0.413114 0.245062
H18   H     H_    0.914106 0.706656 0.293971 0.231519
H19   H     H_    0.838261 0.739635 0.422143 0.232844
C32   C     C_3   0.570837 0.122356 0.251476 -0.374676
C33   C     C_3   0.503716 0.145574 0.138612 -0.805451
H20   H     H_    0.446402 0.183552 0.183220 0.270959
H21   H     H_    0.528727 0.211533 0.060681 0.222965
H22   H     H_    0.484815 0.058453 0.086311 0.229115
H23   H     H_    0.618932 0.061333 0.208473 0.173006
H24   H     H_    0.606678 0.208115 0.278105 0.208772
C34   C     C_3   0.595307 0.115153 0.800206 -0.339291
C35   C     C_3   0.665093 0.082087 0.700357 -0.812436
H25   H     H_    0.662075 0.983486 0.672067 0.248366
H26   H     H_    0.661548 0.139106 0.604830 0.236921
H27   H     H_    0.727536 0.101834 0.751129 0.221229
H28   H     H_    0.594341 0.216747 0.809448 0.211750
H29   H     H_    0.612874 0.078719 0.904638 0.196134
C36   C     C_3   0.349828 0.410139 0.130104 -0.350286
C37   C     C_3   0.300912 0.319562 0.034617 -0.990729
H30   H     H_    0.262273 0.369204 0.955782 0.253318
H31   H     H_    0.344711 0.257410 0.982621 0.265943
H32   H     H_    0.256825 0.262331 0.097115 0.258192
H33   H     H_    0.369965 0.352363 0.218838 0.253713
H34   H     H_    0.305573 0.481682 0.162151 0.211092
C38   C     C_3   0.629729 0.722959 0.116661 -0.317946
C39   C     C_3   0.545716 0.772638 0.059245 -0.829846
H35   H     H_    0.529736 0.738839 0.953958 0.254323
H36   H     H_    0.492754 0.745200 0.126470 0.270590
H37   H     H_    0.550110 0.874212 0.054011 0.221014
H38   H     H_    0.631840 0.728529 0.231461 0.208679
H39   H     H_    0.682140 0.783035 0.078953 0.181557
C40   C     C_3   0.084950 0.357379 0.277903 -0.373474
C41   C     C_3   0.089552 0.236723 0.359383 -0.837615
H40   H     H_    0.140756 0.242201 0.439829 0.248025
H41   H     H_    0.028353 0.211490 0.406393 0.242891
H42   H     H_    0.105671 0.161889 0.287584 0.232530
H43   H     H_    0.049223 0.338384 0.179246 0.189905
H44   H     H_    0.150012 0.384599 0.247575 0.204985
C42   C     C_3   0.086741 0.707601 0.656917 -0.335574
C43   C     C_3   0.053977 0.832135 0.706284 -0.864146
H45   H     H_    0.997208 0.862291 0.647611 0.253477
H46   H     H_    0.037113 0.825735 0.817405 0.225845
H47   H     H_    0.103832 0.905049 0.699714 0.246340
H48   H     H_    0.068305 0.642744 0.739808 0.173277
H49   H     H_    0.156883 0.711870 0.659554 0.200085
C44   C     C_3   0.092500 0.740761 0.388777 -0.343231
C45   C     C_3   0.112296 0.877527 0.413658 -0.824030
H50   H     H_    0.056400 0.928251 0.445250 0.254405
H51   H     H_    0.165156 0.889514 0.490243 0.253515
H52   H     H_    0.133789 0.920093 0.315186 0.222033
H53   H     H_    0.153486 0.703458 0.357010 0.181333
H54   H     H_    0.052870 0.736032 0.292938 0.185559

loop_
_geom_bond_atom_site_label_1
_geom_bond_atom_site_label_2
_ccdc_geom_bond_type
C2    H3    S    
C44   H53   S    
C28   H15   S    
C18   C21   A    
C19   C20   A    
Cu2   O8    S    
C3    C6    S    
C20   H9    S    
C23   O6    A    
C5    C44   S    
C36   C37   S    
C28   H14   S    
C25   O7    A    
C18   C24   S    
C3    C28   S    
C11   C32   S    
C37   H31   S    
C45   H50   S    
C36   H34   S    
C42   H48   S    
C17   H7    S    
C19   C36   S    
Cu2   O2    S    
C20   N2    A    
C40   H43   S    
C26   H2    S    
C32   H24   S    
C16   C17   S    
C27   C40   S    
C34   C35   S    
C9    C10   A    
C12   O3    A    
C16   H5    S    
C27   H13   S    
C44   H54   S    
C31   H17   S    
C7    C30   S    
C21   C22   S    
C27   C30   S    
C38   H39   S    
Cu2   O4    S    
C21   N2    A    
C39   H36   S    
C25   C29   S    
C31   H18   S    
C33   H22   S    
C7    C8    T    
C38   C39   S    
C13   H4    S    
C40   C41   S    
C35   H26   S    
C37   H30   S    
C39   H35   S    
C41   H42   S    
C40   H44   S    
C33   H21   S    
C14   C23   S    
C19   N1    A    
C43   H45   S    
C8    C12   S    
C43   H47   S    
C41   H41   S    
C2    C26   S    
Cu1   O3    S    
C1    O1    A    
C2    H1    S    
C9    C17   S    
C43   H46   S    
C26   C30   S    
C34   H29   S    
C24   H12   S    
C22   C24   S    
C38   H38   S    
Cu1   N2    S    
C3    C4    S    
C27   C28   S    
C5    C30   S    
C4    H16   S    
C39   H37   S    
C32   H23   S    
C31   H19   S    
Cu1   Cu2   S    
C1    C10   S    
Cu1   O1    S    
C4    C5    S    
C35   H27   S    
C23   O5    A    
C44   C45   S    
C33   H20   S    
Cu1   O7    S    
C2    C3    S    
C9    C15   A    
C35   H25   S    
C11   C13   A    
C37   H32   S    
C26   H8    S    
C22   H10   S    
C45   H51   S    
C36   H33   S    
C42   H49   S    
C4    C31   S    
C41   H40   S    
C24   C38   S    
C1    O2    A    
Cu2   N1    S    
C10   C11   A    
C32   C33   S    
C17   C34   S    
C6    C29   T    
C5    C42   S    
C42   C43   S    
C25   O8    A    
C34   H28   S    
C14   C15   A    
Cu1   O5    S    
C13   C14   A    
Cu2   O6    S    
C22   H11   S    
C12   O4    A    
C15   C16   S    
C18   N1    A    
C16   H6    S    
C45   H52   S    
