data_mof_unit_53313.cif
_audit_creation_date              2012-12-10T16:44:40-0500
_audit_creation_method            fapswitch 2.2
_symmetry_space_group_name_H-M    P1
_symmetry_Int_Tables_number       1
_space_group_crystal_system       triclinic
_cell_length_a                    15.080519
_cell_length_b                    8.792268
_cell_length_c                    7.698583
_cell_angle_alpha                 103.696214
_cell_angle_beta                  95.16201
_cell_angle_gamma                 95.859444
_cell_volume                      979.658391262

loop_
_atom_site_label
_atom_site_type_symbol
_atom_type_description
_atom_site_fract_x
_atom_site_fract_y
_atom_site_fract_z
_atom_type_partial_charge
C1    C     C_R   0.497092 0.200283 0.453007 0.880422
C2    C     C_R   0.504183 0.799906 0.546981 0.892000
C3    C     C_R   0.015057 0.217375 0.355215 -0.231943
C4    C     C_R   0.984597 0.787124 0.631252 -0.233380
C5    C     C_2   0.496278 0.031469 0.428510 -0.306568
C6    C     C_2   0.506375 0.969009 0.571430 -0.299707
C7    C     C_R   0.329186 0.485256 0.497903 0.837217
C8    C     C_R   0.670746 0.510144 0.500077 0.835923
C9    C     C_R   0.827626 0.658165 0.562475 -0.020915
C10   C     C_R   0.171788 0.341109 0.443163 -0.024631
C11   C     C_R   0.767721 0.516423 0.491817 -0.132766
C12   C     C_R   0.232071 0.483354 0.498515 -0.122686
C13   C     C_R   0.799095 0.378103 0.400171 0.153161
C14   C     C_R   0.200482 0.629166 0.556382 0.162862
C15   C     C_R   0.891573 0.371307 0.403495 0.058932
C16   C     C_R   0.108103 0.637307 0.556378 0.061032
C17   C     C_R   0.952929 0.508345 0.480537 0.017148
C18   C     C_R   0.046608 0.499501 0.485451 0.017711
C19   C     C_R   0.921199 0.652985 0.556299 0.103629
C20   C     C_R   0.078280 0.351676 0.426058 0.101443
C21   C     C_R   0.924129 0.227820 0.338514 -0.188516
C22   C     C_R   0.075777 0.780060 0.627610 -0.203831
Cu1   Cu    Cu3+1 0.510010 0.517380 0.684380 0.946962
Cu2   Cu    Cu3+1 0.489990 0.482620 0.315620 0.949794
H1    H     H_    0.880022 0.119569 0.280694 0.183345
H2    H     H_    0.120358 0.887948 0.685323 0.188182
H3    H     H_    0.033835 0.101628 0.309640 0.175637
H4    H     H_    0.965584 0.899981 0.695585 0.167457
H5    H     H_    0.487186 0.958093 0.291521 0.179770
H6    H     H_    0.515486 0.042399 0.708412 0.181795
N1    N     N_2   0.474890 0.456420 0.038520 -0.113586
N2    N     N_2   0.525110 0.543580 0.961480 -0.114702
O1    O     O_R   0.506510 0.286130 0.619770 -0.601735
O2    O     O_R   0.493490 0.713870 0.380230 -0.597844
O3    O     O_R   0.489600 0.256770 0.308360 -0.582928
O4    O     O_R   0.510400 0.743230 0.691640 -0.583693
O5    O     O_R   0.378710 0.514640 0.655720 -0.589872
O6    O     O_R   0.621290 0.485360 0.344280 -0.586451
O7    O     O_R   0.361800 0.485290 0.344300 -0.584347
O8    O     O_R   0.638200 0.514710 0.655700 -0.593137
C23   C     C_3   0.793522 0.809160 0.659623 -0.429890
C24   C     C_3   0.800511 0.945909 0.567316 -0.379382
C25   C     C_3   0.806411 0.103506 0.707492 -0.758950
H7    H     H_    0.746919 0.105828 0.783079 0.271730
H8    H     H_    0.808445 0.202052 0.641173 0.265738
H9    H     H_    0.868389 0.122291 0.803591 0.239433
H10   H     H_    0.859390 0.946328 0.490776 0.229956
H11   H     H_    0.738953 0.934307 0.472116 0.248623
H12   H     H_    0.722465 0.788138 0.676834 0.186784
H13   H     H_    0.831594 0.847207 0.795393 0.221123
C26   C     C_3   0.205289 0.181161 0.434568 -0.400666
C27   C     C_3   0.197556 0.070923 0.245190 -0.364329
C28   C     C_3   0.163199 0.898730 0.235237 -0.796017
H14   H     H_    0.215755 0.843472 0.298606 0.294646
H15   H     H_    0.101564 0.887319 0.301836 0.248484
H16   H     H_    0.147888 0.832356 0.091881 0.246622
H17   H     H_    0.153941 0.114077 0.148129 0.231752
H18   H     H_    0.265837 0.068587 0.204983 0.232675
H19   H     H_    0.276844 0.197798 0.491250 0.160909
H20   H     H_    0.166393 0.122860 0.522041 0.222392
Br1   Br    Br    0.713928 0.195344 0.276222 -0.628831
Br2   Br    Br    0.287017 0.815691 0.639313 -0.627951
C29   C     C_3   0.390091 0.378454 0.938885 -0.050283
C30   C     C_3   0.356130 0.229545 0.993148 -0.380106
C31   C     C_3   0.264253 0.163232 0.889899 -0.943779
H21   H     H_    0.214526 0.247327 0.924177 0.257371
H22   H     H_    0.270757 0.139293 0.746207 0.284413
H23   H     H_    0.240142 0.048939 0.915672 0.288582
H24   H     H_    0.403395 0.140226 0.961897 0.244218
H25   H     H_    0.349075 0.253366 0.136309 0.259497
H26   H     H_    0.339549 0.462965 0.954859 0.184091
H27   H     H_    0.398042 0.331171 0.798459 0.206881
C32   C     C_3   0.611002 0.615536 0.062532 -0.050226
C33   C     C_3   0.652072 0.763238 0.014615 -0.389495
C34   C     C_3   0.752916 0.790845 0.075567 -0.912518
H28   H     H_    0.766942 0.779568 0.214932 0.259155
H29   H     H_    0.786787 0.700136 0.989017 0.261485
H30   H     H_    0.781239 0.910130 0.068319 0.278431
H31   H     H_    0.641386 0.753029 0.871445 0.264309
H32   H     H_    0.620283 0.867201 0.080907 0.239513
H33   H     H_    0.602594 0.665751 0.202098 0.201660
H34   H     H_    0.658037 0.524826 0.048052 0.200768

loop_
_geom_bond_atom_site_label_1
_geom_bond_atom_site_label_2
_ccdc_geom_bond_type
C32   C33   S    
C23   H13   S    
C25   H7    S    
C1    O1    A    
C28   H14   S    
C1    C5    S    
C5    C6    D    
Cu1   O8    S    
C14   Br2   S    
Cu2   O7    S    
C23   C24   S    
C32   H33   S    
C34   H29   S    
C4    C19   A    
C9    C19   A    
C10   C20   A    
Cu1   O1    S    
Cu2   O6    S    
Cu1   Cu2   S    
C30   H25   S    
C9    C11   A    
C2    O2    A    
C33   H32   S    
C2    C6    S    
C8    O6    A    
C10   C26   S    
C23   H12   S    
C4    H4    S    
C5    H5    S    
C28   H15   S    
C7    C12   S    
C27   H18   S    
Cu2   O3    S    
C33   C34   S    
C26   C27   S    
N1    C29   S    
N2    C32   S    
C31   H22   S    
C34   H30   S    
Cu1   O5    S    
Cu2   O2    S    
C34   H28   S    
C4    C22   A    
N1    N2    D    
C31   H23   S    
C17   C18   A    
C7    O5    A    
C3    C20   A    
C24   H11   S    
C30   H24   S    
C25   H8    S    
C10   C12   A    
C6    H6    S    
C12   C14   A    
C31   H21   S    
C33   H31   S    
C13   C15   A    
C14   C16   A    
C3    C21   A    
C26   H19   S    
C24   C25   S    
C32   H34   S    
C27   C28   S    
C1    O3    A    
C28   H16   S    
C2    O4    A    
C15   C17   A    
C21   H1    S    
C16   C22   A    
C29   H26   S    
C9    C23   S    
C30   C31   S    
C3    H3    S    
Cu2   N1    S    
Cu1   N2    S    
C11   C13   A    
C8    C11   S    
C17   C19   A    
C18   C20   A    
C24   H10   S    
C25   H9    S    
C27   H17   S    
C29   C30   S    
C15   C21   A    
C13   Br1   S    
C29   H27   S    
C16   C18   A    
Cu1   O4    S    
C22   H2    S    
C7    O7    A    
C26   H20   S    
C8    O8    A    
