data_mof_unit_31203.cif
_audit_creation_date              2012-12-10T17:55:50-0500
_audit_creation_method            fapswitch 2.2
_symmetry_space_group_name_H-M    P1
_symmetry_Int_Tables_number       1
_space_group_crystal_system       triclinic
_cell_length_a                    11.052918
_cell_length_b                    10.82762
_cell_length_c                    9.519997
_cell_angle_alpha                 90.4129
_cell_angle_beta                  102.873583
_cell_angle_gamma                 90.676774
_cell_volume                      1110.55070438

loop_
_atom_site_label
_atom_site_type_symbol
_atom_type_description
_atom_site_fract_x
_atom_site_fract_y
_atom_site_fract_z
_atom_type_partial_charge
C1    C     C_R   0.503370 0.262303 0.500711 0.790570
C2    C     C_R   0.496630 0.737697 0.499289 0.790570
C3    C     C_R   0.262649 0.500085 0.441542 0.860376
C4    C     C_R   0.737351 0.499915 0.558458 0.860377
C5    C     C_R   0.418001 0.426864 0.052232 0.280433
C6    C     C_R   0.581999 0.573136 0.947768 0.280433
C7    C     C_R   0.418300 0.427366 0.903252 -0.114610
C8    C     C_R   0.581700 0.572634 0.096748 -0.114610
C9    C     C_2   0.127599 0.500410 0.408404 -0.366314
C10   C     C_2   0.872401 0.499590 0.591595 -0.366314
C11   C     C_2   0.067359 0.499946 0.515525 -0.155236
C12   C     C_2   0.932641 0.500054 0.484475 -0.155236
C13   C     C_R   0.453962 0.065104 0.373618 -0.245415
C14   C     C_R   0.546038 0.934896 0.626382 -0.245416
C15   C     C_R   0.445465 0.937134 0.370388 -0.000136
C16   C     C_R   0.554535 0.062865 0.629611 -0.000136
C17   C     C_R   0.493517 0.871623 0.498241 -0.079973
C18   C     C_R   0.506483 0.128377 0.501759 -0.079973
Cu1   Cu    Cu3+1 0.500000 0.500020 0.640660 0.964025
Cu2   Cu    Cu3+1 0.500000 0.499980 0.359340 0.964025
H1    H     H_    0.882428 0.500591 0.372341 0.173541
H2    H     H_    0.117572 0.499409 0.627659 0.173541
H3    H     H_    0.922756 0.499020 0.703594 0.138541
H4    H     H_    0.077244 0.500980 0.296406 0.138541
H5    H     H_    0.353416 0.368895 0.829077 0.132828
H6    H     H_    0.646584 0.631104 0.170923 0.132828
H7    H     H_    0.415262 0.115604 0.276424 0.156246
H8    H     H_    0.584738 0.884396 0.723576 0.156246
N1    N     N_R   0.500030 0.500030 0.852080 -0.155439
N2    N     N_R   0.499970 0.499970 0.147920 -0.155439
O1    O     O_R   0.499990 0.319660 0.618740 -0.573074
O2    O     O_R   0.500010 0.680340 0.381260 -0.573075
O3    O     O_R   0.499990 0.319630 0.381170 -0.567749
O4    O     O_R   0.500010 0.680370 0.618830 -0.567749
O5    O     O_R   0.320690 0.500020 0.575130 -0.593528
O6    O     O_R   0.679310 0.499980 0.424870 -0.593528
O7    O     O_R   0.320680 0.499990 0.337560 -0.550764
O8    O     O_R   0.679320 0.500010 0.662440 -0.550764
N3    N     N_3   0.331972 0.348862 0.102800 -0.535744
H9    H     H_    0.242378 0.374245 0.050423 0.182911
H10   H     H_    0.345229 0.258147 0.071630 0.177063
N4    N     N_3   0.668028 0.651138 0.897200 -0.535744
H11   H     H_    0.757622 0.625755 0.949576 0.182911
H12   H     H_    0.654771 0.741853 0.928369 0.177063
C19   C     C_R   0.383083 0.875440 0.233258 0.134293
C20   C     C_R   0.435144 0.883339 0.111785 -0.173560
C21   C     C_R   0.379409 0.820898 0.984204 -0.146724
C22   C     C_R   0.271652 0.750066 0.977163 -0.102954
C23   C     C_R   0.218761 0.742473 0.097287 -0.117213
C24   C     C_R   0.273795 0.805332 0.224826 -0.103247
H13   H     H_    0.520141 0.935622 0.117076 0.122733
H14   H     H_    0.420476 0.826283 0.891255 0.135830
H15   H     H_    0.229368 0.700810 0.878782 0.121324
H16   H     H_    0.135467 0.687364 0.091844 0.111091
H17   H     H_    0.232543 0.797955 0.317570 0.099878
C25   C     C_R   0.616917 0.124560 0.766742 0.134293
C26   C     C_R   0.726205 0.194668 0.775174 -0.103246
C27   C     C_R   0.781239 0.257526 0.902713 -0.117214
C28   C     C_R   0.728348 0.249933 0.022836 -0.102954
C29   C     C_R   0.620591 0.179102 0.015796 -0.146725
C30   C     C_R   0.564856 0.116661 0.888215 -0.173560
H18   H     H_    0.767457 0.202044 0.682430 0.099878
H19   H     H_    0.864533 0.312636 0.908156 0.111091
H20   H     H_    0.770632 0.299190 0.121218 0.121324
H21   H     H_    0.579524 0.173717 0.108745 0.135830
H22   H     H_    0.479859 0.064378 0.882924 0.122733

loop_
_geom_bond_atom_site_label_1
_geom_bond_atom_site_label_2
_ccdc_geom_bond_type
C11   C12   S    
C16   C25   S    
C9    H4    S    
C14   H8    S    
C21   H14   S    
C7    N1    A    
Cu1   O8    S    
C10   H3    S    
C8    H6    S    
Cu1   O1    S    
C11   H2    S    
C21   C22   A    
C7    H5    S    
C3    O5    A    
C24   H17   S    
C8    N2    A    
C2    O4    A    
C5    N3    S    
C12   H1    S    
C28   H20   S    
C1    O3    A    
C28   C29   A    
N3    H10   S    
C16   C18   A    
Cu2   N2    S    
C19   C20   A    
C2    C17   S    
C27   H19   S    
Cu2   O7    S    
C9    C11   D    
C14   C17   A    
C1    C18   S    
N4    H12   S    
C19   C24   A    
C3    C9    S    
Cu2   O3    S    
C10   C12   D    
C2    O2    A    
C22   C23   A    
C4    O8    A    
C29   H21   S    
C23   C24   A    
C26   C27   A    
C13   C15   A    
C6    N4    S    
C22   H15   S    
C14   C16   A    
C20   C21   A    
N4    H11   S    
C15   C19   S    
C4    C10   S    
C23   H16   S    
Cu1   N1    S    
C1    O1    A    
C6    N1    A    
C30   H22   S    
C25   C26   A    
C3    O7    A    
C13   C18   A    
C5    N2    A    
Cu2   O2    S    
Cu1   O5    S    
N3    H9    S    
C15   C17   A    
C5    C7    A    
C13   H7    S    
C6    C8    A    
C26   H18   S    
C27   C28   A    
C25   C30   A    
C20   H13   S    
Cu1   Cu2   S    
C4    O6    A    
C29   C30   A    
Cu1   O4    S    
Cu2   O6    S    
