data_mof_unit_37803.cif
_audit_creation_date              2012-12-10T17:29:19-0500
_audit_creation_method            fapswitch 2.2
_symmetry_space_group_name_H-M    P1
_symmetry_Int_Tables_number       1
_space_group_crystal_system       triclinic
_cell_length_a                    12.009586
_cell_length_b                    13.018841
_cell_length_c                    13.138925
_cell_angle_alpha                 87.950721
_cell_angle_beta                  113.247379
_cell_angle_gamma                 92.077617
_cell_volume                      1885.7383865

loop_
_atom_site_label
_atom_site_type_symbol
_atom_type_description
_atom_site_fract_x
_atom_site_fract_y
_atom_site_fract_z
_atom_type_partial_charge
C1    C     C_R   0.478817 0.300151 0.499168 0.878894
C2    C     C_R   0.560849 0.515096 0.988596 0.114900
C3    C     C_R   0.540923 0.545558 0.879158 0.078783
C4    C     C_R   0.471782 0.537851 0.028818 0.089999
C5    C     C_R   0.376550 0.605158 0.968028 0.077795
C6    C     C_R   0.369338 0.647000 0.866779 -0.214254
C7    C     C_R   0.450212 0.617259 0.822456 -0.207042
C8    C     C_R   0.473569 0.493415 0.127043 -0.291855
C9    C     C_R   0.302204 0.593132 0.114587 0.613177
C10   C     C_R   0.611342 0.502121 0.828663 -0.116667
C11   C     C_R   0.528846 0.812188 0.502771 -0.198243
C12   C     C_R   0.567088 0.499898 0.708449 0.854378
C13   C     C_R   0.466786 0.190485 0.500246 -0.075081
C14   C     C_R   0.346018 0.039695 0.495645 -0.174198
C15   C     C_R   0.358449 0.144719 0.495696 -0.192640
C16   C     C_R   0.563952 0.131475 0.506250 -0.203812
C17   C     C_R   0.552692 0.025426 0.506104 0.020674
C18   C     C_R   0.442136 0.978333 0.499777 0.058026
C19   C     C_R   0.429144 0.871439 0.497090 -0.087166
C20   C     C_R   0.637792 0.860407 0.510122 -0.289616
C21   C     C_R   0.649803 0.966308 0.511472 0.609777
C22   C     C_R   0.992201 0.550593 0.364364 -0.289629
C23   C     C_R   0.520513 0.700663 0.501394 0.922491
C24   C     C_R   0.115386 0.550741 0.381265 0.027403
C25   C     C_R   0.168171 0.484469 0.563965 -0.010661
C26   C     C_R   0.044616 0.481735 0.550201 0.016719
C27   C     C_R   0.955700 0.516697 0.449531 -0.030397
C28   C     C_R   0.832635 0.517285 0.436871 0.681208
C29   C     C_R   0.883999 0.443771 0.616675 -0.091370
C30   C     C_R   0.007560 0.444407 0.633868 -0.314974
C31   C     C_R   0.433692 0.505990 0.291579 0.932705
C32   C     C_R   0.291096 0.630841 0.010511 -0.283159
C33   C     C_R   0.396054 0.526007 0.173727 -0.192489
C34   C     C_R   0.716562 0.448993 0.892942 -0.180399
C35   C     C_R   0.747132 0.432896 0.005647 -0.147138
C36   C     C_R   0.668828 0.463106 0.053107 -0.176802
H1    H     H_    0.714240 0.816083 0.514446 0.200673
H2    H     H_    0.259998 0.008163 0.491928 0.163138
H3    H     H_    0.282789 0.189881 0.491872 0.171731
H4    H     H_    0.648123 0.168141 0.510454 0.213729
H5    H     H_    0.857177 0.416011 0.682415 0.158253
H6    H     H_    0.926314 0.576913 0.285029 0.197289
H7    H     H_    0.073595 0.416366 0.712316 0.166583
H8    H     H_    0.141723 0.575773 0.314511 0.198515
H9    H     H_    0.299834 0.701176 0.820962 0.142265
H10   H     H_    0.236774 0.456227 0.640710 0.137982
H11   H     H_    0.218971 0.683150 0.965269 0.167639
H12   H     H_    0.538278 0.435596 0.171700 0.181313
H13   H     H_    0.773113 0.417210 0.855475 0.152212
H14   H     H_    0.696420 0.447240 0.140709 0.171280
H15   H     H_    0.829087 0.392936 0.055498 0.153282
H16   H     H_    0.442150 0.651954 0.744009 0.164891
N1    N     N_R   0.798200 0.480260 0.519790 -0.141199
N2    N     N_R   0.201820 0.519740 0.480210 -0.101840
O1    O     O_R   0.579910 0.341070 0.505280 -0.629237
O2    O     O_R   0.388440 0.353740 0.492580 -0.625159
O3    O     O_R   0.643280 0.490550 0.663120 -0.627901
O4    O     O_R   0.451810 0.503220 0.650420 -0.629119
O5    O     O_R   0.611560 0.646260 0.507420 -0.602083
O6    O     O_R   0.420090 0.658930 0.494720 -0.612360
O7    O     O_R   0.548190 0.496780 0.349580 -0.552487
O8    O     O_R   0.356720 0.509450 0.336880 -0.590981
Zn1   Zn    Zn3+2 0.627850 0.491540 0.508480 0.992780
Zn2   Zn    Zn3+2 0.372150 0.508460 0.491520 0.968527
F1    F     F_    0.226537 0.626975 0.159580 -0.692954
F2    F     F_    0.756395 0.010851 0.517912 -0.676660
F3    F     F_    0.748901 0.558515 0.342869 -0.682100
C37   C     C_R   0.309535 0.825955 0.486384 0.175904
C38   C     C_R   0.285380 0.806012 0.581545 -0.155121
C39   C     C_R   0.167414 0.780761 0.571558 -0.141194
C40   C     C_R   0.072778 0.777419 0.466916 -0.077312
C41   C     C_R   0.096389 0.796446 0.371826 -0.155916
C42   C     C_R   0.214559 0.819771 0.381288 -0.116744
H17   H     H_    0.356889 0.814252 0.663042 0.122774
H18   H     H_    0.148607 0.766359 0.644875 0.132180
H19   H     H_    0.981185 0.759529 0.459445 0.154107
H20   H     H_    0.022998 0.793411 0.290815 0.155318
H21   H     H_    0.231403 0.837173 0.307318 0.158662

loop_
_geom_bond_atom_site_label_1
_geom_bond_atom_site_label_2
_ccdc_geom_bond_type
C6    H9    S    
C21   F2    S    
C31   O7    A    
C35   C36   A    
C4    C8    A    
C23   O5    A    
C11   C19   A    
C26   C27   A    
C29   C30   A    
N2    Zn2   S    
C1    O2    A    
C7    H16   S    
C18   C19   A    
C3    C7    A    
C5    C6    A    
C16   C17   A    
C24   N2    A    
C34   C35   A    
O7    Zn1   S    
C14   C18   A    
O8    Zn2   S    
C9    C32   A    
C37   C38   A    
O1    Zn1   S    
C42   H21   S    
O2    Zn2   S    
C39   C40   A    
C5    C32   A    
C12   O4    A    
C9    C33   A    
C31   O8    A    
O3    Zn1   S    
O4    Zn2   S    
C23   O6    A    
C11   C20   A    
C19   C37   S    
C28   F3    S    
C25   N2    A    
C41   C42   A    
C37   C42   A    
C17   C21   A    
C2    C4    A    
C8    H12   S    
C41   H20   S    
C14   H2    S    
C31   C33   S    
C17   C18   A    
C38   H17   S    
C10   C34   A    
C15   H3    S    
C10   C12   S    
C16   H4    S    
C12   O3    A    
C26   C30   A    
C22   C27   A    
C13   C15   A    
C35   H15   S    
C24   H8    S    
C32   H11   S    
C22   C24   A    
C30   H7    S    
C1    C13   S    
C40   H19   S    
C27   C28   A    
C36   H14   S    
C2    C36   A    
C34   H13   S    
C29   H5    S    
C4    C5    A    
C28   N1    A    
C6    C7    A    
O5    Zn1   S    
O6    Zn2   S    
C2    C3    A    
C25   C26   A    
C40   C41   A    
C3    C10   A    
C20   H1    S    
N1    Zn1   S    
C22   H6    S    
C29   N1    A    
C11   C23   S    
C8    C33   A    
C1    O1    A    
C38   C39   A    
C9    F1    S    
C20   C21   A    
C13   C16   A    
C39   H18   S    
C14   C15   A    
C25   H10   S    
