data_mof_unit_25547.cif
_audit_creation_date              2013-03-05T15:57:26-0500
_audit_creation_method            fapswitch 2.2
_symmetry_space_group_name_H-M    P1
_symmetry_Int_Tables_number       1
_space_group_crystal_system       triclinic
_cell_length_a                    13.018686
_cell_length_b                    13.054222
_cell_length_c                    15.461678
_cell_angle_alpha                 117.743896
_cell_angle_beta                  63.492275
_cell_angle_gamma                 97.859131
_cell_volume                      2072.73858892

loop_
_atom_site_label
_atom_site_type_symbol
_atom_site_description
_atom_site_fract_x
_atom_site_fract_y
_atom_site_fract_z
_atom_type_partial_charge
C1    C     C_R   0.997916 0.832894 0.059998 -0.116451
H1    H     H_    0.027134 0.894046 0.119067 0.100078
N1    N     N_R   0.037320 0.720000 0.995830 -0.046205
C2    C     C_R   0.678853 0.477662 0.219443 -0.134945
H2    H     H_    0.608432 0.441063 0.198958 0.096848
N2    N     N_R   0.790770 0.446140 0.151990 -0.042455
C3    C     C_R   0.754493 0.520908 0.895540 -0.143527
H3    H     H_    0.774663 0.553862 0.838129 0.158745
N3    N     N_R   0.824900 0.517970 0.936430 -0.044381
C4    C     C_R   0.026522 0.695603 0.296732 -0.144981
H4    H     H_    0.014260 0.652253 0.344455 0.093448
N4    N     N_R   0.003190 0.648180 0.211390 -0.040814
C5    C     C_R   0.676258 0.421484 0.990268 -0.130786
H5    H     H_    0.629296 0.358692 0.016806 0.084905
N5    N     N_R   0.774330 0.457010 0.995830 -0.043409
C6    C     C_R   0.103574 0.796609 0.204943 -0.140840
H6    H     H_    0.158749 0.850505 0.170661 0.115083
N6    N     N_R   0.053760 0.709130 0.151980 -0.041962
C7    C     C_R   0.782984 0.577417 0.309030 -0.106572
H7    H     H_    0.808836 0.640721 0.369571 0.112907
N7    N     N_R   0.853840 0.498830 0.211390 -0.042896
C8    C     C_R   0.895298 0.747921 0.965576 -0.165439
H8    H     H_    0.828483 0.731104 0.938902 0.101059
N8    N     N_R   0.974250 0.667320 0.936430 -0.039532
C9    C     C_R   0.906660 0.852612 0.044352 0.123587
C10   C     C_R   0.672056 0.558191 0.320369 0.044892
C11   C     C_R   0.661916 0.459883 0.927060 0.150146
C12   C     C_R   0.092457 0.787496 0.294232 0.078222
C13   C     C_R   0.338365 0.515600 0.950031 -0.117345
H9    H     H_    0.397295 0.553177 0.899351 0.091634
N9    N     N_R   0.225670 0.542990 0.004170 -0.045437
C14   C     C_R   0.966062 0.178000 0.780509 -0.140205
H10   H     H_    0.931496 0.114823 0.808719 0.129755
N10   N     N_R   0.946240 0.290870 0.848020 -0.045037
C15   C     C_R   0.206353 0.493426 0.690432 -0.134718
H11   H     H_    0.179111 0.452415 0.627520 0.123782
N11   N     N_R   0.146160 0.501170 0.788610 -0.044500
C16   C     C_R   0.052635 0.254693 0.085633 -0.133680
H12   H     H_    0.091373 0.273957 0.139815 0.084359
N12   N     N_R   0.025750 0.332680 0.063570 -0.036656
C17   C     C_R   0.949883 0.171510 0.993418 -0.121247
H13   H     H_    0.891655 0.114980 0.964476 0.110965
N13   N     N_R   0.962680 0.280000 0.004170 -0.043399
C18   C     C_R   0.301270 0.590662 0.789815 -0.150090
H14   H     H_    0.355832 0.651352 0.821730 0.095631
N14   N     N_R   0.209230 0.553860 0.848010 -0.038997
C19   C     C_R   0.259340 0.417040 0.047211 -0.149932
H15   H     H_    0.249087 0.363645 0.086270 0.093285
N15   N     N_R   0.175100 0.482030 0.063570 -0.041117
C20   C     C_R   0.048010 0.275252 0.683404 -0.058471
H16   H     H_    0.090164 0.297841 0.617783 0.100281
N16   N     N_R   0.996810 0.351820 0.788610 -0.042456
Ni1   Ni    Ni4+2 0.130310 0.630310 0.000000 0.211279
Ni2   Ni    Ni4+2 0.869690 0.369690 0.000000 0.213603
Ni3   Ni    Ni4+2 0.985660 0.509480 0.863750 0.237292
Ni4   Ni    Ni4+2 0.014340 0.490520 0.136250 0.210049
C21   C     C_R   0.361955 0.434737 0.974252 0.150572
C22   C     C_R   0.034596 0.163564 0.675339 0.054180
C23   C     C_R   0.301502 0.553865 0.690276 0.068706
C24   C     C_R   0.007353 0.150906 0.041711 0.039001
H17   H     H_    0.505506 0.979052 0.011345 0.096891
C25   C     C_R   0.445246 0.879541 0.100706 -0.122530
H18   H     H_    0.511631 0.808540 0.039816 0.105446
C26   C     C_R   0.363156 0.875058 0.195423 -0.142700
H19   H     H_    0.367321 0.800112 0.206780 0.116346
C27   C     C_R   0.276525 0.966991 0.275102 0.109209
C28   C     C_R   0.273859 0.063174 0.258016 -0.167029
H20   H     H_    0.207116 0.133862 0.317231 0.118524
C29   C     C_R   0.356132 0.067354 0.163208 -0.113795
H21   H     H_    0.353229 0.141599 0.150539 0.100647
C30   C     C_R   0.441830 0.975676 0.084668 -0.094505
C31   C     C_R   0.162773 0.059091 0.477102 -0.203824
H22   H     H_    0.199602 0.139189 0.479414 0.120187
C32   C     C_R   0.085330 0.053488 0.573817 0.067730
C33   C     C_R   0.058541 0.942049 0.568007 0.027181
C34   C     C_R   0.094379 0.845627 0.467574 -0.228658
H23   H     H_    0.070331 0.762266 0.465256 0.123081
C35   C     C_R   0.137724 0.859781 0.374031 0.040583
C36   C     C_R   0.190159 0.961995 0.375844 0.035757
C37   C     C_R   0.022579 0.907906 0.723989 -0.166403
H24   H     H_    0.112391 0.917409 0.707766 0.119774
C38   C     C_R   0.947544 0.886930 0.811269 -0.159638
H25   H     H_    0.980399 0.880780 0.861667 0.134791
C39   C     C_R   0.830922 0.876076 0.833816 -0.097385
H26   H     H_    0.772135 0.861127 0.901988 0.092134
C40   C     C_R   0.789476 0.885088 0.768296 -0.109217
H27   H     H_    0.699494 0.875899 0.785334 0.104026
C41   C     C_R   0.864114 0.906651 0.681173 -0.170966
H28   H     H_    0.831388 0.913776 0.630730 0.123153
C42   C     C_R   0.980526 0.920088 0.660011 0.117130
H29   H     H_    0.028097 0.429388 0.352224 0.092698
C43   C     C_R   0.863545 0.372010 0.358542 -0.028684
H30   H     H_    0.898053 0.284689 0.295359 0.104885
C44   C     C_R   0.746898 0.405581 0.402750 -0.098797
H31   H     H_    0.692654 0.345039 0.370010 0.112687
C45   C     C_R   0.703363 0.520715 0.481259 0.100205
C46   C     C_R   0.773546 0.597524 0.524681 -0.112769
H32   H     H_    0.740392 0.686034 0.586113 0.105092
C47   C     C_R   0.890758 0.564367 0.478014 -0.074586
H33   H     H_    0.946546 0.625941 0.506686 0.108180
C48   C     C_R   0.936491 0.453249 0.391928 -0.083146
C49   C     C_R   0.499500 0.573866 0.594402 -0.235062
H34   H     H_    0.515293 0.560886 0.652039 0.140349
C50   C     C_R   0.388611 0.576836 0.603585 0.060881
C51   C     C_R   0.369100 0.585551 0.523697 0.036908
C52   C     C_R   0.463735 0.591073 0.435959 -0.251434
H35   H     H_    0.451148 0.594609 0.372579 0.131903
C53   C     C_R   0.575132 0.578228 0.423281 0.072747
C54   C     C_R   0.592449 0.565438 0.502081 0.006152
C55   C     C_R   0.247876 0.456725 0.439267 -0.220069
H36   H     H_    0.324515 0.401471 0.371426 0.136873
C56   C     C_R   0.140874 0.412163 0.455634 -0.302009
H37   H     H_    0.136539 0.325756 0.397556 0.156792
C57   C     C_R   0.041214 0.475750 0.549544 0.399358
C58   C     C_R   0.048670 0.590459 0.620517 -0.260852
H38   H     H_    0.972749 0.641582 0.692601 0.172715
C59   C     C_R   0.156386 0.634921 0.604768 -0.191168
H39   H     H_    0.162507 0.717354 0.666904 0.135425
C60   C     C_R   0.257124 0.564567 0.518182 0.132886
C61   C     C_2   0.475186 0.393666 0.946475 -0.217958
H40   H     H_    0.478129 0.346706 0.987649 0.124315
C62   C     C_2   0.567714 0.439028 0.897438 -0.148915
H41   H     H_    0.566086 0.482442 0.852937 0.139608
C63   C     C_2   0.825489 0.957873 0.107924 -0.207771
H42   H     H_    0.760617 0.961178 0.083171 0.137297
C64   C     C_2   0.824903 0.047928 0.197730 -0.144743
H43   H     H_    0.885459 0.050616 0.229098 0.138390
N17   N     N_R   0.934505 0.422362 0.574186 0.229174
O1    O     O_R   0.933254 0.310316 0.522588 -0.427189
O2    O     O_R   0.837314 0.485404 0.645848 -0.452124

loop_
_geom_bond_atom_site_label_1
_geom_bond_atom_site_label_2
_geom_bond_distance
_ccdc_geom_bond_type
C6    C12   1.382360 A    
C64   H43   1.084373 S    
C17   H13   1.077884 S    
C7    H7    1.075796 S    
C14   C22   1.393328 A    
N17   O1    1.301844 A    
C56   C57   1.404079 A    
C57   C58   1.407603 A    
C3    H3    1.076362 S    
C19   N15   1.339232 A    
C61   H40   1.083567 S    
N8    Ni3   1.819164 S    
C27   C36   1.485226 S    
C25   H18   1.082905 S    
C23   C50   1.448088 S    
C15   N11   1.321203 A    
N9    N15   1.381182 A    
C31   C36   1.400934 A    
C29   H21   1.082840 S    
C59   C60   1.404687 A    
C16   H12   1.079665 S    
C40   C41   1.395652 A    
C52   H35   1.084824 S    
C18   C23   1.381065 A    
C58   H38   1.081222 S    
C3    C11   1.378149 A    
C53   C54   1.417067 A    
C15   C23   1.374310 A    
C1    H1    1.079049 S    
C29   C30   1.397979 A    
C7    C10   1.376632 A    
C55   H36   1.083613 S    
C56   H37   1.080120 S    
C25   C26   1.398540 A    
N6    Ni1   1.874206 S    
N12   N13   1.386107 A    
C15   H11   1.062904 S    
C18   N14   1.326218 A    
C6    H6    1.077531 S    
C58   C59   1.402444 A    
C8    C9    1.388847 A    
C20   N16   1.337894 A    
N3    Ni3   1.871728 S    
C12   C35   1.474127 S    
C5    C11   1.373257 A    
C33   C42   1.465510 S    
N16   Ni3   1.819797 S    
H17   C30   1.082607 S    
C27   C28   1.405859 A    
C5    H5    1.079915 S    
C1    C9    1.390812 A    
C17   N13   1.342441 A    
N1    N8    1.386108 A    
C44   H31   1.083307 S    
H29   C48   1.079903 S    
C50   C51   1.421973 A    
C46   C47   1.394096 A    
C11   C62   1.442874 S    
C61   C62   1.335760 D    
C46   H32   1.082656 S    
C32   C33   1.418998 A    
C13   C21   1.381389 A    
C28   H20   1.080426 S    
C20   C22   1.397263 A    
N5    Ni2   1.836199 S    
C34   H23   1.078915 S    
C2    N2    1.337122 A    
C10   C53   1.450179 S    
C40   H27   1.082403 S    
C31   H22   1.080683 S    
N12   Ni4   1.819164 S    
N2    N7    1.386121 A    
N9    Ni1   1.836199 S    
C28   C29   1.398573 A    
C26   C27   1.408315 A    
C49   C50   1.390301 A    
C33   C34   1.381113 A    
C13   H9    1.077751 S    
C19   C21   1.386939 A    
C57   N17   1.439021 S    
N13   Ni2   1.835257 S    
C19   H15   1.078375 S    
C45   C46   1.400436 A    
C43   C44   1.393538 A    
C20   H16   1.074637 S    
C39   H26   1.079556 S    
C44   C45   1.404953 A    
N4    Ni4   1.819797 S    
C4    N4    1.327585 A    
C43   C48   1.394804 A    
C21   C61   1.442764 S    
C16   C24   1.388040 A    
C31   C32   1.412033 A    
C47   C48   1.400519 A    
C41   C42   1.404547 A    
N2    Ni2   1.875043 S    
C38   C39   1.400506 A    
C5    N5    1.323467 A    
C8    N8    1.344429 A    
C18   H14   1.081996 S    
C22   C32   1.482937 S    
C63   C64   1.335424 D    
C45   C54   1.473120 S    
C4    C12   1.381770 A    
C3    N3    1.338213 A    
C7    N7    1.325238 A    
C35   C36   1.407250 A    
C51   C60   1.479008 S    
C17   C24   1.389382 A    
C34   C35   1.391472 A    
C37   H24   1.083020 S    
N17   O2    1.300103 A    
C55   C60   1.403800 A    
N7    Ni4   1.872232 S    
C2    C10   1.386688 A    
N10   Ni2   1.874207 S    
N15   Ni4   1.871727 S    
C51   C52   1.392200 A    
N10   N16   1.381187 A    
C47   H33   1.079867 S    
C14   H10   1.063552 S    
N3    N5    1.381183 A    
C13   N9    1.322726 A    
C59   H39   1.081515 S    
C26   H19   1.083473 S    
C16   N12   1.342642 A    
N1    Ni1   1.835257 S    
C52   C53   1.397093 A    
N14   Ni1   1.875044 S    
C43   H30   1.080305 S    
C37   C38   1.394475 A    
C25   C30   1.397588 A    
C37   C42   1.399013 A    
C49   H34   1.085742 S    
C9    C63   1.477642 S    
C55   C56   1.394181 A    
C4    H4    1.071965 S    
N11   Ni3   1.872231 S    
C2    H2    1.080558 S    
C41   H28   1.083275 S    
C6    N6    1.340187 A    
C38   H25   1.077861 S    
N4    N6    1.381186 A    
C62   H41   1.083707 S    
C8    H8    1.076398 S    
C39   C40   1.395529 A    
C49   C54   1.364660 A    
C1    N1    1.345558 A    
N11   N14   1.386122 A    
C14   N10   1.326182 A    
C63   H42   1.084192 S    
