data_mof_unit_49364.cif
_audit_creation_date              2013-03-05T15:50:11-0500
_audit_creation_method            fapswitch 2.2
_symmetry_space_group_name_H-M    P1
_symmetry_Int_Tables_number       1
_space_group_crystal_system       triclinic
_cell_length_a                    15.061392
_cell_length_b                    14.992035
_cell_length_c                    34.884731
_cell_angle_alpha                 90.357731
_cell_angle_beta                  89.796092
_cell_angle_gamma                 59.991289
_cell_volume                      6820.75088722

loop_
_atom_site_label
_atom_site_type_symbol
_atom_site_description
_atom_site_fract_x
_atom_site_fract_y
_atom_site_fract_z
_atom_type_partial_charge
O1    O     O_R   0.502070 0.323090 0.541280 -0.428046
O2    O     O_R   0.338340 0.520690 0.539540 -0.509062
C1    C     C_R   0.302106 0.608308 0.555877 0.584778
O3    O     O_R   0.324760 0.674070 0.543580 -0.411935
O4    O     O_R   0.522400 0.640310 0.540110 -0.459750
C2    C     C_R   0.611592 0.590060 0.554869 0.580954
O5    O     O_R   0.675940 0.500630 0.542210 -0.442217
O6    O     O_R   0.641790 0.337020 0.538150 -0.510289
C3    C     C_R   0.589954 0.300217 0.553671 0.570847
O7    O     O_R   0.500260 0.324550 0.456580 -0.518297
O8    O     O_R   0.336660 0.522040 0.461020 -0.479074
C4    C     C_R   0.348799 0.589023 0.441617 0.542538
O9    O     O_R   0.322940 0.675540 0.458880 -0.495676
O10   O     O_R   0.520720 0.641670 0.461580 -0.522942
C5    C     C_R   0.608601 0.590786 0.445602 0.566697
O11   O     O_R   0.674120 0.502090 0.457500 -0.444018
O12   O     O_R   0.640110 0.338380 0.459630 -0.500750
C6    C     C_R   0.587738 0.303504 0.443513 0.536006
Cr1   Cr    Cr6+3 0.421670 0.426920 0.499620 1.089782
Cr2   Cr    Cr6+3 0.427030 0.651190 0.500980 1.137544
Cr3   Cr    Cr6+3 0.651280 0.421870 0.499380 1.128202
O13   O     O_3   0.499990 0.499990 0.499990 -0.317877
N1    N     N_R   0.663664 0.595644 0.771754 -0.132145
N2    N     N_R   0.656472 0.592379 0.733872 -0.167422
C7    C     C_R   0.633181 0.627857 0.591384 -0.084563
C8    C     C_R   0.721425 0.561963 0.612810 0.144926
C9    C     C_R   0.724957 0.580347 0.652098 0.155891
C10   C     C_R   0.641238 0.665284 0.670156 -0.061456
C11   C     C_R   0.558754 0.738762 0.647915 0.211082
C12   C     C_R   0.557427 0.721933 0.608260 0.206174
N3    N     N_R   0.632258 0.758794 0.729656 -0.187113
N4    N     N_R   0.639060 0.762206 0.767613 -0.216173
C13   C     C_R   0.655950 0.680253 0.789234 0.379617
C14   C     C_R   0.641328 0.673519 0.712166 0.363477
C15   C     C_R   0.757540 0.598383 0.848427 0.183945
C16   C     C_R   0.777775 0.607317 0.887481 0.213853
C17   C     C_R   0.617793 0.772923 0.891254 0.188330
C18   C     C_R   0.602991 0.766085 0.852261 -0.089025
C19   C     C_R   0.672608 0.680942 0.830598 -0.062940
C20   C     C_R   0.710363 0.697889 0.908574 0.005934
H1    H     H_    0.535058 0.827197 0.838867 0.199856
C21   C     C_R   0.724686 0.075327 0.905110 0.012745
C22   C     C_R   0.630682 0.116418 0.885108 0.158801
C23   C     C_R   0.629922 0.129052 0.845450 -0.151473
C24   C     C_R   0.718717 0.109097 0.825641 -0.065977
C25   C     C_R   0.809498 0.081480 0.845689 0.196388
C26   C     C_R   0.813375 0.063053 0.885557 0.204249
C27   C     C_R   0.727268 0.194540 0.766020 -0.048896
C28   C     C_R   0.723495 0.202466 0.726282 -0.098894
C29   C     C_R   0.708014 0.133555 0.703744 0.100927
C30   C     C_R   0.697185 0.055132 0.721329 0.305468
C31   C     C_R   0.700401 0.048249 0.761513 -0.064291
C32   C     C_R   0.714879 0.118029 0.783737 0.020329
C33   C     C_R   0.594475 0.175970 0.648314 -0.104129
C34   C     C_R   0.562312 0.217980 0.611834 0.239206
C35   C     C_R   0.726833 0.208892 0.602164 -0.139138
C36   C     C_R   0.759750 0.164936 0.638442 0.197851
C37   C     C_R   0.690437 0.153080 0.662339 0.019909
C38   C     C_R   0.627661 0.238814 0.589094 0.011358
H2    H     H_    0.729790 0.264313 0.713070 0.164143
H3    H     H_    0.738340 0.248864 0.783029 0.184028
H4    H     H_    0.559061 0.156030 0.829818 0.178707
H5    H     H_    0.692131 0.988447 0.775524 0.125269
H6    H     H_    0.541630 0.166997 0.666874 0.150827
H7    H     H_    0.778314 0.221619 0.584284 0.201497
C39   C     C_R   0.095378 0.694120 0.911613 -0.012900
C40   C     C_R   0.140392 0.745039 0.892927 0.230993
C41   C     C_R   0.165685 0.725538 0.853460 0.169104
C42   C     C_R   0.150358 0.651590 0.833812 -0.044979
C43   C     C_R   0.117507 0.591617 0.853979 0.158451
C44   C     C_R   0.090890 0.613625 0.892685 -0.155052
C45   C     C_R   0.244087 0.567370 0.773369 -0.036788
C46   C     C_R   0.249716 0.563767 0.733507 -0.079646
C47   C     C_R   0.168436 0.637867 0.711499 0.060277
C48   C     C_R   0.079422 0.716230 0.730049 0.232054
C49   C     C_R   0.075965 0.720150 0.770229 -0.016033
C50   C     C_R   0.157711 0.646168 0.791765 0.059401
C51   C     C_R   0.181206 0.722466 0.652459 -0.106181
C52   C     C_R   0.211399 0.718419 0.614014 0.245697
C53   C     C_R   0.241538 0.543373 0.609501 -0.152429
C54   C     C_R   0.210441 0.548061 0.647777 0.257477
C55   C     C_R   0.183849 0.636940 0.669662 0.061870
C56   C     C_R   0.246879 0.625938 0.592889 0.021572
H8    H     H_    0.058870 0.572375 0.907248 0.201136
H9    H     H_    0.318923 0.504303 0.719723 0.141915
H10   H     H_    0.307469 0.509902 0.789893 0.147675
H11   H     H_    0.008539 0.779635 0.784941 0.169275
H12   H     H_    0.159648 0.791028 0.669554 0.161659
H13   H     H_    0.266552 0.472737 0.593334 0.164795
C57   C     C_R   0.691243 0.713573 0.089933 0.004763
C58   C     C_R   0.597298 0.787974 0.107160 0.199317
C59   C     C_R   0.578130 0.776379 0.145717 -0.061909
C60   C     C_R   0.648597 0.690425 0.166637 0.013235
C61   C     C_R   0.735142 0.611984 0.148049 -0.092340
C62   C     C_R   0.756016 0.623232 0.110222 -0.123567
C63   C     C_R   0.662222 0.592699 0.225967 -0.024848
C64   C     C_R   0.663861 0.584150 0.265890 0.230559
C65   C     C_R   0.641824 0.671599 0.288837 0.019658
C66   C     C_R   0.615910 0.766506 0.271270 0.210914
C67   C     C_R   0.613097 0.772545 0.231264 -0.077862
C68   C     C_R   0.637789 0.685910 0.208510 -0.018591
C69   C     C_R   0.547123 0.717603 0.349976 -0.102117
C70   C     C_R   0.539742 0.700052 0.388456 -0.154852
C71   C     C_R   0.723462 0.579298 0.390341 0.209295
C72   C     C_R   0.731485 0.599290 0.351330 0.254307
C73   C     C_R   0.641397 0.664853 0.330916 0.048732
C74   C     C_R   0.625951 0.626880 0.408516 -0.017006
H14   H     H_    0.827300 0.563440 0.097804 0.178086
H15   H     H_    0.679275 0.526280 0.208278 0.173796
H16   H     H_    0.508536 0.834939 0.159575 0.172400
H17   H     H_    0.597075 0.843948 0.217793 0.163423
H18   H     H_    0.477998 0.768647 0.334458 0.181107
H19   H     H_    0.464528 0.738824 0.401754 0.153187
H20   H     H_    0.790772 0.544783 0.163501 0.159964
C75   C     C_R   0.694474 0.110139 0.086688 0.010986
C76   C     C_R   0.765023 0.137113 0.102118 0.147386
C77   C     C_R   0.750788 0.176019 0.139503 -0.149059
C78   C     C_R   0.667042 0.190716 0.161662 -0.004903
C79   C     C_R   0.590871 0.174644 0.145441 0.249202
C80   C     C_R   0.601761 0.139840 0.106905 0.213609
C81   C     C_R   0.580002 0.289312 0.221504 -0.002400
C82   C     C_R   0.575592 0.296354 0.261413 -0.063681
C83   C     C_R   0.658125 0.224143 0.283311 0.085905
C84   C     C_R   0.746426 0.147148 0.264948 -0.019863
C85   C     C_R   0.750724 0.139889 0.225113 -0.094250
C86   C     C_R   0.666712 0.209411 0.203178 0.059944
C87   C     C_R   0.723213 0.236623 0.347838 0.286348
C88   C     C_R   0.707140 0.251244 0.387625 -0.096689
C89   C     C_R   0.552215 0.240750 0.382386 -0.129163
C90   C     C_R   0.567279 0.226712 0.342937 -0.153912
C91   C     C_R   0.650545 0.227859 0.325359 0.071023
C92   C     C_R   0.619302 0.258055 0.404827 -0.010033
H21   H     H_    0.511903 0.218342 0.325847 0.152915
H22   H     H_    0.507393 0.357139 0.275274 0.124883
H23   H     H_    0.514914 0.344242 0.204982 0.197729
H24   H     H_    0.807114 0.192312 0.151902 0.181230
H25   H     H_    0.810479 0.090641 0.281476 0.164029
H26   H     H_    0.817864 0.077191 0.211442 0.132300
H27   H     H_    0.759835 0.263982 0.404672 0.156356
H28   H     H_    0.484359 0.244769 0.394861 0.160752
C93   C     C_R   0.092510 0.702772 0.092061 -0.017983
C94   C     C_R   0.126160 0.601405 0.103905 -0.085156
C95   C     C_R   0.180353 0.564034 0.138244 0.265941
C96   C     C_R   0.198255 0.631363 0.161307 0.080280
C97   C     C_R   0.169240 0.730489 0.148352 -0.089576
C98   C     C_R   0.117307 0.765777 0.113988 -0.099983
C99   C     C_R   0.328036 0.599280 0.211821 0.233865
C100  C     C_R   0.355088 0.590956 0.250736 0.225210
C101  C     C_R   0.287779 0.589227 0.278817 -0.095479
C102  C     C_R   0.198225 0.590405 0.267730 -0.119070
C103  C     C_R   0.169293 0.601033 0.229381 0.199418
C104  C     C_R   0.233974 0.606762 0.201182 -0.022457
C105  C     C_R   0.328582 0.504257 0.341653 -0.134851
C106  C     C_R   0.340696 0.504412 0.381143 -0.123062
C107  C     C_R   0.306847 0.680058 0.378639 -0.051522
C108  C     C_R   0.293568 0.681523 0.338969 0.261431
C109  C     C_R   0.305119 0.591887 0.320225 0.007119
C110  C     C_R   0.329521 0.592323 0.400085 -0.027393
H29   H     H_    0.109518 0.551534 0.086514 0.171011
H30   H     H_    0.092724 0.844048 0.105457 0.186826
H31   H     H_    0.147288 0.589141 0.289490 0.194367
H32   H     H_    0.337290 0.435522 0.327685 0.139586
H33   H     H_    0.359255 0.435333 0.396863 0.153552
H34   H     H_    0.182533 0.782525 0.165901 0.151279
H35   H     H_    0.298475 0.748500 0.392680 0.163976
O14   O     O_R   0.017640 0.822070 0.960410 -0.410852
O15   O     O_R   0.822000 0.989470 0.960340 -0.436358
C111  C     C_R   0.735959 0.026586 0.943282 0.585665
O16   O     O_R   0.666920 0.007430 0.955290 -0.451138
O17   O     O_R   0.694410 0.812480 0.959650 -0.494963
C112  C     C_R   0.744904 0.721868 0.945284 0.562475
O18   O     O_R   0.831550 0.656950 0.958960 -0.436319
O19   O     O_R   0.998590 0.685540 0.963930 -0.518199
C113  C     C_R   0.039254 0.733330 0.948413 0.577037
O20   O     O_R   0.008220 0.831200 0.045060 -0.482858
O21   O     O_R   0.813270 0.997930 0.038810 -0.469400
C114  C     C_R   0.721829 0.041189 0.052409 0.583820
O22   O     O_R   0.657500 0.016560 0.039940 -0.418680
O23   O     O_R   0.685680 0.820940 0.038120 -0.447626
C115  C     C_R   0.732527 0.733293 0.054355 0.555705
O24   O     O_R   0.822130 0.666070 0.043610 -0.515396
O25   O     O_R   0.989860 0.694000 0.042400 -0.504938
C116  C     C_R   0.027929 0.744306 0.057868 0.544462
Cr4   Cr    Cr6+3 0.910810 0.908010 0.001130 1.186910
Cr5   Cr    Cr6+3 0.682800 0.909890 0.998370 1.185717
Cr6   Cr    Cr6+3 0.908370 0.682300 0.002180 1.089353
O26   O     O_3   0.833990 0.833400 0.000560 -0.314622
N5    N     N_R   0.809565 0.478597 0.594517 0.134510
O27   O     O_R   0.857921 0.497741 0.567746 -0.238115
O28   O     O_R   0.834237 0.383787 0.601309 -0.237175
O29   O     O_3   0.903667 0.028572 0.905646 -0.605633
H36   H     H_    0.962939 0.999011 0.887794 0.390640
N6    N     N_R   0.862419 0.133980 0.650678 0.098568
O30   O     O_R   0.909535 0.058905 0.674760 -0.227258
O31   O     O_R   0.913412 0.173121 0.634790 -0.224152
O32   O     O_3   0.683839 0.986676 0.698802 -0.627736
H37   H     H_    0.678089 0.936650 0.715602 0.358477
O33   O     O_3   0.465593 0.244053 0.599015 -0.649226
H38   H     H_    0.430163 0.224996 0.618561 0.339765
N7    N     N_R   0.898193 0.069581 0.825531 0.079887
O34   O     O_R   0.940330 0.123393 0.835836 -0.209223
O35   O     O_R   0.935867 0.006558 0.796429 -0.254740
N8    N     N_R   0.478487 0.800811 0.585248 0.141248
O36   O     O_R   0.502797 0.829934 0.553767 -0.280147
O37   O     O_R   0.383343 0.848365 0.596729 -0.211576
O38   O     O_3   0.157058 0.814083 0.913703 -0.619161
H39   H     H_    0.209245 0.824626 0.900454 0.378937
O39   O     O_3   0.208338 0.466019 0.664686 -0.631600
H40   H     H_    0.229847 0.409600 0.645547 0.348742
N9    N     N_R   0.200288 0.785327 0.832772 0.073469
O40   O     O_R   0.281447 0.740065 0.810921 -0.313389
O41   O     O_R   0.148531 0.885450 0.834607 -0.234030
N10   N     N_R   0.992111 0.790606 0.708813 0.091358
O42   O     O_R   0.967532 0.765264 0.676460 -0.248733
O43   O     O_R   0.930049 0.880498 0.723831 -0.259290
O44   O     O_3   0.864416 0.531110 0.905267 -0.621701
H41   H     H_    0.914192 0.483667 0.885996 0.394901
O45   O     O_3   0.209955 0.802319 0.597216 -0.595609
H42   H     H_    0.182734 0.860304 0.615913 0.369315
N11   N     N_R   0.105115 0.512176 0.835515 0.098556
O46   O     O_R   0.073525 0.521704 0.800323 -0.246721
O47   O     O_R   0.115667 0.434082 0.855235 -0.254552
N12   N     N_R   0.521366 0.875007 0.086347 0.105098
O48   O     O_R   0.466164 0.963128 0.103764 -0.279523
O49   O     O_R   0.494337 0.861726 0.052349 -0.275446
N13   N     N_R   0.829751 0.553298 0.332352 0.105075
O50   O     O_R   0.852124 0.608109 0.309753 -0.261232
O51   O     O_R   0.894649 0.455344 0.335514 -0.208314
N14   N     N_R   0.688183 0.486376 0.282299 0.110739
O52   O     O_R   0.745835 0.401290 0.263382 -0.270516
O53   O     O_R   0.644710 0.481764 0.313942 -0.362608
N15   N     N_R   0.595682 0.856286 0.293424 0.086150
O54   O     O_R   0.647363 0.847577 0.324358 -0.283264
O55   O     O_R   0.534333 0.947950 0.280257 -0.303231
N16   N     N_R   0.815240 0.513946 0.673590 0.131046
O56   O     O_R   0.842908 0.417419 0.678017 -0.206173
O57   O     O_R   0.863386 0.552332 0.692171 -0.207993
N17   N     N_R   0.813866 0.512902 0.411528 0.119243
O58   O     O_R   0.856641 0.413478 0.407477 -0.265340
O59   O     O_R   0.842010 0.550642 0.439578 -0.255061
N18   N     N_R   0.850748 0.126669 0.080240 0.101162
O60   O     O_R   0.938446 0.096572 0.096780 -0.304848
O61   O     O_R   0.836699 0.163716 0.045745 -0.266890
O62   O     O_3   0.524264 0.132187 0.088901 -0.606805
H43   H     H_    0.457521 0.184966 0.099906 0.371785
O63   O     O_3   0.477742 0.827160 0.663611 -0.593638
H44   H     H_    0.472385 0.818335 0.691403 0.347496
O64   O     O_3   0.805201 0.237207 0.330197 -0.616287
H45   H     H_    0.847468 0.245983 0.349955 0.364896
O65   O     O_3   0.511465 0.185485 0.168694 -0.650549
H46   H     H_    0.486428 0.139807 0.159052 0.368049
O66   O     O_3   0.268396 0.771986 0.320207 -0.673639
H47   H     H_    0.253375 0.766677 0.293011 0.349391
N19   N     N_R   0.825649 0.507860 0.826633 0.090090
O67   O     O_R   0.838601 0.418504 0.836373 -0.241324
O68   O     O_R   0.875311 0.514417 0.797199 -0.195755
O69   O     O_3   0.447337 0.584379 0.259970 -0.642176
H48   H     H_    0.459715 0.573107 0.287766 0.352863
N20   N     N_R   0.395985 0.601055 0.183122 0.100601
O70   O     O_R   0.439491 0.656370 0.188306 -0.293278
O71   O     O_R   0.415831 0.546214 0.151886 -0.308918
N21   N     N_R   0.214212 0.459630 0.149606 0.104403
O72   O     O_R   0.170576 0.410489 0.135650 -0.277963
O73   O     O_R   0.294319 0.409901 0.171218 -0.285828
N22   N     N_R   0.071772 0.610959 0.219967 0.104609
O74   O     O_R   0.038486 0.558912 0.238940 -0.236010
O75   O     O_R   0.009604 0.682399 0.196743 -0.335192
O76   O     O_3   0.541180 0.855480 0.911117 -0.607286
H49   H     H_    0.537601 0.831684 0.937217 0.355669
N23   N     N_R   0.535509 0.145809 0.904556 0.115867
O77   O     O_R   0.464588 0.134936 0.887625 -0.249139
O78   O     O_R   0.513429 0.197728 0.936606 -0.263941

loop_
_geom_bond_atom_site_label_1
_geom_bond_atom_site_label_2
_geom_bond_distance
_ccdc_geom_bond_type
O6    C3    1.280123 A    
C112  O18   1.271877 A    
O11   Cr3   2.032572 S    
C34   C38   1.414426 A    
C75   C114  1.491062 S    
C77   C78   1.396406 A    
C11   O63   1.383346 S    
C33   C34   1.400021 A    
C6    C92   1.473607 S    
C15   C16   1.417174 A    
C100  O69   1.382194 S    
C48   C49   1.402230 A    
C41   N9    1.438253 S    
N11   O47   1.301515 A    
C66   N15   1.441149 S    
C61   H20   1.083172 S    
C101  C102  1.396122 A    
C83   C84   1.400221 A    
O4    Cr2   1.932763 S    
N10   O42   1.301332 A    
C35   C36   1.403499 A    
C71   N17   1.432378 S    
C12   N8    1.438292 S    
N8    O37   1.301015 A    
O8    Cr1   1.922512 S    
C8    C9    1.402738 A    
C60   C61   1.397746 A    
C28   H2    1.083555 S    
C99   N20   1.438977 S    
N12   O49   1.301367 A    
O20   C116  1.267375 A    
C108  C109  1.420602 A    
C70   H19   1.081946 S    
C88   H27   1.083314 S    
O62   H43   0.990877 S    
C106  C110  1.403003 A    
C17   C20   1.421283 A    
C99   C104  1.415168 A    
C30   O32   1.381541 S    
C80   O62   1.381415 S    
C18   C19   1.394075 A    
C53   C54   1.403102 A    
Cr5   O26   1.973967 S    
C34   O33   1.382777 S    
C98   H30   1.083132 S    
O17   C112  1.276846 A    
C95   C96   1.415118 A    
C64   C65   1.421110 A    
C76   C77   1.396589 A    
N5    O28   1.300408 A    
N18   O60   1.301410 A    
O25   Cr6   1.931390 S    
C5    C74   1.477388 S    
C53   H13   1.083236 S    
C28   C29   1.404261 A    
C35   C38   1.406172 A    
C4    C110  1.474947 S    
C78   C79   1.404933 A    
C82   H22   1.083520 S    
C22   N23   1.437619 S    
N19   O68   1.301059 A    
C45   C50   1.395412 A    
N17   O58   1.301157 A    
O22   Cr5   2.040382 S    
C69   H18   1.083891 S    
C103  N22   1.439730 S    
C64   N14   1.444070 S    
C99   C100  1.407021 A    
O18   Cr6   2.049740 S    
N7    O34   1.301148 A    
N1    C13   1.355284 A    
C15   N19   1.435682 S    
N16   O56   1.300677 A    
C87   C88   1.404922 A    
O33   H38   0.991801 S    
N18   O61   1.301512 A    
O2    C1    1.272596 A    
C11   C12   1.406634 A    
N22   O74   1.301405 A    
C94   H29   1.082940 S    
C75   C80   1.418713 A    
N6    O30   1.301254 A    
C9    N16   1.436903 S    
C45   C46   1.391891 A    
C89   C92   1.402286 A    
C39   C40   1.409995 A    
Cr6   O26   1.963009 S    
C10   C14   1.470011 S    
C57   C58   1.419262 A    
Cr3   O13   1.973386 S    
C107  C110  1.403984 A    
C26   O29   1.384161 S    
N16   O57   1.301265 A    
C69   C70   1.384260 A    
C8    N5    1.433877 S    
O3    Cr2   2.036558 S    
C47   C55   1.475894 S    
C53   C56   1.408085 A    
C88   C92   1.406842 A    
N11   O46   1.300913 A    
C63   H15   1.083365 S    
N14   O52   1.301593 A    
C21   C111  1.491844 S    
C29   C30   1.409016 A    
C2    O5    1.273468 A    
C87   C91   1.406672 A    
N10   O43   1.300788 A    
C46   C47   1.406853 A    
C27   C32   1.398078 A    
O7    C6    1.273331 A    
N17   O59   1.301233 A    
O19   Cr6   1.919165 S    
O1    Cr1   2.038826 S    
O14   C113  1.268832 A    
C47   C48   1.416071 A    
O29   H36   0.988966 S    
C29   C37   1.473974 S    
O10   Cr2   1.919117 S    
C106  H33   1.081662 S    
C57   C62   1.407946 A    
Cr1   O13   1.970834 S    
O1    C3    1.268237 A    
C49   C50   1.400536 A    
N12   O48   1.301330 A    
C79   O65   1.382665 S    
C60   C68   1.474892 S    
C58   C59   1.404662 A    
C57   C115  1.482364 S    
O38   H39   0.989433 S    
O39   H40   0.991688 S    
C52   O45   1.381291 S    
N21   O73   1.301409 A    
C23   H4    1.084037 S    
C7    C8    1.415623 A    
O19   C113  1.273911 A    
C4    O9    1.296145 A    
C48   N10   1.439445 S    
C54   C55   1.403572 A    
C1    O3    1.270114 A    
C30   C31   1.405485 A    
C36   N6    1.441552 S    
N5    O27   1.300997 A    
C93   C116  1.472511 S    
C17   O76   1.377873 S    
N6    O31   1.301242 A    
C17   C18   1.390617 A    
C15   C19   1.409502 A    
C22   C23   1.396834 A    
C39   C44   1.403151 A    
N19   O67   1.301112 A    
C51   C55   1.401621 A    
C25   N7    1.436753 S    
O15   Cr4   1.925275 S    
O10   C5    1.274362 A    
C16   C20   1.421010 A    
O7    Cr1   2.037718 S    
C103  C104  1.414917 A    
C46   H9    1.083550 S    
C63   C64   1.398556 A    
O69   H48   0.987617 S    
N15   O55   1.301547 A    
O12   C6    1.274259 A    
C36   C37   1.413374 A    
O14   Cr4   2.038140 S    
C61   C62   1.386159 A    
N13   O50   1.301322 A    
C95   N21   1.441489 S    
C13   C19   1.466344 S    
C72   N13   1.439014 S    
O44   H41   0.988417 S    
C79   C80   1.417887 A    
O25   C116  1.272172 A    
N22   O75   1.301277 A    
C49   H11   1.083828 S    
C43   N11   1.442832 S    
C81   C82   1.394389 A    
C43   C44   1.396802 A    
C40   O38   1.382590 S    
C93   C98   1.400967 A    
C18   H1    1.084291 S    
C54   O39   1.381911 S    
C40   C41   1.416323 A    
Cr2   O13   1.963225 S    
N9    O40   1.301130 A    
N9    O41   1.301131 A    
C1    C56   1.482207 S    
C85   C86   1.403771 A    
N14   O53   1.301203 A    
N23   O78   1.301561 A    
C111  O16   1.279181 A    
C90   H21   1.083555 S    
C21   C22   1.418084 A    
C58   N12   1.436206 S    
N20   O70   1.300888 A    
C10   C11   1.416863 A    
C97   C98   1.389026 A    
O15   C111  1.277272 A    
N3    C14   1.356581 A    
O64   H45   0.991656 S    
C75   C76   1.418977 A    
C44   H8    1.083332 S    
C33   C37   1.398959 A    
C51   H12   1.083855 S    
C7    C12   1.418723 A    
O21   Cr4   1.920027 S    
C102  H31   1.084336 S    
C76   N18   1.436420 S    
O21   C114  1.280828 A    
O9    Cr2   2.049056 S    
C83   C91   1.469423 S    
O2    Cr1   1.920695 S    
N23   O77   1.301496 A    
C41   C42   1.414136 A    
N3    N4    1.331091 A    
C23   C24   1.395082 A    
O32   H37   0.991759 S    
N20   O71   1.301293 A    
C31   H5    1.083941 S    
O6    Cr3   1.915670 S    
C71   C72   1.413033 A    
C45   H10   1.083199 S    
O24   Cr6   2.035268 S    
C108  O66   1.382034 S    
C82   C83   1.404189 A    
N21   O72   1.301484 A    
O23   Cr5   1.915389 S    
C97   H34   1.083791 S    
C85   H26   1.083415 S    
C72   C73   1.412760 A    
N13   O51   1.300448 A    
C65   C73   1.472233 S    
C66   C67   1.398527 A    
C105  H32   1.083795 S    
C96   C97   1.401398 A    
C70   C74   1.403663 A    
Cr4   O26   1.970955 S    
N4    C13   1.357748 A    
O66   H47   0.988017 S    
O63   H44   0.987752 S    
C31   C32   1.400806 A    
C90   C91   1.401906 A    
C89   C90   1.391383 A    
C59   H16   1.083410 S    
O16   Cr5   2.033291 S    
C81   C86   1.403157 A    
C96   C104  1.474325 S    
O5    Cr3   2.045761 S    
C93   C94   1.405695 A    
C16   O44   1.384363 S    
C52   C56   1.412204 A    
C51   C52   1.405751 A    
C42   C50   1.469269 S    
O45   H42   0.991819 S    
O4    C2    1.278556 A    
C89   H28   1.082788 S    
C33   H6    1.084101 S    
C107  H35   1.082830 S    
C27   C28   1.391011 A    
C5    O11   1.269458 A    
O17   Cr5   1.925101 S    
C59   C60   1.403148 A    
O20   Cr4   2.043324 S    
C69   C73   1.395403 A    
C100  C101  1.416891 A    
C71   C74   1.416887 A    
C105  C109  1.399791 A    
C42   C43   1.413714 A    
N2    C14   1.356579 A    
O65   H46   0.990258 S    
C25   C26   1.415345 A    
C62   H14   1.083082 S    
C114  O22   1.274014 A    
N1    N2    1.328921 A    
C24   C32   1.467483 S    
O23   C115  1.276702 A    
C2    C7    1.492541 S    
C24   C25   1.405057 A    
C21   C26   1.424616 A    
C84   C85   1.391965 A    
C84   H25   1.083220 S    
C81   H23   1.083430 S    
C67   H17   1.083377 S    
N7    O35   1.301160 A    
C65   C66   1.417557 A    
C27   H3    1.083374 S    
C107  C108  1.397691 A    
C94   C95   1.404640 A    
C102  C103  1.393663 A    
C39   C113  1.481205 S    
C67   C68   1.399006 A    
C87   O64   1.381702 S    
C78   C86   1.472973 S    
N8    O36   1.301473 A    
C3    C38   1.480955 S    
C105  C106  1.390406 A    
C63   C68   1.398897 A    
C77   H24   1.083996 S    
C101  C109  1.472662 S    
C20   C112  1.491950 S    
C115  O24   1.268339 A    
C35   H7    1.082912 S    
O8    C4    1.300482 A    
N15   O54   1.301359 A    
O76   H49   0.990997 S    
C9    C10   1.409428 A    
O12   Cr3   1.925740 S    
