data_mof_unit_21797.cif
_audit_creation_date              2012-12-10T17:35:39-0500
_audit_creation_method            fapswitch 2.2
_symmetry_space_group_name_H-M    P1
_symmetry_Int_Tables_number       1
_space_group_crystal_system       triclinic
_cell_length_a                    10.761298
_cell_length_b                    12.399314
_cell_length_c                    13.131564
_cell_angle_alpha                 116.974825
_cell_angle_beta                  75.341778
_cell_angle_gamma                 100.79556
_cell_volume                      1505.37526785

loop_
_atom_site_label
_atom_site_type_symbol
_atom_type_description
_atom_site_fract_x
_atom_site_fract_y
_atom_site_fract_z
_atom_type_partial_charge
C1    C     C_R   0.510842 0.854899 0.285604 0.883602
C2    C     C_R   0.490876 0.563798 0.009296 0.063523
C3    C     C_R   0.457842 0.649449 0.125967 0.019518
C4    C     C_R   0.739440 0.000354 0.500314 0.791122
C5    C     C_R   0.459403 0.437645 0.980263 0.098734
C6    C     C_R   0.370387 0.400574 0.061631 0.025153
C7    C     C_R   0.325263 0.489377 0.172654 -0.157769
C8    C     C_R   0.367575 0.610661 0.203724 -0.122783
C9    C     C_R   0.518895 0.347404 0.874930 0.365969
C10   C     C_R   0.377889 0.190284 0.918147 -0.210876
C11   C     C_R   0.512024 0.771994 0.160282 -0.176732
C12   C     C_3   0.122059 0.996695 0.495673 -0.038862
C13   C     C_R   0.632765 0.294025 0.275953 -0.070415
C14   C     C_R   0.335982 0.768726 0.658752 0.122219
C15   C     C_R   0.301203 0.676137 0.695258 -0.210976
C16   C     C_R   0.485085 0.144571 0.714058 0.822235
C17   C     C_R   0.358579 0.566798 0.631728 -0.148451
C18   C     C_R   0.451381 0.547260 0.529002 -0.054695
C19   C     C_R   0.484262 0.643916 0.493503 0.247159
C20   C     C_R   0.513519 0.435755 0.461640 -0.044313
C21   C     C_R   0.584907 0.410472 0.347134 -0.040064
C22   C     C_R   0.617764 0.505137 0.311645 -0.153465
C23   C     C_3   0.034026 0.996693 0.612349 -0.163077
C24   C     C_R   0.579385 0.622608 0.389723 0.330161
C25   C     C_R   0.508890 0.347647 0.503735 0.074961
C26   C     C_R   0.637232 0.220105 0.328076 0.083583
C27   C     C_R   0.260357 0.999412 0.498976 0.855496
C28   C     C_3   0.952672 0.123914 0.510352 -0.354219
C29   C     C_3   0.097627 0.115408 0.491601 -0.363814
C30   C     C_3   0.891133 0.974650 0.599381 -0.433256
C31   C     C_3   0.938523 0.895461 0.379767 -0.251241
C32   C     C_3   0.878014 0.999023 0.496645 -0.009710
C33   C     C_2   0.079309 0.757543 0.385208 0.766808
C34   C     C_3   0.081294 0.881277 0.382663 -0.143612
C35   C     C_2   0.237660 0.228952 0.108488 0.860554
C36   C     C_2   0.716948 0.490732 0.204966 0.900927
C37   C     C_2   0.664296 0.239017 0.146729 0.871693
C38   C     C_2   0.060091 0.111671 0.720071 0.828533
C39   C     C_2   0.923047 0.908141 0.273216 0.907899
C40   C     C_2   0.174631 0.870865 0.268230 0.778342
C41   C     C_R   0.331285 0.275437 0.030253 -0.000128
C42   C     C_R   0.465521 0.226518 0.838646 -0.181999
C43   C     C_R   0.572271 0.812862 0.073278 0.285100
C44   C     C_R   0.589685 0.728993 0.954490 0.353134
C45   C     C_R   0.547786 0.607235 0.924336 -0.142739
Cu1   Cu    Cu3+1 0.529690 0.098270 0.475420 1.001774
Cu2   Cu    Cu3+1 0.470310 0.901730 0.524580 1.007581
H1    H     H_    0.918642 0.194721 0.599020 0.207729
H2    H     H_    0.454266 0.358024 0.588177 0.121051
H3    H     H_    0.291007 0.853282 0.709120 0.138776
H4    H     H_    0.325809 0.497517 0.662984 0.137796
H5    H     H_    0.229157 0.689135 0.773297 0.168802
H6    H     H_    0.145151 0.118573 0.407561 0.245274
H7    H     H_    0.138347 0.197929 0.559692 0.179402
H8    H     H_    0.826712 0.030128 0.681043 0.199145
H9    H     H_    0.878308 0.810932 0.375146 0.193048
H10   H     H_    0.041532 0.575686 0.304406 0.367698
H11   H     H_    0.193286 0.103752 0.172927 0.374454
H12   H     H_    0.856792 0.878525 0.582086 0.204048
H13   H     H_    0.680546 0.303125 0.763291 0.336846
H14   H     H_    0.594998 0.957484 0.047048 0.340789
H15   H     H_    0.711490 0.834099 0.895367 0.340840
H16   H     H_    0.898467 0.453111 0.118106 0.373614
H17   H     H_    0.780356 0.135188 0.999746 0.346674
H18   H     H_    0.684876 0.701679 0.294176 0.353867
H19   H     H_    0.186228 0.213876 0.824100 0.332607
H20   H     H_    0.844147 0.836813 0.129677 0.357191
H21   H     H_    0.326074 0.941916 0.184342 0.358808
H22   H     H_    0.053845 0.922526 0.629343 0.182262
H23   H     H_    0.339652 0.096094 0.890669 0.195475
H24   H     H_    0.258956 0.466822 0.238418 0.176593
H25   H     H_    0.557158 0.548078 0.832446 0.213657
H26   H     H_    0.935219 0.155631 0.448929 0.227529
H27   H     H_    0.322778 0.673532 0.288271 0.178905
H28   H     H_    0.678538 0.133941 0.276915 0.206295
N1    N     N_R   0.574690 0.246280 0.438200 -0.211916
N2    N     N_R   0.426100 0.754320 0.561190 -0.187826
O1    O     O_R   0.537340 0.972510 0.318130 -0.519318
O2    O     O_R   0.037858 0.651787 0.295084 -0.692251
O3    O     O_2   0.136060 0.275269 0.161064 -0.566851
O4    O     O_R   0.263763 0.127600 0.117384 -0.737578
O5    O     O_3   0.633910 0.377090 0.813240 -0.713324
O6    O     O_3   0.610306 0.934601 0.105721 -0.726607
O7    O     O_3   0.651385 0.761104 0.865145 -0.719172
O8    O     O_2   0.690457 0.504678 0.126697 -0.559591
O9    O     O_R   0.840010 0.461112 0.194611 -0.710074
O10   O     O_2   0.595732 0.251678 0.092177 -0.579410
O11   O     O_R   0.769620 0.168848 0.087433 -0.714154
O12   O     O_R   0.487200 0.806530 0.359650 -0.581673
O13   O     O_3   0.655458 0.718282 0.377027 -0.693366
O14   O     O_2   0.979111 0.185074 0.777375 -0.585511
O15   O     O_R   0.178804 0.133491 0.753602 -0.793229
O16   O     O_2   0.977442 0.993987 0.252767 -0.595333
O17   O     O_R   0.847401 0.819181 0.197127 -0.748843
O18   O     O_2   0.159208 0.783997 0.176259 -0.532693
O19   O     O_R   0.275488 0.959426 0.265846 -0.771915
O20   O     O_R   0.707380 0.082980 0.479220 -0.593535
O21   O     O_R   0.657240 0.917000 0.520740 -0.515884
O22   O     O_R   0.512800 0.193470 0.640350 -0.577511
O23   O     O_R   0.462660 0.027490 0.681870 -0.578370
O24   O     O_R   0.342760 0.083000 0.479260 -0.557041
O25   O     O_R   0.292620 0.917020 0.520780 -0.562481
O26   O     O_2   0.112373 0.748186 0.462937 -0.606302

loop_
_geom_bond_atom_site_label_1
_geom_bond_atom_site_label_2
_ccdc_geom_bond_type
Cu1   O22   S    
C4    O21   A    
C12   C29   S    
C10   C42   A    
C43   O6    S    
H10   O2    S    
C37   O11   S    
C1    C11   S    
C17   H4    S    
Cu1   N1    S    
C35   O4    S    
C7    C8    A    
C12   C23   S    
C9    C42   A    
H21   O19   S    
Cu2   O21   S    
C34   C40   S    
C28   C29   S    
C7    H24   S    
C5    C6    A    
C20   C25   A    
C38   O15   S    
C35   O3    D    
C18   C19   A    
C14   N2    A    
C19   N2    A    
C23   H22   S    
C39   O16   D    
H13   O5    S    
C31   C39   S    
C6    C41   A    
H20   O17   S    
C26   N1    A    
C11   C43   A    
C31   H9    S    
C13   C37   S    
C9    O5    S    
Cu2   O25   S    
C4    O20   A    
C45   H25   S    
C1    O1    A    
Cu2   O12   S    
C40   O19   S    
C28   H26   S    
C17   C18   A    
C2    C45   A    
H18   O13   S    
Cu1   O24   S    
C12   C27   S    
C23   C30   S    
C28   C32   S    
C3    C8    A    
H14   O6    S    
H11   O4    S    
Cu1   O1    S    
C16   O23   A    
H19   O15   S    
C36   O9    S    
C38   O14   D    
C27   O24   A    
Cu2   O23   S    
C43   C44   A    
C39   O17   S    
C5    C9    A    
C31   C32   S    
C30   H12   S    
C8    H27   S    
C26   H28   S    
C31   C34   S    
C13   C21   A    
C15   H5    S    
C4    C32   S    
C10   H23   S    
Cu1   O20   S    
H16   O9    S    
C22   C24   A    
C13   C26   A    
C2    C5    A    
Cu2   N2    S    
C40   O18   D    
C12   C34   S    
C16   C42   S    
C44   C45   A    
C15   C17   A    
H15   O7    S    
Cu1   Cu2   S    
C28   H1    S    
C1    O12   A    
C33   O26   D    
C37   O10   D    
C33   O2    S    
C44   O7    S    
C24   O13   S    
C16   O22   A    
C6    C7    A    
C36   O8    D    
C23   C38   S    
C22   C36   S    
C30   H8    S    
C27   O25   A    
C25   N1    A    
C2    C3    A    
C30   C32   S    
C14   H3    S    
C29   H6    S    
C33   C34   S    
C19   C24   A    
C18   C20   A    
C35   C41   S    
C25   H2    S    
C3    C11   A    
C20   C21   A    
C29   H7    S    
C14   C15   A    
C21   C22   A    
H17   O11   S    
C10   C41   A    
