data_mof_unit_14323.cif
_audit_creation_date              2012-12-11T15:45:46-0500
_audit_creation_method            fapswitch 2.2
_symmetry_space_group_name_H-M    P1
_symmetry_Int_Tables_number       1
_space_group_crystal_system       triclinic
_cell_length_a                    8.269905
_cell_length_b                    18.989665
_cell_length_c                    22.901819
_cell_angle_alpha                 95.268012
_cell_angle_beta                  89.619406
_cell_angle_gamma                 94.247421
_cell_volume                      3571.53638195

loop_
_atom_site_label
_atom_site_type_symbol
_atom_type_description
_atom_site_fract_x
_atom_site_fract_y
_atom_site_fract_z
_atom_type_partial_charge
Ba1   Ba    Ba6+2 0.850680 0.532880 0.472010 1.640112
Ba2   Ba    Ba6+2 0.339140 0.467180 0.527990 1.676788
C1    C     C_3   0.696154 0.797562 0.331071 -0.348278
C2    C     C_R   0.086044 0.557092 0.939458 -0.047947
C3    C     C_R   0.038337 0.553173 0.879716 0.665785
C4    C     C_3   0.165159 0.724194 0.315139 0.374938
C5    C     C_R   0.983422 0.427176 0.878598 0.590535
C6    C     C_R   0.022856 0.429927 0.938860 -0.021460
C7    C     C_R   0.076087 0.495146 0.969271 -0.054693
C8    C     C_R   0.142737 0.621660 0.970299 -0.068623
C9    C     C_R   0.189510 0.624492 0.029166 -0.072589
C10   C     C_R   0.178442 0.563082 0.059634 -0.018064
C11   C     C_R   0.119807 0.498365 0.029721 -0.049234
C12   C     C_3   0.662528 0.721955 0.347387 0.360591
C13   C     C_R   0.010899 0.368610 0.969388 -0.075659
C14   C     C_R   0.050171 0.372088 0.028970 -0.079968
C15   C     C_R   0.105485 0.436791 0.059925 -0.021674
C16   C     C_3   0.080280 0.665500 0.274149 -0.311334
C17   C     C_R   0.147451 0.441053 0.120196 0.572822
C18   C     C_R   0.225060 0.565201 0.119229 0.583319
C19   C     C_2   0.801699 0.447863 0.768589 -0.159593
C20   C     C_3   0.773120 0.427930 0.703872 -0.064252
C21   C     C_1   0.005484 0.511430 0.685359 -0.008072
C22   C     C_2   0.050312 0.516448 0.741782 0.570363
C23   C     C_3   0.551493 0.350294 0.345583 0.282194
C24   C     C_2   0.941797 0.484366 0.787304 0.149548
C25   C     C_R   0.405965 0.540698 0.231332 -0.121737
C26   C     C_R   0.447900 0.546443 0.291094 -0.021454
C27   C     C_R   0.191691 0.485015 0.314180 0.031669
C28   C     C_3   0.199796 0.683167 0.596378 0.307666
C29   C     C_R   0.146998 0.480110 0.254352 -0.108067
C30   C     C_R   0.253251 0.508510 0.211869 0.199413
C31   C     C_2   0.874078 0.473249 0.664907 -0.379255
C32   C     C_R   0.398783 0.701502 0.473724 -0.376769
C33   C     C_R   0.539793 0.724154 0.504563 0.074096
C34   C     C_3   0.640894 0.327228 0.288912 -0.208576
C35   C     C_R   0.592124 0.796269 0.511103 -0.210893
C36   C     C_R   0.500490 0.846685 0.487710 -0.091332
C37   C     C_R   0.352588 0.823168 0.459015 0.515068
C38   C     C_R   0.301830 0.750567 0.453178 -0.039262
C39   C     C_R   0.548204 0.966641 0.449701 -0.004448
C40   C     C_3   0.210398 0.763140 0.611059 -0.356845
C41   C     C_R   0.598312 0.038871 0.457752 -0.087750
C42   C     C_R   0.658113 0.069772 0.512324 0.059250
C43   C     C_R   0.669228 0.026401 0.558397 -0.071433
C44   C     C_R   0.618255 0.954100 0.550420 -0.075725
C45   C     C_3   0.010598 0.268438 0.686321 0.290061
C46   C     C_R   0.555891 0.923465 0.496076 0.103207
C47   C     C_R   0.850976 0.173633 0.549501 -0.138663
C48   C     C_R   0.896686 0.246753 0.554016 -0.014219
C49   C     C_R   0.653604 0.267833 0.502304 0.053004
C50   C     C_R   0.607090 0.195295 0.497392 -0.116891
C51   C     C_R   0.704634 0.147268 0.521139 -0.007129
C52   C     C_3   0.993355 0.318481 0.407609 0.303781
C53   C     C_R   0.794174 0.293469 0.532603 -0.276737
C54   C     C_3   0.970225 0.238509 0.393491 -0.386976
C55   C     C_3   0.689074 0.618754 0.645998 0.297040
C56   C     C_3   0.053524 0.255493 0.748628 -0.302677
C57   C     C_3   0.696018 0.635986 0.712152 -0.326993
C58   C     C_3   0.619354 0.374822 0.239491 -0.304197
C59   C     C_3   0.461327 0.355078 0.206018 -0.360743
C60   C     C_3   0.222466 0.789316 0.282987 -0.200698
C61   C     C_3   0.329008 0.771902 0.229526 -0.467423
C62   C     C_3   0.534833 0.280104 0.670806 0.418471
C63   C     C_3   0.501257 0.212252 0.700656 -0.353269
C64   C     C_R   0.340181 0.519275 0.331777 -0.283610
F1    F     F_    0.196647 0.549210 0.758451 -0.653619
F2    F     F_    0.253968 0.870551 0.440260 -0.713473
H1    H     H_    0.745342 0.714336 0.383825 0.108380
H2    H     H_    0.809827 0.604765 0.630069 -0.001972
H3    H     H_    0.599158 0.573000 0.636003 0.081149
H4    H     H_    0.688084 0.835259 0.370827 0.075830
H5    H     H_    0.790616 0.679582 0.723650 0.127917
H6    H     H_    0.725517 0.588669 0.733784 0.061461
H7    H     H_    0.576641 0.652437 0.728637 0.160603
H8    H     H_    0.535419 0.715454 0.362620 -0.070756
H9    H     H_    0.606390 0.810015 0.298650 0.097619
H10   H     H_    0.422092 0.356754 0.336284 0.011525
H11   H     H_    0.609279 0.401935 0.364349 0.055523
H12   H     H_    0.291924 0.778053 0.649243 0.128286
H13   H     H_    0.600989 0.271346 0.273706 0.128321
H14   H     H_    0.772184 0.328429 0.299053 0.127991
H15   H     H_    0.819089 0.804755 0.311899 0.157231
H16   H     H_    0.166702 0.643724 0.241830 0.118955
H17   H     H_    0.961689 0.321313 0.687220 0.009547
H18   H     H_    0.917063 0.226232 0.670111 -0.018465
H19   H     H_    0.145261 0.297248 0.766937 0.169631
H20   H     H_    0.942797 0.256408 0.776256 0.120820
H21   H     H_    0.102693 0.202731 0.749234 0.091690
H22   H     H_    0.668752 0.289495 0.667690 -0.134840
H23   H     H_    0.258973 0.790436 0.573336 0.056405
H24   H     H_    0.483412 0.272133 0.625773 0.073400
H25   H     H_    0.560336 0.168262 0.675616 0.058988
H26   H     H_    0.369137 0.197892 0.702400 0.144247
H27   H     H_    0.274041 0.702619 0.333004 -0.049786
H28   H     H_    0.550791 0.219428 0.745943 0.113185
H29   H     H_    0.038094 0.323615 0.050645 0.120529
H30   H     H_    0.969973 0.317551 0.947339 0.118763
H31   H     H_    0.233532 0.675294 0.050915 0.117666
H32   H     H_    0.492399 0.560862 0.200130 0.116826
H33   H     H_    0.152379 0.670317 0.948852 0.124682
H34   H     H_    0.087924 0.781049 0.621751 0.128990
H35   H     H_    0.718790 0.424692 0.799717 0.131857
H36   H     H_    0.030166 0.454397 0.241079 0.118843
H37   H     H_    0.374788 0.522694 0.377485 0.083968
H38   H     H_    0.851825 0.463550 0.618122 0.100974
H39   H     H_    0.498090 0.176216 0.473169 0.087120
H40   H     H_    0.591462 0.070566 0.420997 0.066568
H41   H     H_    0.504747 0.944383 0.406945 0.101380
H42   H     H_    0.702799 0.812972 0.535127 0.116583
H43   H     H_    0.713709 0.048797 0.600989 0.063030
H44   H     H_    0.624746 0.922385 0.587171 0.066035
H45   H     H_    0.876276 0.339091 0.421173 -0.004595
H46   H     H_    0.932121 0.137494 0.565462 0.076848
H47   H     H_    0.831421 0.349481 0.534622 0.058063
H48   H     H_    0.035147 0.621929 0.300211 0.142140
H49   H     H_    0.357572 0.645834 0.469814 0.088554
H50   H     H_    0.978032 0.685437 0.250915 0.147773
H51   H     H_    0.322562 0.666098 0.586603 0.001294
H52   H     H_    0.119953 0.669685 0.557567 0.055095
H53   H     H_    0.457282 0.299182 0.186626 0.144723
H54   H     H_    0.355559 0.362055 0.235466 0.149920
H55   H     H_    0.454119 0.389840 0.169877 0.153095
H56   H     H_    0.081742 0.330150 0.444008 0.080529
H57   H     H_    0.623688 0.431003 0.257279 0.139425
H58   H     H_    0.721572 0.368989 0.208056 0.150913
H59   H     H_    0.418441 0.733652 0.239084 0.171329
H60   H     H_    0.395060 0.821235 0.216825 0.134580
H61   H     H_    0.252329 0.749205 0.191861 0.188279
H62   H     H_    0.115941 0.815905 0.268779 0.126435
H63   H     H_    0.292895 0.827654 0.314500 0.137033
H64   H     H_    0.876412 0.225343 0.358949 0.124810
H65   H     H_    0.931366 0.212392 0.432999 0.068762
H66   H     H_    0.086246 0.217578 0.377775 0.132141
N1    N     N_R   0.988950 0.488502 0.849414 -0.412590
N2    N     N_R   0.207254 0.504879 0.149691 -0.420275
O1    O     O_2   0.896730 0.461690 0.361000 -0.469410
O2    O     O_2   0.231395 0.250530 0.541325 -0.486162
O3    O     O_3   0.150087 0.266048 0.651254 -0.576565
O4    O     O_3   0.137170 0.462400 0.432040 -0.486433
O5    O     O_3   0.560670 0.583970 0.528500 -0.492028
O6    O     O_2   0.373560 0.329680 0.473470 -0.449577
O7    O     O_3   0.559939 0.295756 0.382610 -0.653391
O8    O     O_2   0.454247 0.474912 0.709540 -0.413166
O9    O     O_3   0.463176 0.336536 0.703136 -0.569336
O10   O     O_2   0.038738 0.607563 0.855053 -0.550160
O11   O     O_2   0.945344 0.369729 0.851977 -0.621843
O12   O     O_3   0.644760 0.678450 0.620142 -0.632578
O13   O     O_2   0.132742 0.387476 0.146052 -0.616483
O14   O     O_2   0.281202 0.621229 0.143920 -0.629971
O15   O     O_3   0.657500 0.588540 0.395070 -0.488594
O16   O     O_2   0.784814 0.544845 0.292225 -0.501306
O17   O     O_3   0.050046 0.348590 0.357206 -0.638014
O18   O     O_3   0.688847 0.673623 0.298563 -0.605592
O19   O     O_2   0.816140 0.670340 0.526560 -0.460727
O20   O     O_3   0.069580 0.624410 0.423530 -0.494376
O21   O     O_2   0.972705 0.750734 0.467430 -0.458068
O22   O     O_3   0.052751 0.746028 0.358307 -0.579599
O23   O     O_2   0.292960 0.538340 0.639040 -0.421298
O24   O     O_3   0.052540 0.537650 0.567960 -0.509647
O25   O     O_3   0.532200 0.411510 0.604930 -0.484691
O26   O     O_3   0.137186 0.651202 0.645065 -0.607527
O27   O     O_3   0.629030 0.416090 0.471500 -0.482780
O28   O     O_3   0.120120 0.375640 0.576470 -0.470968
P1    P     P_3+3 0.067040 0.441110 0.370020 0.986210
P2    P     P_3+3 0.640420 0.660110 0.543790 0.990004
P3    P     P_3+3 0.100150 0.717489 0.426067 1.009445
P4    P     P_3+3 0.122660 0.558950 0.629980 1.060857
P5    P     P_3+3 0.098401 0.283518 0.580402 0.960582
P6    P     P_3+3 0.645069 0.587290 0.318605 0.936364
P7    P     P_3+3 0.556866 0.327080 0.456922 0.951366
P8    P     P_3+3 0.555366 0.415618 0.681040 0.997065

loop_
_geom_bond_atom_site_label_1
_geom_bond_atom_site_label_2
_ccdc_geom_bond_type
C19   C24   D    
C59   H54   S    
C40   H12   S    
C44   H44   S    
C62   O9    S    
O12   P2    S    
C37   F2    S    
C60   H62   S    
C62   H22   S    
C56   H19   S    
O21   P3    D    
C52   O17   S    
O1    P1    D    
C54   H65   S    
C5    C6    A    
C43   C44   A    
C42   C43   A    
O5    P2    S    
C35   C36   A    
O15   P6    S    
C28   H52   S    
C32   C38   A    
C45   H17   S    
C59   H53   S    
C58   H57   S    
C33   C35   A    
C22   C24   S    
Ba1   Ba2   S    
C36   C37   A    
C61   H61   S    
C14   H29   S    
C55   C57   S    
C28   H51   S    
O19   P2    D    
C13   C14   A    
C52   H45   S    
C33   P2    S    
O23   P4    D    
O18   P6    S    
C9    H31   S    
C32   C33   A    
C27   P1    S    
Ba1   O19   S    
C7    C11   A    
C38   P3    S    
C24   N1    S    
C22   F1    S    
C15   C17   A    
O25   P8    S    
C42   C51   S    
C63   H28   S    
C50   H39   S    
C34   H14   S    
C14   C15   A    
C21   C31   D    
C16   H16   S    
C21   C22   D    
O3    P5    S    
C55   H2    S    
O27   P7    S    
C57   H5    S    
C36   C46   S    
C61   H60   S    
C32   H49   S    
C63   H25   S    
C47   H46   S    
O9    P8    S    
C39   H41   S    
C19   C20   S    
C12   O18   S    
O2    P5    D    
C39   C41   A    
O28   P5    S    
C23   O7    S    
C57   H7    S    
C40   H34   S    
Ba2   O25   S    
C4    O22   S    
O22   P3    S    
C44   C46   A    
C8    H33   S    
C4    C16   S    
C52   C54   S    
C25   H32   S    
C49   C50   A    
C45   H18   S    
C16   H48   S    
C37   C38   A    
C30   N2    S    
C6    C7    A    
O20   P3    S    
C17   N2    Am   
C5    O11   D    
C18   N2    Am   
C23   H10   S    
C58   C59   S    
C12   H8    S    
Ba1   O20   S    
C26   C64   A    
C41   C42   A    
C5    N1    Am   
C60   C61   S    
O16   P6    D    
C29   C30   A    
Ba1   P1    S    
C34   H13   S    
C27   C64   A    
C10   C18   A    
C55   H3    S    
Ba1   O4    S    
C57   H6    S    
C35   H42   S    
C54   H64   S    
C1    C12   S    
O26   P4    S    
C26   P6    S    
C63   H26   S    
C47   C48   A    
C6    C13   A    
C1    H15   S    
Ba2   O6    S    
C12   H1    S    
Ba2   O23   S    
C64   H37   S    
Ba2   O28   S    
C1    H9    S    
Ba2   P4    S    
Ba1   O1    S    
C50   C51   A    
O4    P1    S    
C3    N1    Am   
C20   C31   S    
C52   H56   S    
C3    O10   D    
O17   P1    S    
C25   C30   A    
C23   H11   S    
C60   H63   S    
Ba1   O24   S    
C31   H38   S    
C2    C3    A    
C34   C58   S    
C56   H20   S    
Ba2   O27   S    
C54   H66   S    
C9    C10   A    
C43   H43   S    
C16   H50   S    
C28   O26   S    
O8    P8    D    
C48   C53   A    
C11   C15   A    
C59   H55   S    
Ba2   O4    S    
C29   H36   S    
C4    C60   S    
C49   P7    S    
C1    H4    S    
O7    P7    S    
C27   C29   A    
C62   C63   S    
C45   C56   S    
C53   H47   S    
Ba1   P2    S    
C47   C51   A    
C58   H58   S    
C17   O13   D    
C39   C46   A    
C18   O14   D    
Ba1   O15   S    
C48   P5    S    
C49   C53   A    
C41   H40   S    
O24   P4    S    
C56   H21   S    
C20   P8    S    
Ba1   O5    S    
C8    C9    A    
C23   C34   S    
C21   P4    S    
C19   H35   S    
C10   C11   A    
Ba1   O27   S    
Ba2   O24   S    
C4    H27   S    
C55   O12   S    
C45   O3    S    
C25   C26   A    
Ba2   O5    S    
C62   H24   S    
C28   C40   S    
C13   H30   S    
C2    C7    A    
C2    C8    A    
C61   H59   S    
C40   H23   S    
O6    P7    D    
