data_mof_unit_51615.cif
_audit_creation_date              2012-12-11T14:49:49-0500
_audit_creation_method            fapswitch 2.2
_symmetry_space_group_name_H-M    P1
_symmetry_Int_Tables_number       1
_space_group_crystal_system       triclinic
_cell_length_a                    11.066388
_cell_length_b                    11.067136
_cell_length_c                    18.963743
_cell_angle_alpha                 90.041679
_cell_angle_beta                  90.070668
_cell_angle_gamma                 120.075925
_cell_volume                      2009.84331957

loop_
_atom_site_label
_atom_site_type_symbol
_atom_type_description
_atom_site_fract_x
_atom_site_fract_y
_atom_site_fract_z
_atom_type_partial_charge
C1    C     C_R   0.526155 0.462778 0.645815 0.533253
C2    C     C_R   0.465465 0.531399 0.354698 0.580979
C3    C     C_R   0.473180 0.935313 0.145549 0.597581
C4    C     C_R   0.065697 0.534510 0.354516 0.584853
C5    C     C_R   0.386108 0.926896 0.546226 0.268583
C6    C     C_R   0.635009 0.546127 0.973886 0.303798
C7    C     C_R   0.073764 0.462008 0.546634 0.291963
C8    C     C_R   0.452938 0.086302 0.973654 0.237941
C9    C     C_R   0.536056 0.615950 0.546563 0.308351
C10   C     C_R   0.915235 0.364636 0.972387 0.309711
C11   C     C_R   0.923756 0.382324 0.045949 0.274671
C12   C     C_R   0.934432 0.469161 0.854548 0.599271
C13   C     C_R   0.546423 0.635006 0.473846 0.301879
C14   C     C_R   0.462501 0.074648 0.046695 0.318881
C15   C     C_R   0.086165 0.453183 0.473629 0.235970
C16   C     C_R   0.615945 0.535710 0.046614 0.310729
C17   C     C_R   0.366309 0.914948 0.472592 0.251611
C18   C     C_R   0.483694 0.982252 0.427315 0.037918
C19   C     C_R   0.483359 0.492714 0.073396 -0.072766
C20   C     C_R   0.015657 0.498344 0.426965 -0.010316
C21   C     C_R   0.503600 0.984430 0.072490 0.023029
C22   C     C_R   0.500780 0.518439 0.427591 -0.022189
C23   C     C_R   0.537455 0.064033 0.645675 0.595081
C24   C     C_R   0.008028 0.515840 0.073486 -0.019084
C25   C     C_R   0.981870 0.482902 0.927585 0.023391
C26   C     C_R   0.492692 0.483299 0.573377 -0.072775
C27   C     C_R   0.498167 0.015777 0.927046 -0.014692
C28   C     C_R   0.982954 0.502480 0.572289 -0.012917
C29   C     C_R   0.518475 0.500670 0.927602 -0.022760
C30   C     C_R   0.518331 0.013692 0.572733 0.030404
C31   C     C_R   0.619310 0.060967 0.455108 -0.005715
C32   C     C_R   0.364789 0.422700 0.027952 -0.049163
C33   C     C_R   0.934066 0.552432 0.454030 -0.012078
C34   C     C_R   0.531413 0.465433 0.854703 0.579980
C35   C     C_R   0.572334 0.935207 0.027072 -0.070005
C36   C     C_R   0.444562 0.382912 0.455196 0.000383
C37   C     C_R   0.054015 0.634753 0.028624 -0.012056
C38   C     C_R   0.058433 0.618067 0.955882 -0.008382
C39   C     C_R   0.422523 0.364692 0.527956 -0.050218
C40   C     C_R   0.552061 0.934109 0.954181 -0.021301
C41   C     C_R   0.934538 0.572061 0.526923 -0.091266
C42   C     C_R   0.382973 0.444572 0.955184 -0.000046
C43   C     C_R   0.637005 0.059238 0.527931 -0.036127
C44   C     C_2   0.741119 0.135790 0.406672 0.613186
C45   C     C_R   0.934713 0.472881 0.645421 0.605566
C46   C     C_2   0.226543 0.311740 0.054489 0.676484
C47   C     C_2   0.859047 0.597999 0.404823 0.624927
C48   C     C_2   0.682898 0.907846 0.053749 0.653922
C49   C     C_2   0.400240 0.261547 0.406496 0.626158
C50   C     C_2   0.082662 0.773016 0.055906 0.698081
C51   C     C_2   0.134037 0.740560 0.907876 0.611621
C52   C     C_2   0.311145 0.226533 0.554489 0.675759
C53   C     C_2   0.597151 0.858725 0.904975 0.621860
C54   C     C_2   0.908502 0.683496 0.553640 0.639943
C55   C     C_2   0.261540 0.400146 0.906485 0.625834
C56   C     C_R   0.534527 0.065788 0.854562 0.587794
C57   C     C_2   0.774343 0.084945 0.555162 0.690408
C58   C     C_R   0.462821 0.526152 0.145832 0.535235
C59   C     C_R   0.469275 0.934441 0.354469 0.601960
C60   C     C_R   0.063171 0.537031 0.145833 0.524679
Cr1   Cr    Cr6+3 0.776430 0.541680 0.750000 1.102507
Cr2   Cr    Cr6+3 0.765250 0.223570 0.750000 1.138791
Cr3   Cr    Cr6+3 0.458320 0.234750 0.750000 1.115388
Cr4   Cr    Cr6+3 0.541680 0.776430 0.250000 1.097809
Cr5   Cr    Cr6+3 0.223570 0.765250 0.250000 1.138000
Cr6   Cr    Cr6+3 0.234750 0.458320 0.250000 1.101671
H1    H     H_    0.217170 0.761315 0.572087 0.337149
H2    H     H_    0.106496 0.320413 0.418059 0.394804
H3    H     H_    0.697871 0.540358 0.138325 0.323631
H4    H     H_    0.166550 0.842459 0.477368 0.378351
H5    H     H_    0.822365 0.264553 0.323253 0.341976
H6    H     H_    0.116962 0.136719 0.112102 0.338397
H7    H     H_    0.732333 0.549502 0.320247 0.340681
H8    H     H_    0.858848 0.974660 0.111029 0.337674
H9    H     H_    0.451612 0.182083 0.323673 0.352128
H10   H     H_    0.018174 0.882026 0.114509 0.329600
H11   H     H_    0.263709 0.822748 0.824854 0.351644
H12   H     H_    0.787661 0.678625 0.918115 0.385882
H13   H     H_    0.136134 0.117590 0.612201 0.339467
H14   H     H_    0.548018 0.731818 0.820478 0.342578
H15   H     H_    0.977141 0.860052 0.610622 0.343340
H16   H     H_    0.181908 0.451278 0.823604 0.353566
H17   H     H_    0.880605 0.017043 0.613746 0.330900
H18   H     H_    0.235035 0.449082 0.571010 0.366250
H19   H     H_    0.319898 0.105808 0.917783 0.393816
H20   H     H_    0.540973 0.698055 0.638236 0.328159
H21   H     H_    0.827280 0.162280 0.978677 0.394502
H22   H     H_    0.845961 0.299327 0.137497 0.339340
H23   H     H_    0.678840 0.787619 0.417999 0.385842
H24   H     H_    0.448403 0.235281 0.070810 0.366246
O1    O     O_R   0.916700 0.566820 0.669930 -0.487615
O2    O     O_R   0.566820 0.916700 0.330070 -0.484003
O3    O     O_R   0.083300 0.650120 0.169930 -0.493010
O4    O     O_R   0.349880 0.433180 0.330070 -0.466140
O5    O     O_R   0.649840 0.534790 0.674920 -0.484148
O6    O     O_R   0.884950 0.350160 0.825080 -0.451724
O7    O     O_R   0.465210 0.115050 0.674920 -0.463126
O8    O     O_R   0.649840 0.534790 0.825080 -0.511638
O9    O     O_R   0.884950 0.350160 0.674920 -0.468992
O10   O     O_R   0.465210 0.115050 0.825080 -0.508383
O11   O     O_R   0.534790 0.649840 0.174920 -0.484376
O12   O     O_R   0.650120 0.083300 0.830070 -0.447793
O13   O     O_R   0.350160 0.884950 0.325080 -0.449173
O14   O     O_R   0.115050 0.465210 0.174920 -0.485389
O15   O     O_R   0.534790 0.649840 0.325080 -0.511777
O16   O     O_R   0.350160 0.884950 0.174920 -0.468480
O17   O     O_R   0.115050 0.465210 0.325080 -0.510603
O18   O     O_3   0.666667 0.333333 0.750000 -0.320834
O19   O     O_3   0.333333 0.666667 0.250000 -0.312326
O20   O     O_3   0.279347 0.853919 0.593255 -0.627058
O21   O     O_3   0.769279 0.600072 0.949764 -0.628633
O22   O     O_3   0.147362 0.429867 0.594145 -0.614437
O23   O     O_R   0.433180 0.349880 0.669930 -0.482853
O24   O     O_3   0.398358 0.166197 0.949612 -0.677374
O25   O     O_3   0.573268 0.729914 0.589503 -0.587718
O26   O     O_3   0.841050 0.233010 0.943007 -0.630396
O27   O     O_3   0.849422 0.267930 0.088992 -0.644568
O28   O     O_3   0.600409 0.769314 0.449717 -0.627304
O29   O     O_3   0.429965 0.148012 0.094114 -0.617576
O30   O     O_3   0.166741 0.399355 0.449666 -0.675827
O31   O     O_3   0.729809 0.572532 0.089586 -0.592562
O32   O     O_3   0.234101 0.840342 0.443999 -0.653697
O33   O     O_2   0.835396 0.108503 0.406538 -0.460046
O34   O     O_R   0.916700 0.566820 0.830070 -0.479879
O35   O     O_R   0.739842 0.227471 0.356530 -0.645487
O36   O     O_2   0.121222 0.313142 0.038568 -0.485911
O37   O     O_R   0.216311 0.203812 0.096882 -0.610200
O38   O     O_2   0.883558 0.718726 0.405149 -0.462513
O39   O     O_R   0.770578 0.505076 0.353514 -0.640409
O40   O     O_2   0.681781 0.801464 0.037563 -0.481423
O41   O     O_R   0.791215 0.006228 0.095944 -0.607234
O42   O     O_2   0.279212 0.165555 0.405665 -0.427756
O43   O     O_R   0.495209 0.264770 0.357056 -0.642102
O44   O     O_2   0.190990 0.878121 0.041246 -0.490695
O45   O     O_R   0.650120 0.083300 0.669930 -0.504382
O46   O     O_R   0.984773 0.783109 0.098080 -0.579236
O47   O     O_2   0.107576 0.835411 0.908190 -0.459950
O48   O     O_R   0.225817 0.739545 0.857719 -0.639404
O49   O     O_2   0.311660 0.120851 0.538389 -0.489519
O50   O     O_R   0.203693 0.216852 0.597047 -0.607756
O51   O     O_2   0.717763 0.882882 0.905208 -0.461079
O52   O     O_R   0.503924 0.770357 0.853748 -0.635457
O53   O     O_2   0.802404 0.683212 0.537662 -0.473760
O54   O     O_R   0.007851 0.791751 0.595560 -0.631661
O55   O     O_2   0.165482 0.279141 0.905785 -0.425034
O56   O     O_R   0.433180 0.349880 0.830070 -0.466747
O57   O     O_R   0.264673 0.494971 0.856956 -0.640464
O58   O     O_2   0.881084 0.190597 0.539311 -0.482997
O59   O     O_R   0.781895 0.986213 0.597861 -0.577437
O60   O     O_R   0.566820 0.916700 0.169930 -0.493397
O61   O     O_R   0.083300 0.650120 0.330070 -0.447470
O62   O     O_R   0.349880 0.433180 0.169930 -0.480916

loop_
_geom_bond_atom_site_label_1
_geom_bond_atom_site_label_2
_ccdc_geom_bond_type
C54   O54   S    
Cr2   O6    S    
C29   C42   A    
C6    O21   S    
C11   C24   A    
Cr1   O8    S    
Cr6   O17   S    
H16   O57   S    
H10   O46   S    
Cr4   O15   S    
C15   O30   S    
H18   O22   S    
C31   C43   A    
C47   O39   S    
Cr1   O34   S    
C14   C21   A    
H19   O24   S    
C47   O38   D    
C42   C55   S    
C26   C39   A    
C55   O55   D    
Cr2   O18   S    
C5    O20   S    
C19   C32   A    
C28   C41   A    
C52   O49   D    
C7    O22   S    
C17   C18   A    
C53   O52   S    
Cr1   O18   S    
C9    C13   A    
C34   O8    A    
H15   O54   S    
C57   O59   S    
C2    C22   S    
C48   O41   S    
H12   O21   S    
Cr3   O56   S    
C1    O5    A    
Cr6   O4    S    
C60   O3    A    
Cr5   O3    S    
C54   O53   D    
C3    O16   A    
H8    O41   S    
C48   O40   D    
C15   C20   A    
C1    O23   A    
C35   C48   S    
C4    O17   A    
C58   O62   A    
C9    C26   A    
C13   O28   S    
C19   C58   S    
C32   C42   A    
Cr4   O11   S    
C28   C45   S    
C49   O42   D    
H7    O39   S    
C44   O35   S    
C31   C44   S    
H6    O37   S    
C9    O25   S    
C23   C30   S    
Cr6   O14   S    
C46   O37   S    
C2    O4    A    
H11   O48   S    
C45   O9    A    
C27   C56   S    
C38   C51   S    
Cr3   O10   S    
C6    C16   A    
C29   C34   S    
C7    C28   A    
Cr4   O60   S    
H20   O25   S    
Cr3   O23   S    
Cr2   O45   S    
Cr5   O61   S    
C16   O31   S    
Cr6   O62   S    
C37   C38   A    
C25   C38   A    
H4    O32   S    
H1    O20   S    
C55   O57   S    
C12   O34   A    
H3    O31   S    
C27   C40   A    
C24   C60   S    
H9    O43   S    
C24   C37   A    
C58   O11   A    
Cr5   O19   S    
H21   O26   S    
C20   C33   A    
C51   O47   D    
C10   C25   A    
C23   O7    A    
C40   C53   S    
H14   O52   S    
C50   O44   D    
C1    C26   S    
C33   C47   S    
C30   C43   A    
C3    C21   S    
Cr5   O13   S    
C11   O27   S    
Cr5   O16   S    
C10   O26   S    
C5    C30   A    
C17   O32   S    
C4    O61   A    
C49   O43   S    
C3    O60   A    
C8    C14   A    
C44   O33   D    
C32   C46   S    
C46   O36   D    
C36   C39   A    
H5    O35   S    
Cr1   O5    S    
C21   C35   A    
C8    O24   S    
C22   C36   A    
C2    O15   A    
C23   O45   A    
C12   C25   S    
C33   C41   A    
H24   O29   S    
C35   C40   A    
H22   O27   S    
C59   O13   A    
Cr3   O7    S    
C50   O46   S    
H2    O30   S    
C37   C50   S    
C34   O56   A    
Cr4   O19   S    
C16   C19   A    
C7    C15   A    
C52   O50   S    
C13   C22   A    
C39   C52   S    
C53   O51   D    
C59   O2    A    
Cr6   O19   S    
C45   O1    A    
C41   C54   S    
C10   C11   A    
C43   C57   S    
C56   O12   A    
Cr2   O9    S    
C4    C20   S    
C51   O48   S    
C18   C59   S    
C6    C29   A    
C5    C17   A    
H23   O28   S    
H13   O50   S    
C14   O29   S    
C57   O58   D    
C8    C27   A    
C56   O10   A    
C12   O6    A    
C18   C31   A    
Cr4   O2    S    
Cr2   O12   S    
Cr3   O18   S    
C60   O14   A    
C36   C49   S    
Cr1   O1    S    
H17   O59   S    
