data_mof_unit_62699.cif
_audit_creation_date              2012-12-10T20:33:50-0500
_audit_creation_method            fapswitch 2.2
_symmetry_space_group_name_H-M    P1
_symmetry_Int_Tables_number       1
_space_group_crystal_system       triclinic
_cell_length_a                    28.165598
_cell_length_b                    28.165598
_cell_length_c                    27.73124
_cell_angle_alpha                 89.999965
_cell_angle_beta                  89.999964
_cell_angle_gamma                 89.994062
_cell_volume                      21999.2178286

loop_
_atom_site_label
_atom_site_type_symbol
_atom_type_description
_atom_site_fract_x
_atom_site_fract_y
_atom_site_fract_z
_atom_type_partial_charge
C1    C     C_R   0.198948 0.698948 0.750000 -0.027684
C2    C     C_R   0.801072 0.698928 0.750000 -0.026566
C3    C     C_R   0.789714 0.347419 0.236470 -0.123461
C4    C     C_R   0.347423 0.210308 0.763461 -0.122826
C5    C     C_R   0.652821 0.789833 0.235736 -0.121921
C6    C     C_R   0.807593 0.329371 0.790680 -0.122018
C7    C     C_R   0.210286 0.652581 0.236470 -0.123462
C8    C     C_R   0.135241 0.657185 0.708766 0.200413
C9    C     C_R   0.883100 0.324640 0.263640 0.197004
C10   C     C_R   0.675381 0.883111 0.736445 0.197304
C11   C     C_R   0.324762 0.117134 0.264388 0.197985
C12   C     C_R   0.864772 0.342800 0.708773 0.200418
C13   C     C_R   0.698949 0.198949 0.250000 -0.027683
C14   C     C_R   0.116900 0.675360 0.263640 0.197003
C15   C     C_R   0.324622 0.116893 0.736428 0.197309
C16   C     C_R   0.675238 0.882866 0.264387 0.197984
C17   C     C_R   0.116891 0.324621 0.263562 0.197306
C18   C     C_R   0.882863 0.675236 0.735603 0.197986
C19   C     C_R   0.657206 0.135222 0.291224 0.200421
C20   C     C_R   0.324640 0.883099 0.736360 0.197002
C21   C     C_R   0.883106 0.675377 0.263574 0.197309
C22   C     C_R   0.117136 0.324763 0.735606 0.197986
C23   C     C_R   0.342798 0.864773 0.291226 0.200417
C24   C     C_R   0.301134 0.801134 0.750000 -0.026885
C25   C     C_R   0.675361 0.116900 0.736362 0.197004
C26   C     C_R   0.635223 0.157206 0.208776 0.200421
C27   C     C_R   0.383099 0.824639 0.763640 0.197003
C28   C     C_R   0.175379 0.383109 0.236438 0.197306
C29   C     C_R   0.824764 0.617137 0.764396 0.197985
C30   C     C_R   0.364774 0.842798 0.208774 0.200418
C31   C     C_R   0.616900 0.175361 0.763638 0.197003
C32   C     C_R   0.824623 0.616894 0.236426 0.197309
C33   C     C_R   0.175237 0.382864 0.764394 0.197986
C34   C     C_R   0.616889 0.824619 0.763555 0.197304
C35   C     C_R   0.801123 0.698877 0.250000 -0.025970
C36   C     C_R   0.382866 0.175238 0.235612 0.197984
C37   C     C_R   0.157185 0.635242 0.791234 0.200414
C38   C     C_R   0.824640 0.383100 0.236360 0.197003
C39   C     C_R   0.383107 0.175377 0.763572 0.197309
C40   C     C_R   0.617134 0.824762 0.235612 0.197985
C41   C     C_R   0.842800 0.364772 0.791227 0.200417
C42   C     C_R   0.175360 0.616900 0.236360 0.197004
C43   C     C_R   0.128335 0.628334 0.750000 0.113391
C44   C     C_R   0.871721 0.371721 0.250000 0.109606
C45   C     C_R   0.628283 0.871717 0.750000 0.109604
C46   C     C_R   0.198927 0.301073 0.750000 -0.026566
C47   C     C_R   0.371683 0.128317 0.250000 0.111159
C48   C     C_R   0.871665 0.371665 0.750000 0.113371
C49   C     C_R   0.128279 0.628279 0.250000 0.109606
C50   C     C_R   0.371717 0.128283 0.750000 0.109594
C51   C     C_R   0.628317 0.871683 0.250000 0.111160
C52   C     C_R   0.128283 0.371717 0.250000 0.109601
C53   C     C_R   0.871682 0.628318 0.750000 0.111155
C54   C     C_R   0.628335 0.128335 0.250000 0.113362
C55   C     C_R   0.371720 0.871720 0.750000 0.109607
C56   C     C_R   0.871717 0.628283 0.250000 0.109594
C57   C     C_R   0.301051 0.801051 0.250000 -0.027684
C58   C     C_R   0.128317 0.371683 0.750000 0.111155
C59   C     C_R   0.371665 0.871665 0.250000 0.113372
C60   C     C_R   0.628279 0.128279 0.750000 0.109608
C61   C     C_R   0.698866 0.198865 0.750000 -0.026884
C62   C     C_1   0.234951 0.734950 0.750000 -0.006276
C63   C     C_1   0.765133 0.265133 0.250000 -0.006076
C64   C     C_1   0.734881 0.765118 0.750000 -0.005511
C65   C     C_R   0.801135 0.301135 0.250000 -0.026884
C66   C     C_1   0.265067 0.234933 0.250000 -0.005805
C67   C     C_1   0.765049 0.265049 0.750000 -0.006276
C68   C     C_1   0.234867 0.734867 0.250000 -0.006076
C69   C     C_1   0.265118 0.234882 0.750000 -0.005511
C70   C     C_1   0.734933 0.765067 0.250000 -0.005805
C71   C     C_1   0.234882 0.265118 0.250000 -0.005511
C72   C     C_1   0.765066 0.734934 0.750000 -0.005805
C73   C     C_1   0.734951 0.234951 0.250000 -0.006276
C74   C     C_1   0.265132 0.765132 0.750000 -0.006076
C75   C     C_1   0.765118 0.734882 0.250000 -0.005511
C76   C     C_R   0.698876 0.801124 0.750000 -0.025969
C77   C     C_1   0.234933 0.265067 0.750000 -0.005805
C78   C     C_1   0.265049 0.765049 0.250000 -0.006276
C79   C     C_1   0.734867 0.234867 0.750000 -0.006076
C80   C     C_1   0.500000 1.000000 0.930958 0.026374
C81   C     C_1   0.500000 1.000000 0.069043 0.030813
C82   C     C_1   1.000000 0.500000 0.930956 0.030815
C83   C     C_1   0.000000 0.500000 0.069042 0.026374
C84   C     C_1   0.000000 0.500000 0.430958 0.026374
C85   C     C_1   0.000000 0.500000 0.569044 0.030815
C86   C     C_1   0.500000 0.000000 0.430956 0.030813
C87   C     C_R   0.301073 0.198927 0.250000 -0.026566
C88   C     C_1   0.500000 1.000000 0.569042 0.026374
C89   C     C_1   0.500000 1.000000 0.974494 -0.020368
C90   C     C_1   0.500000 0.000000 0.025508 -0.018597
C91   C     C_1   1.000000 0.500000 0.974492 -0.018596
C92   C     C_1   0.000000 0.500000 0.025506 -0.020367
C93   C     C_1   0.000000 0.500000 0.474494 -0.020367
C94   C     C_1   1.000000 0.500000 0.525508 -0.018596
C95   C     C_1   0.500000 0.000000 0.474492 -0.018597
C96   C     C_1   0.500000 1.000000 0.525506 -0.020368
C97   C     C_R   0.500000 1.000000 0.620896 0.499800
C98   C     C_R   0.801051 0.301051 0.750000 -0.027684
C99   C     C_R   0.500000 1.000000 0.379104 0.504850
C100  C     C_R   0.000000 0.500000 0.620896 0.504855
C101  C     C_R   0.000000 0.500000 0.379104 0.499800
C102  C     C_R   1.000000 0.500000 0.120896 0.499800
C103  C     C_R   1.000000 0.500000 0.879104 0.504855
C104  C     C_R   0.500000 0.000000 0.120896 0.504850
C105  C     C_R   0.500000 1.000000 0.879104 0.499800
C106  C     C_R   0.591078 0.908922 0.750000 0.572668
C107  C     C_R   0.408909 0.091091 0.250000 0.567388
C108  C     C_R   0.908902 0.408902 0.750000 0.572200
C109  C     C_R   0.198866 0.698865 0.250000 -0.026884
C110  C     C_R   0.091078 0.591078 0.250000 0.572606
C111  C     C_R   0.408921 0.091079 0.750000 0.572646
C112  C     C_R   0.591090 0.908909 0.250000 0.567389
C113  C     C_R   0.091097 0.591097 0.750000 0.572228
C114  C     C_R   0.908922 0.408922 0.250000 0.572606
C115  C     C_R   0.591098 0.091098 0.250000 0.572192
C116  C     C_R   0.408922 0.908922 0.750000 0.572608
C117  C     C_R   0.908921 0.591078 0.250000 0.572645
C118  C     C_R   0.091091 0.408909 0.750000 0.567381
C119  C     C_R   0.408902 0.908902 0.250000 0.572201
C120  C     C_R   0.301124 0.198876 0.750000 -0.025970
C121  C     C_R   0.591078 0.091078 0.750000 0.572609
C122  C     C_R   0.091078 0.408921 0.250000 0.572659
C123  C     C_R   0.908909 0.591091 0.750000 0.567379
C124  C     C_R   0.170643 0.692392 0.709313 -0.122017
C125  C     C_R   0.847419 0.289714 0.263530 -0.123462
C126  C     C_R   0.710312 0.847427 0.736556 -0.122826
C127  C     C_R   0.289833 0.152821 0.264264 -0.121921
C128  C     C_R   0.829371 0.307593 0.709320 -0.122018
C129  C     C_R   0.152581 0.710286 0.263530 -0.123462
C130  C     C_R   0.289692 0.152577 0.736539 -0.122826
C131  C     C_R   0.698927 0.801073 0.250000 -0.026566
C132  C     C_R   0.710167 0.847179 0.264264 -0.121921
C133  C     C_R   0.152575 0.289690 0.263450 -0.122826
C134  C     C_R   0.847176 0.710165 0.735727 -0.121921
C135  C     C_R   0.692413 0.170624 0.290677 -0.122019
C136  C     C_R   0.289714 0.847419 0.736470 -0.123462
C137  C     C_R   0.847422 0.710308 0.263462 -0.122826
C138  C     C_R   0.152823 0.289834 0.735730 -0.121921
C139  C     C_R   0.307592 0.829372 0.290679 -0.122018
C140  C     C_R   0.710287 0.152580 0.736472 -0.123462
C141  C     C_R   0.670624 0.192413 0.209323 -0.122018
C142  C     C_R   0.198876 0.301124 0.250000 -0.025969
C143  C     C_R   0.347419 0.789713 0.763529 -0.123462
C144  C     C_R   0.210310 0.347425 0.236549 -0.122826
C145  C     C_R   0.789834 0.652824 0.764272 -0.121922
C146  C     C_R   0.329372 0.807591 0.209321 -0.122018
C147  C     C_R   0.652581 0.210286 0.763528 -0.123462
C148  C     C_R   0.789692 0.652577 0.236538 -0.122826
C149  C     C_R   0.210166 0.347177 0.764270 -0.121921
C150  C     C_R   0.652572 0.789688 0.763444 -0.122826
C151  C     C_R   0.347179 0.210167 0.235736 -0.121921
C152  C     C_R   0.192392 0.670643 0.790687 -0.122017
H1    H     H_    0.176284 0.714590 0.677893 0.115508
H2    H     H_    0.855393 0.746220 0.724881 0.114017
H3    H     H_    0.714627 0.176250 0.322088 0.115505
H4    H     H_    0.253526 0.855778 0.726201 0.114964
H5    H     H_    0.855789 0.746506 0.273678 0.113626
H6    H     H_    0.144606 0.253779 0.724885 0.114017
H7    H     H_    0.285381 0.823743 0.322091 0.115506
H8    H     H_    0.746474 0.144221 0.726203 0.114963
H9    H     H_    0.676250 0.214627 0.177912 0.115505
H10   H     H_    0.355778 0.753526 0.773799 0.114964
H11   H     H_    0.246511 0.355794 0.226342 0.113627
H12   H     H_    0.855778 0.253526 0.273799 0.114962
H13   H     H_    0.753779 0.644607 0.775119 0.114017
H14   H     H_    0.323743 0.785381 0.177909 0.115506
H15   H     H_    0.644221 0.246474 0.773796 0.114963
H16   H     H_    0.753493 0.644211 0.226322 0.113626
H17   H     H_    0.246221 0.355394 0.775115 0.114017
H18   H     H_    0.644202 0.753487 0.773645 0.113627
H19   H     H_    0.355397 0.246224 0.224897 0.114017
H20   H     H_    0.214590 0.676284 0.822106 0.115508
H21   H     H_    0.753527 0.355778 0.226201 0.114962
H22   H     H_    0.355790 0.246507 0.773676 0.113626
H23   H     H_    0.746513 0.855798 0.726355 0.113627
H24   H     H_    0.644603 0.753776 0.224897 0.114017
H25   H     H_    0.785383 0.323741 0.822093 0.115506
H26   H     H_    0.246473 0.644222 0.226200 0.114963
H27   H     H_    0.117273 0.672825 0.642767 0.325950
H28   H     H_    0.931083 0.279100 0.284295 0.326492
H29   H     H_    0.720941 0.931120 0.715924 0.326467
H30   H     H_    0.279471 0.069465 0.286297 0.326094
H31   H     H_    0.882765 0.327134 0.642787 0.325947
H32   H     H_    0.068917 0.720900 0.284296 0.326493
H33   H     H_    0.279067 0.068890 0.715878 0.326465
H34   H     H_    0.253776 0.144603 0.275103 0.114017
H35   H     H_    0.720529 0.930535 0.286297 0.326095
H36   H     H_    0.068884 0.279062 0.284095 0.326466
H37   H     H_    0.930529 0.720524 0.713679 0.326093
H38   H     H_    0.672881 0.117221 0.357206 0.325947
H39   H     H_    0.279100 0.931083 0.715704 0.326493
H40   H     H_    0.931108 0.720932 0.284125 0.326465
H41   H     H_    0.069469 0.279474 0.713685 0.326094
H42   H     H_    0.327130 0.882768 0.357211 0.325948
H43   H     H_    0.720901 0.068916 0.715709 0.326492
H44   H     H_    0.617221 0.172881 0.142794 0.325947
H45   H     H_    0.823741 0.285383 0.677907 0.115506
H46   H     H_    0.431083 0.779099 0.784295 0.326493
H47   H     H_    0.220938 0.431116 0.215905 0.326466
H48   H     H_    0.779476 0.569471 0.786321 0.326093
H49   H     H_    0.382768 0.827130 0.142789 0.325948
H50   H     H_    0.568916 0.220901 0.784292 0.326493
H51   H     H_    0.779068 0.568891 0.215875 0.326465
H52   H     H_    0.220525 0.430531 0.786315 0.326093
H53   H     H_    0.568880 0.779059 0.784076 0.326467
H54   H     H_    0.430535 0.220529 0.213702 0.326095
H55   H     H_    0.172825 0.617273 0.857233 0.325950
H56   H     H_    0.144222 0.746473 0.273800 0.114963
H57   H     H_    0.779100 0.431083 0.215704 0.326493
H58   H     H_    0.431109 0.220933 0.784122 0.326464
H59   H     H_    0.569465 0.779471 0.213703 0.326094
H60   H     H_    0.827133 0.382765 0.857213 0.325948
H61   H     H_    0.220900 0.568917 0.215704 0.326492
H62   H     H_    0.253493 0.144210 0.726324 0.113626
H63   H     H_    0.746224 0.855397 0.275103 0.114017
H64   H     H_    0.144205 0.253489 0.273658 0.113627
O1    O     O_3   0.500000 0.000000 0.750000 -0.487925
O2    O     O_R   0.460660 1.000000 0.356100 -0.525672
O3    O     O_R   1.000000 0.460660 0.643900 -0.525671
O4    O     O_R   0.000000 0.539340 0.356100 -0.533985
O5    O     O_R   0.960660 0.500000 0.143900 -0.533985
O6    O     O_R   0.039340 0.500000 0.856100 -0.525668
O7    O     O_R   0.500000 0.039340 0.143900 -0.525673
O8    O     O_R   0.500000 0.960660 0.856100 -0.533990
O9    O     O_R   0.039340 0.500000 0.143900 -0.533988
O10   O     O_R   0.960660 0.500000 0.856100 -0.525670
O11   O     O_R   0.500000 0.960660 0.143900 -0.525672
O12   O     O_3   0.500000 1.000000 0.250000 -0.489931
O13   O     O_R   0.500000 0.039340 0.856100 -0.533986
O14   O     O_R   0.594350 0.944820 0.722300 -0.487404
O15   O     O_R   0.405650 0.055180 0.277700 -0.493549
O16   O     O_R   0.944820 0.405650 0.722300 -0.485193
O17   O     O_R   0.055180 0.594350 0.277700 -0.487389
O18   O     O_R   0.405650 0.055180 0.722300 -0.487393
O19   O     O_R   0.594350 0.944820 0.277700 -0.493547
O20   O     O_R   0.055180 0.594350 0.722300 -0.485205
O21   O     O_R   0.944820 0.405650 0.277700 -0.487390
O22   O     O_R   0.594350 0.055180 0.277700 -0.485187
O23   O     O_3   0.000000 0.500000 0.750000 -0.489930
O24   O     O_R   0.405650 0.944820 0.722300 -0.487389
O25   O     O_R   0.944820 0.594350 0.277700 -0.487393
O26   O     O_R   0.055180 0.405650 0.722300 -0.493544
O27   O     O_R   0.405650 0.944820 0.277700 -0.485191
O28   O     O_R   0.594350 0.055180 0.722300 -0.487390
O29   O     O_R   0.055180 0.405650 0.277700 -0.487399
O30   O     O_R   0.944820 0.594350 0.722300 -0.493547
O31   O     O_R   0.094350 0.444820 0.222300 -0.487400
O32   O     O_R   0.905650 0.555180 0.777700 -0.493542
O33   O     O_R   0.444820 0.905650 0.222300 -0.485191
O34   O     O_3   0.000000 0.500000 0.250000 -0.487926
O35   O     O_R   0.555180 0.094350 0.777700 -0.487390
O36   O     O_R   0.905650 0.555180 0.222300 -0.487393
O37   O     O_R   0.094350 0.444820 0.777700 -0.493549
O38   O     O_R   0.555180 0.094350 0.222300 -0.485187
O39   O     O_R   0.444820 0.905650 0.777700 -0.487389
O40   O     O_R   0.094350 0.555180 0.777700 -0.485204
O41   O     O_R   0.905650 0.444820 0.222300 -0.487390
O42   O     O_R   0.444820 0.094350 0.777700 -0.487394
O43   O     O_R   0.555180 0.905650 0.222300 -0.493549
O44   O     O_R   0.905650 0.444820 0.777700 -0.485193
O45   O     O_R   0.460660 0.000000 0.643900 -0.533985
O46   O     O_R   0.094350 0.555180 0.222300 -0.487389
O47   O     O_R   0.555180 0.905650 0.777700 -0.487404
O48   O     O_R   0.444820 0.094350 0.222300 -0.493547
O49   O     O_3   0.107807 0.649863 0.668117 -0.663914
O50   O     O_3   0.929283 0.313291 0.275944 -0.652240
O51   O     O_3   0.686739 0.929310 0.724224 -0.652221
O52   O     O_3   0.313550 0.071128 0.277459 -0.664403
O53   O     O_3   0.892221 0.350106 0.668132 -0.663893
O54   O     O_3   0.070718 0.686709 0.275945 -0.652243
O55   O     O_3   0.313267 0.070698 0.724189 -0.652212
O56   O     O_R   0.539340 1.000000 0.356100 -0.525672
O57   O     O_3   0.686450 0.928872 0.277458 -0.664401
O58   O     O_3   0.070693 0.313263 0.275790 -0.652219
O59   O     O_3   0.928868 0.686447 0.722524 -0.664401
O60   O     O_3   0.649905 0.107769 0.331863 -0.663885
O61   O     O_3   0.313291 0.929282 0.724056 -0.652243
O62   O     O_3   0.929301 0.686732 0.275813 -0.652212
O63   O     O_3   0.071131 0.313552 0.722528 -0.664398
O64   O     O_3   0.350103 0.892223 0.331867 -0.663892
O65   O     O_3   0.686710 0.070717 0.724059 -0.652239
O66   O     O_3   0.607769 0.149905 0.168137 -0.663885
O67   O     O_R   0.000000 0.539340 0.643900 -0.525667
O68   O     O_3   0.429282 0.813291 0.775944 -0.652240
O69   O     O_3   0.186736 0.429307 0.224210 -0.652219
O70   O     O_3   0.813553 0.571132 0.777476 -0.664396
O71   O     O_3   0.392223 0.850103 0.168133 -0.663892
O72   O     O_3   0.570717 0.186710 0.775941 -0.652243
O73   O     O_3   0.813268 0.570699 0.224187 -0.652212
O74   O     O_3   0.186448 0.428869 0.777472 -0.664403
O75   O     O_3   0.570690 0.813261 0.775776 -0.652221
O76   O     O_3   0.428872 0.186450 0.222541 -0.664401
O77   O     O_3   0.149863 0.607807 0.831883 -0.663914
O78   O     O_R   0.000000 0.460660 0.356100 -0.533988
O79   O     O_3   0.813291 0.429282 0.224056 -0.652243
O80   O     O_3   0.429302 0.186733 0.775811 -0.652212
O81   O     O_3   0.571128 0.813550 0.222542 -0.664403
O82   O     O_3   0.850106 0.392221 0.831868 -0.663893
O83   O     O_3   0.186709 0.570718 0.224055 -0.652240
O84   O     O_R   0.539340 0.000000 0.643900 -0.533990
Zn1   Zn    Zn3+2 0.500000 0.943960 0.789960 1.006470
Zn2   Zn    Zn3+2 0.000000 0.556040 0.710040 1.007988
Zn3   Zn    Zn3+2 0.443960 0.000000 0.289960 1.007987
Zn4   Zn    Zn3+2 0.556040 1.000000 0.710040 1.006470
Zn5   Zn    Zn3+2 0.000000 0.556040 0.289960 1.006471
Zn6   Zn    Zn3+2 1.000000 0.443960 0.710040 1.007988
Zn7   Zn    Zn3+2 0.556040 0.000000 0.289960 1.007987
Zn8   Zn    Zn3+2 0.443960 1.000000 0.710040 1.006472
Zn9   Zn    Zn3+2 0.500000 0.056040 0.210040 1.007987
Zn10  Zn    Zn3+2 0.943960 0.500000 0.789960 1.007989
Zn11  Zn    Zn3+2 0.056040 0.500000 0.210040 1.006470
Zn12  Zn    Zn3+2 0.500000 0.056040 0.789960 1.006472
Zn13  Zn    Zn3+2 0.500000 0.943960 0.210040 1.007987
Zn14  Zn    Zn3+2 0.056040 0.500000 0.789960 1.007988
Zn15  Zn    Zn3+2 0.943960 0.500000 0.210040 1.006471
Zn16  Zn    Zn3+2 1.000000 0.443960 0.289960 1.006470

loop_
_geom_bond_atom_site_label_1
_geom_bond_atom_site_label_2
_ccdc_geom_bond_type
C121  O28   A    
O25   Zn5   S    
C63   C65   S    
C29   O70   S    
C83   C102  S    
C107  O15   A    
H52   O74   S    
C31   O72   S    
C21   C137  A    
O31   Zn11  S    
C2    C134  A    
O47   Zn1   S    
H44   O66   S    
O41   Zn15  S    
C112  O43   A    
C27   C55   A    
C121  O35   A    
C42   O83   S    
C99   O56   A    
O11   Zn13  S    
C36   C47   A    
C7    C42   A    
C128  H45   S    
O23   Zn14  S    
O19   Zn7   S    
C52   C122  S    
O6    Zn14  S    
C100  O3    A    
C27   C143  A    
O45   Zn8   S    
C28   C144  A    
C25   C60   A    
C104  O7    A    
C88   C97   S    
C97   O45   A    
C31   C147  A    
C44   C114  S    
C3    C65   A    
H59   O81   S    
C17   C52   A    
O9    Zn11  S    
O21   Zn16  S    
H47   O69   S    
O8    Zn1   S    
C25   C140  A    
C67   C79   T    
C12   O53   S    
C102  O9    A    
C82   C91   T    
C106  O14   A    
O37   Zn14  S    
C123  O30   A    
O23   Zn2   S    
C41   O82   S    
O34   Zn16  S    
H57   O79   S    
C86   C99   S    
C147  H15   S    
O40   Zn14  S    
C81   C90   T    
O5    Zn15  S    
C13   C73   S    
C6    H25   S    
C17   C133  A    
C30   O71   S    
C5    H24   S    
C142  C144  A    
C25   O65   S    
C105  O8    A    
C27   O68   S    
O27   Zn3   S    
O44   Zn10  S    
C57   C78   S    
O17   Zn5   S    
C8    O49   S    
C22   C58   A    
C46   C77   S    
H28   O50   S    
C12   C128  A    
C112  O19   A    
C1    C124  A    
C33   C149  A    
C35   C137  A    
C150  H18   S    
C15   C130  A    
C130  H62   S    
C84   C93   T    
C60   C121  S    
C86   C95   T    
O1    Zn4   S    
O12   Zn7   S    
H41   O63   S    
C113  O20   A    
H42   O64   S    
C56   C117  S    
C69   C77   T    
C16   C51   A    
C1    C62   S    
O15   Zn3   S    
C33   O74   S    
C134  H2    S    
C23   C59   A    
C133  C142  A    
C149  H17   S    
C152  H20   S    
C55   C116  S    
C24   C143  A    
C111  O18   A    
C151  H19   S    
C1    C152  A    
C67   C98   S    
O39   Zn1   S    
O26   Zn6   S    
C11   O52   S    
H49   O71   S    
C111  O42   A    
C110  O17   A    
H50   O72   S    
O24   Zn8   S    
C32   O73   S    
C24   C136  A    
H37   O59   S    
C113  O40   A    
H38   O60   S    
C124  H1    S    
C13   C135  A    
C97   O84   A    
O12   Zn3   S    
C26   C54   A    
O18   Zn8   S    
C117  O36   A    
C91   C92   S    
C129  H56   S    
O28   Zn4   S    
C9    C125  A    
H53   O75   S    
C11   C127  A    
H54   O76   S    
C118  O37   A    
C138  H6    S    
C19   O60   S    
C99   O2    A    
C76   C150  A    
C30   C59   A    
C10   C45   A    
H58   O80   S    
H55   O77   S    
O12   Zn9   S    
C122  O31   A    
O13   Zn12  S    
H46   O68   S    
C19   C54   A    
O34   Zn11  S    
C114  O21   A    
C109  C129  A    
C125  H12   S    
C37   C152  A    
O14   Zn4   S    
O3    Zn6   S    
C34   O75   S    
C108  O16   A    
O20   Zn2   S    
O23   Zn6   S    
C61   C140  A    
C40   C51   A    
C137  H5    S    
H32   O54   S    
C140  H8    S    
C61   C79   S    
C50   C111  S    
C18   C134  A    
C35   C148  A    
C114  O41   A    
C26   O66   S    
C139  H7    S    
C46   C149  A    
C70   C75   T    
C10   C126  A    
O2    Zn3   S    
C116  O39   A    
C126  H23   S    
C118  O26   A    
C49   C110  S    
O10   Zn10  S    
C88   C96   T    
O35   Zn12  S    
H31   O53   S    
O34   Zn5   S    
C76   C126  A    
C11   C47   A    
C8    C43   A    
O1    Zn1   S    
C12   C48   A    
C34   C150  A    
C145  H13   S    
C2    C145  A    
C6    C98   A    
C40   O81   S    
H60   O82   S    
C119  O33   A    
C29   C145  A    
C123  O32   A    
C19   C135  A    
C57   C139  A    
O1    Zn8   S    
C80   C89   T    
C18   C53   A    
C107  O48   A    
C13   C141  A    
C26   C141  A    
C37   O77   S    
C98   C128  A    
C4    H22   S    
C57   C146  A    
C2    C72   S    
C68   C78   T    
C8    C124  A    
C63   C73   T    
C7    H26   S    
C105  O13   A    
C31   C60   A    
C37   C43   A    
C38   C44   A    
C66   C71   T    
C51   C112  S    
C54   C115  S    
C132  H63   S    
C20   C136  A    
C122  O29   A    
O78   Zn16  S    
O43   Zn13  S    
O67   Zn2   S    
C144  H11   S    
C148  H16   S    
C131  C132  A    
C104  O11   A    
C59   C119  S    
C133  H64   S    
O29   Zn16  S    
C21   C56   A    
C14   O54   S    
C32   C148  A    
C9    O50   S    
C22   C138  A    
C69   C120  S    
H51   O73   S    
O12   Zn13  S    
C61   C147  A    
C21   O62   S    
C101  O4    A    
O34   Zn15  S    
C48   C108  S    
C115  O38   A    
H36   O58   S    
O22   Zn7   S    
C100  O67   A    
C106  O47   A    
C68   C109  S    
C16   C132  A    
O4    Zn5   S    
H33   O55   S    
C5    C131  A    
O30   Zn2   S    
C5    C40   A    
C62   C74   T    
O38   Zn9   S    
C89   C90   S    
C32   C56   A    
O23   Zn10  S    
O84   Zn4   S    
C102  O5    A    
H40   O62   S    
C14   C129  A    
C141  H9    S    
C93   C94   S    
C95   C96   S    
O56   Zn7   S    
O46   Zn11  S    
C87   C127  A    
C17   O58   S    
C135  H3    S    
C103  O10   A    
C83   C92   T    
C35   C75   S    
C120  C130  A    
C23   C139  A    
C103  O6    A    
C101  O78   A    
C136  H4    S    
C14   C49   A    
C58   C118  S    
C127  H34   S    
H48   O70   S    
C15   C50   A    
H39   O61   S    
H29   O51   S    
C3    H21   S    
O16   Zn6   S    
C3    C38   A    
C6    C41   A    
O36   Zn15  S    
C82   C103  S    
C143  H10   S    
C46   C138  A    
C146  H14   S    
C87   C151  A    
C84   C101  S    
C20   C55   A    
C15   O55   S    
C30   C146  A    
H30   O52   S    
C10   O51   S    
O1    Zn12  S    
C20   O61   S    
C53   C123  S    
C66   C87   S    
C22   O63   S    
O32   Zn10  S    
C80   C105  S    
C7    C109  A    
C65   C125  A    
C85   C94   T    
C4    C39   A    
C64   C76   S    
C34   C45   A    
H61   O83   S    
C71   C142  S    
H27   O49   S    
C28   O69   S    
C47   C107  S    
C38   O79   S    
C108  O44   A    
H35   O57   S    
C45   C106  S    
C18   O59   S    
C36   O76   S    
C9    C44   A    
O7    Zn9   S    
C16   O57   S    
O48   Zn9   S    
C115  O22   A    
C23   O64   S    
C36   C151  A    
C116  O24   A    
C33   C58   A    
H43   O65   S    
C85   C100  S    
O42   Zn12  S    
C43   C113  S    
C28   C52   A    
C24   C74   S    
C29   C53   A    
C70   C131  S    
C41   C48   A    
C64   C72   T    
C110  O46   A    
C42   C49   A    
O33   Zn13  S    
C39   C50   A    
C39   O80   S    
C4    C120  A    
C119  O27   A    
C81   C104  S    
C117  O25   A    
