data_mof_unit_47830.cif
_audit_creation_date              2013-03-05T15:40:19-0500
_audit_creation_method            fapswitch 2.2
_symmetry_space_group_name_H-M    P1
_symmetry_Int_Tables_number       1
_space_group_crystal_system       triclinic
_cell_length_a                    7.812126
_cell_length_b                    8.621983
_cell_length_c                    12.876827
_cell_angle_alpha                 89.463236
_cell_angle_beta                  88.006466
_cell_angle_gamma                 93.094246
_cell_volume                      865.488159121

loop_
_atom_site_label
_atom_site_type_symbol
_atom_site_description
_atom_site_fract_x
_atom_site_fract_y
_atom_site_fract_z
_atom_type_partial_charge
O1    O     O_R   0.609680 0.261530 0.506880 -0.594127
O2    O     O_R   0.390320 0.738470 0.493120 -0.594127
O3    O     O_R   0.323330 0.288220 0.488910 -0.553180
O4    O     O_R   0.676670 0.711780 0.511090 -0.553180
C1    C     C_R   0.455619 0.205899 0.497363 0.894491
C2    C     C_R   0.544380 0.794101 0.502637 0.894491
O5    O     O_R   0.619510 0.488830 0.661140 -0.554599
O6    O     O_R   0.380490 0.511170 0.338860 -0.554599
O7    O     O_R   0.333160 0.515520 0.643180 -0.606532
O8    O     O_R   0.666840 0.484480 0.356820 -0.606532
C3    C     C_R   0.466980 0.507371 0.699287 0.908062
C4    C     C_R   0.533020 0.492629 0.300713 0.908062
Zn1   Zn    Zn3+2 0.691200 0.482180 0.511990 1.192972
Zn2   Zn    Zn3+2 0.308800 0.517820 0.488010 1.192972
N1    N     N_2   0.054030 0.541640 0.471970 0.146884
N2    N     N_2   0.945970 0.458360 0.528030 0.146884
C5    C     C_R   0.553735 0.490016 0.189753 -0.150417
C6    C     C_R   0.446265 0.509984 0.810246 -0.150417
C7    C     C_R   0.287338 0.414144 0.962181 -0.111427
C8    C     C_R   0.712661 0.585856 0.037819 -0.111427
C9    C     C_R   0.297765 0.438995 0.856400 -0.157609
C10   C     C_R   0.702235 0.561005 0.143600 -0.157609
C11   C     C_R   0.583723 0.564627 0.869904 0.273101
C12   C     C_R   0.416277 0.435373 0.130096 0.273100
C13   C     C_R   0.574850 0.538058 0.976727 0.009940
C14   C     C_R   0.425150 0.461942 0.023273 0.009940
H1    H     H_    0.807064 0.604546 0.189866 0.236086
H2    H     H_    0.192936 0.395454 0.810133 0.236086
H3    H     H_    0.172320 0.354189 0.994725 0.211917
H4    H     H_    0.827680 0.645812 0.005275 0.211918
C15   C     C_2   0.439594 0.044699 0.480554 0.000430
C16   C     C_2   0.560406 0.955301 0.519446 0.000430
N3    N     N_R   0.268617 0.353575 0.178192 0.204874
O9    O     O_R   0.285561 0.222544 0.226465 -0.312561
O10   O     O_R   0.121301 0.417294 0.182653 -0.360409
N4    N     N_R   0.731383 0.646425 0.821808 0.204875
O11   O     O_R   0.714438 0.777455 0.773533 -0.312561
O12   O     O_R   0.878700 0.582707 0.817347 -0.360409
Cl1   Cl    Cl    0.979070 0.671450 0.384214 -0.365758
Cl2   Cl    Cl    0.020930 0.328550 0.615786 -0.365758
N5    N     N_R   0.317894 0.990225 0.405341 0.247698
O13   O     O_R   0.158477 0.026208 0.414459 -0.229677
O14   O     O_R   0.370760 0.921867 0.321317 -0.330161
N6    N     N_R   0.682106 0.009775 0.594659 0.247698
O15   O     O_R   0.841523 0.973793 0.585540 -0.229677
O16   O     O_R   0.629241 0.078133 0.678683 -0.330161

loop_
_geom_bond_atom_site_label_1
_geom_bond_atom_site_label_2
_geom_bond_distance
_ccdc_geom_bond_type
C4    C5    1.432864 S    
C2    C16   1.408184 S    
O7    Zn2   2.013733 S    
C3    C6    1.432864 S    
C5    C10   1.393640 A    
C6    C9    1.393639 A    
N5    O14   1.302203 A    
N5    O13   1.301243 A    
C12   N3    1.437320 S    
O6    C4    1.291524 A    
N4    O12   1.301473 A    
N3    O9    1.299605 A    
C16   N6    1.444603 S    
C8    H4    1.081574 S    
O5    C3    1.291524 A    
O7    C3    1.295890 A    
N1    Cl1   1.722102 S    
O2    C2    1.281652 A    
O3    Zn2   1.988916 S    
O8    C4    1.295889 A    
N2    Cl2   1.722100 S    
C6    C11   1.405272 A    
O1    C1    1.281652 A    
N4    O11   1.299606 A    
C7    C9    1.375809 A    
C9    H2    1.082345 S    
C12   C14   1.391089 A    
C10   H1    1.082346 S    
C11   C13   1.391089 A    
O2    Zn2   1.975765 S    
C1    C15   1.408184 S    
C5    C12   1.405271 A    
O1    Zn1   1.975765 S    
C8    C13   1.401733 A    
N1    N2    1.277409 D    
C7    H3    1.081574 S    
O5    Zn1   1.984002 S    
N6    O15   1.301244 A    
O4    C2    1.291987 A    
C11   N4    1.437318 S    
Zn1   N2    2.029299 S    
O4    Zn1   1.988914 S    
C7    C14   1.401733 A    
Zn2   N1    2.029297 S    
O6    Zn2   1.984002 S    
C15   N5    1.444603 S    
N3    O10   1.301474 A    
C13   C14   1.420782 A    
N6    O16   1.302203 A    
C15   C16   1.356411 D    
C8    C10   1.375809 A    
O3    C1    1.291987 A    
O8    Zn1   2.013732 S    
