data_mof_unit_8831.cif
_audit_creation_date              2012-12-11T17:19:06-0500
_audit_creation_method            fapswitch 2.2
_symmetry_space_group_name_H-M    P1
_symmetry_Int_Tables_number       1
_space_group_crystal_system       triclinic
_cell_length_a                    14.617554
_cell_length_b                    7.264837
_cell_length_c                    13.517921
_cell_angle_alpha                 89.999295
_cell_angle_beta                  99.989654
_cell_angle_gamma                 90.000696
_cell_volume                      1413.76024426

loop_
_atom_site_label
_atom_site_type_symbol
_atom_type_description
_atom_site_fract_x
_atom_site_fract_y
_atom_site_fract_z
_atom_type_partial_charge
O1    O     O_R   0.648180 0.355050 0.151550 -0.534553
O2    O     O_R   0.351820 0.644950 0.848450 -0.534541
O3    O     O_R   0.851820 0.855050 0.348450 -0.534553
O4    O     O_R   0.148180 0.144950 0.651550 -0.534543
O5    O     O_R   0.835240 0.681980 0.154280 -0.540481
O6    O     O_R   0.164760 0.318020 0.845720 -0.540474
O7    O     O_R   0.664760 0.181980 0.345720 -0.540475
O8    O     O_R   0.335240 0.818020 0.654280 -0.540474
H1    H     H_    0.702558 0.062901 0.820454 0.138981
H2    H     H_    0.297262 0.938238 0.179523 0.138960
H3    H     H_    0.797383 0.562617 0.679544 0.138971
H4    H     H_    0.202733 0.438401 0.320462 0.138988
C1    C     C_R   0.866440 0.516860 0.136418 0.674105
C2    C     C_R   0.133560 0.483140 0.863579 0.674132
C3    C     C_R   0.633560 0.016857 0.363582 0.674104
C4    C     C_R   0.366436 0.983143 0.636417 0.674129
O9    O     O_R   0.647870 0.684600 0.139630 -0.540090
O10   O     O_R   0.352130 0.315400 0.860370 -0.540091
O11   O     O_R   0.852130 0.184600 0.360370 -0.540087
O12   O     O_R   0.147870 0.815400 0.639630 -0.540088
O13   O     O_R   0.663110 0.857440 0.333700 -0.534245
O14   O     O_R   0.336890 0.142560 0.666300 -0.534249
O15   O     O_R   0.836890 0.357440 0.166300 -0.534243
O16   O     O_R   0.163110 0.642560 0.833700 -0.534245
C5    C     C_R   0.615034 0.515979 0.113261 0.722211
C6    C     C_R   0.384967 0.484021 0.886738 0.722222
C7    C     C_R   0.884967 0.015978 0.386738 0.722213
C8    C     C_R   0.115034 0.984020 0.613261 0.722219
O17   O     O_3   0.755220 0.522230 0.313690 -0.373795
O18   O     O_3   0.244780 0.477770 0.686310 -0.373809
O19   O     O_3   0.744780 0.022230 0.186310 -0.373797
O20   O     O_3   0.255220 0.977770 0.813690 -0.373808
V1    V     V_3+5 0.749030 0.796100 0.238190 1.388237
V2    V     V_3+5 0.250970 0.203900 0.761810 1.388242
V3    V     V_3+5 0.750970 0.296100 0.261810 1.388237
V4    V     V_3+5 0.249030 0.703900 0.738190 1.388248
C9    C     C_1   0.966031 0.005325 0.466722 -0.194612
C10   C     C_1   0.033971 0.994668 0.533275 -0.194609
C11   C     C_1   0.533971 0.505328 0.033275 -0.194622
C12   C     C_1   0.466031 0.494671 0.966723 -0.194623
H5    H     H_    0.199576 0.901416 0.302375 0.134399
H6    H     H_    0.800296 0.099461 0.697616 0.134436
H7    H     H_    0.300424 0.401580 0.197612 0.134399
H8    H     H_    0.699667 0.599353 0.802382 0.134426
C13   C     C_R   0.574466 0.010262 0.713977 0.103661
C14   C     C_R   0.425485 0.990073 0.286012 0.103661
C15   C     C_R   0.925520 0.510172 0.786023 0.103664
C16   C     C_R   0.074514 0.490105 0.213984 0.103643
C17   C     C_R   0.669701 0.051017 0.742801 -0.081685
C18   C     C_R   0.330181 0.949724 0.257180 -0.081631
C19   C     C_R   0.830262 0.550867 0.757196 -0.081705
C20   C     C_R   0.169815 0.449837 0.242810 -0.081648
C21   C     C_R   0.726975 0.073014 0.672896 -0.187865
C22   C     C_R   0.272924 0.927613 0.327090 -0.187862
C23   C     C_R   0.772995 0.572949 0.827101 -0.187867
C24   C     C_R   0.227074 0.427733 0.172900 -0.187876
C25   C     C_R   0.691792 0.056335 0.571920 -0.146179
C26   C     C_R   0.308168 0.943881 0.428080 -0.146144
C27   C     C_R   0.808199 0.556385 0.928081 -0.146182
C28   C     C_R   0.191832 0.443938 0.071916 -0.146149
C29   C     C_R   0.595959 0.025670 0.536417 0.067578
C30   C     C_R   0.404017 0.974410 0.463575 0.067564
C31   C     C_R   0.904036 0.525688 0.963582 0.067576
C32   C     C_R   0.095981 0.474432 0.036421 0.067582
C33   C     C_R   0.534283 0.008732 0.607599 0.004484
C34   C     C_R   0.465691 0.991380 0.392389 0.004450
C35   C     C_R   0.965710 0.508708 0.892399 0.004466
C36   C     C_R   0.034307 0.491397 0.107608 0.004465
C37   C     C_R   0.563141 0.011610 0.430916 -0.159523
C38   C     C_R   0.436845 0.988395 0.569077 -0.159517
C39   C     C_R   0.936858 0.511623 0.069083 -0.159525
C40   C     C_R   0.063151 0.488388 0.930920 -0.159516
H9    H     H_    0.741756 0.070456 0.522153 0.109594
H10   H     H_    0.258219 0.929680 0.477859 0.109559
H11   H     H_    0.758242 0.570573 0.977850 0.109612
H12   H     H_    0.241785 0.429732 0.022141 0.109558
C41   C     C_3   0.520008 0.959051 0.797044 -0.370863
C42   C     C_3   0.575468 0.931861 0.903188 -0.760324
H13   H     H_    0.631532 0.828867 0.903267 0.221852
H14   H     H_    0.604802 0.064672 0.934908 0.224034
H15   H     H_    0.528379 0.879348 0.952794 0.233860
H16   H     H_    0.468434 0.067874 0.803401 0.204442
H17   H     H_    0.485155 0.825526 0.776768 0.196710
C43   C     C_3   0.480003 0.041071 0.202950 -0.370835
C44   C     C_3   0.424586 0.068320 0.096790 -0.760313
H18   H     H_    0.395068 0.935626 0.065134 0.224087
H19   H     H_    0.368670 0.171642 0.096669 0.221827
H20   H     H_    0.471741 0.120439 0.047170 0.233863
H21   H     H_    0.514943 0.174530 0.223212 0.196783
H22   H     H_    0.531505 0.932064 0.196624 0.204389
C45   C     C_3   0.979991 0.458942 0.702958 -0.370814
C46   C     C_3   0.924544 0.431780 0.596805 -0.760366
H23   H     H_    0.868480 0.328788 0.596713 0.221835
H24   H     H_    0.895213 0.564593 0.565102 0.224058
H25   H     H_    0.971634 0.379282 0.547200 0.233872
H26   H     H_    0.031573 0.567771 0.696604 0.204428
H27   H     H_    0.014837 0.325399 0.723239 0.196712
C47   C     C_3   0.019999 0.541049 0.297048 -0.370867
C48   C     C_3   0.075416 0.568289 0.403209 -0.760312
H28   H     H_    0.104948 0.435597 0.434862 0.224089
H29   H     H_    0.131319 0.671643 0.403338 0.221812
H30   H     H_    0.028254 0.620375 0.452830 0.233860
H31   H     H_    0.985046 0.674491 0.276795 0.196790
H32   H     H_    0.968509 0.432024 0.303368 0.204396

loop_
_geom_bond_atom_site_label_1
_geom_bond_atom_site_label_2
_ccdc_geom_bond_type
C26   C30   A    
C23   C27   A    
O10   C6    A    
C1    C39   S    
C41   C42   S    
C15   C45   S    
O1    V3    S    
O16   V4    S    
C43   H22   S    
C32   C36   A    
C14   C34   A    
C16   C20   A    
H6    C21   S    
C42   H14   S    
C34   C37   A    
O13   V1    S    
C41   H17   S    
O2    V4    S    
C33   C38   A    
C1    O15   A    
C35   C40   A    
O8    V4    S    
C25   H9    S    
O4    C8    A    
C45   H26   S    
O5    V1    S    
C47   H31   S    
O19   V1    S    
C8    C10   S    
O11   C7    A    
O5    C1    A    
C42   H15   S    
O7    C3    A    
O8    C4    A    
O1    C5    A    
C30   C38   A    
O9    V1    S    
C2    O16   A    
O14   V2    S    
C15   C35   A    
H4    C20   S    
O4    V2    S    
C44   H19   S    
C3    C37   S    
C31   C35   A    
C30   C34   A    
H1    C17   S    
C43   C44   S    
C45   C46   S    
C21   C25   A    
C42   H13   S    
C15   C19   A    
O12   C8    A    
C44   H18   S    
C28   H12   S    
C46   H25   S    
C16   C36   A    
O6    V2    S    
O20   V2    S    
C9    C10   T    
O6    C2    A    
C48   H28   S    
C13   C17   A    
C46   H24   S    
C4    C38   S    
O2    C6    A    
C18   C22   A    
C45   H27   S    
O10   V2    S    
C14   C43   S    
C48   H29   S    
C31   C39   A    
O15   V3    S    
C13   C33   A    
C43   H21   S    
H2    C18   S    
C27   H11   S    
C11   C12   T    
C26   H10   S    
C22   C26   A    
C44   H20   S    
C29   C37   A    
C14   C18   A    
C4    O14   A    
C2    C40   S    
C25   C29   A    
C16   C47   S    
O17   V3    S    
C27   C31   A    
O18   V4    S    
C28   C32   A    
O9    C5    A    
O3    C7    A    
O11   V3    S    
C5    C11   S    
H8    C23   S    
C6    C12   S    
C41   H16   S    
C7    C9    S    
C36   C39   A    
C17   C21   A    
O7    V3    S    
C46   H23   S    
C19   C23   A    
C32   C40   A    
H5    C22   S    
H3    C19   S    
O12   V4    S    
C29   C33   A    
H7    C24   S    
C3    O13   A    
C48   H30   S    
C24   C28   A    
C47   C48   S    
O3    V1    S    
C13   C41   S    
C47   H32   S    
C20   C24   A    
