data_mof_unit_16077.cif
_audit_creation_date              2013-03-05T16:26:13-0500
_audit_creation_method            fapswitch 2.2
_symmetry_space_group_name_H-M    P1
_symmetry_Int_Tables_number       1
_space_group_crystal_system       triclinic
_cell_length_a                    18.194115
_cell_length_b                    18.382909
_cell_length_c                    18.615644
_cell_angle_alpha                 121.196572
_cell_angle_beta                  90.399212
_cell_angle_gamma                 60.94858
_cell_volume                      4399.75219554

loop_
_atom_site_label
_atom_site_type_symbol
_atom_site_description
_atom_site_fract_x
_atom_site_fract_y
_atom_site_fract_z
_atom_type_partial_charge
Zn1   Zn    Zn3+2 0.043370 0.413240 0.543370 1.122547
Zn2   Zn    Zn3+2 0.869870 0.586760 0.543380 1.100121
Zn3   Zn    Zn3+2 0.043360 0.413260 0.369880 1.209250
Zn4   Zn    Zn3+2 0.043390 0.586740 0.543370 1.127248
O1    O     O_3   1.000000 0.500000 0.500000 -0.561001
O2    O     O_R   0.944950 0.731580 0.615800 -0.566965
O3    O     O_R   0.115780 0.268410 0.444920 -0.600756
O4    O     O_R   0.823470 0.560720 0.615800 -0.658752
O5    O     O_R   0.115800 0.439290 0.323490 -0.598720
O6    O     O_R   0.823460 0.560740 0.444930 -0.586704
O7    O     O_R   0.115830 0.560690 0.615790 -0.628632
O8    O     O_R   0.944900 0.439310 0.323490 -0.560693
O9    O     O_R   0.115810 0.439260 0.615790 -0.623184
O10   O     O_R   0.944910 0.439280 0.615800 -0.578603
O11   O     O_R   0.115820 0.560710 0.444920 -0.591952
O12   O     O_R   0.823500 0.731590 0.615800 -0.611150
O13   O     O_R   0.115770 0.268420 0.323490 -0.560357
C1    C     C_R   0.860741 0.779927 0.637703 0.893655
C2    C     C_R   0.138887 0.220767 0.360311 1.009730
C3    C     C_R   0.860078 0.497921 0.637897 0.852865
C4    C     C_R   0.138452 0.502624 0.361289 0.940490
C5    C     C_R   0.860284 0.502114 0.360199 0.989258
C6    C     C_R   0.141231 0.501116 0.639563 0.851817
C7    C     C_R   0.290023 0.532598 0.632172 -0.201315
C8    C     C_R   0.380390 0.488169 0.592682 0.307908
C9    C     C_R   0.446149 0.424584 0.610102 -0.188988
C10   C     C_R   0.423784 0.416756 0.675806 0.333959
C11   C     C_R   0.332236 0.471767 0.723034 -0.077654
C12   C     C_R   0.268416 0.508304 0.686752 -0.000993
C13   C     C_R   0.301736 0.494346 0.805681 -0.095013
C14   C     C_R   0.216236 0.515829 0.834488 0.039064
C15   C     C_R   0.159718 0.524204 0.782185 0.038081
C16   C     C_R   0.187495 0.517343 0.706269 -0.033060
C17   C     C_R   0.186601 0.523699 0.910674 -0.001687
C18   C     C_R   0.119756 0.506523 0.916424 -0.131872
C19   C     C_R   0.062012 0.518780 0.866600 -0.096379
C20   C     C_R   0.075103 0.543774 0.809945 0.039101
H1    H     H_    0.515563 0.385686 0.576277 0.213934
C21   C     C_R   0.251269 0.054874 0.330779 -0.045606
C22   C     C_R   0.187361 0.109577 0.305617 -0.174192
C23   C     C_R   0.167826 0.054736 0.230036 0.253060
C24   C     C_R   0.230593 0.946303 0.167518 0.331815
C25   C     C_R   0.298686 0.892359 0.194582 -0.155945
C26   C     C_R   0.302126 0.949816 0.279862 -0.054926
C27   C     C_3   0.374648 0.947473 0.321334 0.511004
C28   C     C_3   0.314780 0.068557 0.379464 0.055001
C29   C     C_R   0.176046 0.592610 0.322398 -0.122414
C30   C     C_R   0.197695 0.501837 0.309004 -0.199773
C31   C     C_R   0.277769 0.408709 0.241907 0.267356
C32   C     C_R   0.324261 0.405882 0.177932 0.263584
C33   C     C_R   0.300151 0.501384 0.194145 -0.135135
C34   C     C_R   0.225372 0.593863 0.268661 -0.112516
C35   C     C_3   0.158564 0.710006 0.316833 0.416247
C36   C     C_3   0.111673 0.707323 0.386410 0.530994
C37   C     C_R   0.830816 0.949646 0.750004 0.066747
C38   C     C_R   0.807329 0.890582 0.683506 -0.203944
C39   C     C_R   0.731033 0.941241 0.663810 0.394722
C40   C     C_R   0.668465 0.049713 0.727190 -0.192161
C41   C     C_R   0.693412 0.107102 0.796937 -0.146378
C42   C     C_R   0.776733 0.055089 0.803118 0.014781
C43   C     C_3   0.804157 0.064544 0.882580 -0.234833
C44   C     C_3   0.866846 0.944663 0.821833 -0.239790
C45   C     C_R   0.723377 0.525367 0.328202 -0.038060
C46   C     C_R   0.804554 0.510126 0.305022 -0.157339
C47   C     C_R   0.827800 0.505830 0.229192 0.391833
C48   C     C_R   0.774096 0.501132 0.172603 -0.155842
C49   C     C_R   0.695775 0.507278 0.195677 -0.136862
C50   C     C_R   0.670791 0.524701 0.276250 -0.024462
C51   C     C_3   0.620790 0.502244 0.316881 0.533023
C52   C     C_3   0.682087 0.503157 0.377247 0.070815
C53   C     C_R   0.729427 0.587094 0.763238 -0.085549
C54   C     C_R   0.806002 0.495214 0.693263 -0.113265
C55   C     C_R   0.834110 0.404008 0.686799 0.449600
C56   C     C_R   0.780033 0.408387 0.744752 -0.216776
H2    H     H_    0.799431 0.338672 0.737776 0.210329
C57   C     C_R   0.698416 0.500326 0.807769 -0.096115
C58   C     C_R   0.678342 0.590220 0.820214 -0.033828
C59   C     C_3   0.594767 0.684283 0.839945 -0.229506
C60   C     C_3   0.651343 0.679265 0.773527 -0.140508
H3    H     H_    0.543354 0.669641 0.817883 0.221262
Zn5   Zn    Zn3+2 0.456670 0.586670 0.956580 1.109644
Zn6   Zn    Zn3+2 0.456680 0.586650 0.130080 1.117835
Zn7   Zn    Zn3+2 0.630180 0.413150 0.956570 1.053631
Zn8   Zn    Zn3+2 0.456650 0.413170 0.956580 1.129616
O14   O     O_3   0.500040 0.499910 0.999960 -0.540478
O15   O     O_R   0.384230 0.439200 0.055040 -0.589176
O16   O     O_R   0.555130 0.560630 0.884160 -0.619400
O17   O     O_R   0.384270 0.731490 0.176470 -0.641429
O18   O     O_R   0.676550 0.268320 0.884150 -0.648204
O19   O     O_R   0.555150 0.560600 0.176460 -0.545925
O20   O     O_R   0.384220 0.439220 0.884170 -0.630726
O21   O     O_R   0.676580 0.439170 0.055020 -0.672233
O22   O     O_R   0.384230 0.560650 0.884170 -0.597983
O23   O     O_R   0.384260 0.731500 0.055040 -0.575543
O24   O     O_R   0.555100 0.268330 0.884160 -0.615744
O25   O     O_R   0.384250 0.560620 0.176470 -0.615851
O26   O     O_R   0.676570 0.439190 0.884150 -0.640169
C61   C     C_R   0.356149 0.502907 0.139518 0.892052
C62   C     C_R   0.640307 0.500363 0.861110 0.861612
C63   C     C_R   0.359400 0.779894 0.139682 0.961467
C64   C     C_R   0.639179 0.219419 0.858486 0.881796
C65   C     C_R   0.639990 0.500489 0.139724 0.897801
C66   C     C_R   0.358705 0.499402 0.861278 0.959418
C67   C     C_2   0.985985 0.510317 0.876730 0.396041
H4    H     H_    0.947857 0.540850 0.941232 0.081039
O27   O     O_2   0.966287 0.466939 0.812075 -0.532155
S1    S     S_3+6 0.229719 0.882568 0.054920 0.151721
O28   O     O_2   0.215210 0.800811 0.033782 -0.232815
O29   O     O_2   0.159762 0.953435 0.037296 -0.158441
O30   O     O_3   0.327906 0.827878 0.984980 -0.459519
H5    H     H_    0.329802 0.778420 0.925473 0.382809
S2    S     S_3+6 0.386398 0.896003 0.384156 0.140319
O31   O     O_2   0.436662 0.924586 0.445858 -0.192161
O32   O     O_2   0.296667 0.937736 0.437853 -0.221974
O33   O     O_3   0.443399 0.767719 0.314965 -0.420976
H6    H     H_    0.398559 0.752452 0.316423 0.428411
S3    S     S_3+6 0.481100 0.878321 0.240766 0.093206
O34   O     O_2   0.541499 0.903666 0.288004 -0.189328
O35   O     O_2   0.524646 0.764287 0.189308 -0.324314
O36   O     O_3   0.468828 0.907387 0.167708 -0.507810
H7    H     H_    0.528749 0.885575 0.140321 0.382674
C68   C     C_2   0.277335 0.123529 0.478436 0.573858
H8    H     H_    0.319466 0.132880 0.519182 0.118127
O37   O     O_2   0.201038 0.157506 0.513549 -0.463736
S4    S     S_3+6 0.351831 0.135145 0.362413 0.085066
O38   O     O_2   0.286532 0.249001 0.430701 -0.308347
O39   O     O_2   0.441062 0.106673 0.374761 -0.203206
O40   O     O_3   0.356701 0.108925 0.260975 -0.438331
H9    H     H_    0.408895 0.106628 0.241836 0.434718
S5    S     S_3+6 0.326199 0.304079 0.250696 0.119777
O41   O     O_2   0.303376 0.229870 0.189913 -0.172875
O42   O     O_2   0.425618 0.249668 0.225917 -0.215580
O43   O     O_3   0.287300 0.345326 0.355125 -0.532135
H10   H     H_    0.311841 0.385033 0.390517 0.371791
S6    S     S_3+6 0.407201 0.285133 0.075503 0.142335
O44   O     O_2   0.493714 0.276462 0.068858 -0.216871
O45   O     O_2   0.422745 0.191718 0.065112 -0.151608
O46   O     O_3   0.375446 0.282206 0.989473 -0.492373
H11   H     H_    0.320530 0.283882 0.995688 0.392502
S7    S     S_3+6 0.199944 0.791507 0.361764 0.166026
O47   O     O_2   0.124007 0.899497 0.433899 -0.114983
O48   O     O_2   0.272345 0.755185 0.398332 -0.204421
O49   O     O_3   0.238600 0.798457 0.285934 -0.493756
H12   H     H_    0.268799 0.728545 0.230565 0.360610
S8    S     S_3+6 0.096495 0.734467 0.246166 0.086581
O50   O     O_2   0.005781 0.833171 0.302003 -0.163447
O51   O     O_2   0.142218 0.745284 0.189380 -0.268492
O52   O     O_3   0.087338 0.635932 0.178089 -0.543355
H13   H     H_    0.042406 0.661538 0.152086 0.386700
S9    S     S_3+6 0.133917 0.750684 0.491924 0.116836
O53   O     O_2   0.087612 0.739018 0.547564 -0.213666
O54   O     O_2   0.232001 0.687514 0.475731 -0.300213
O55   O     O_3   0.095654 0.875875 0.552344 -0.423785
H14   H     H_    0.116263 0.889161 0.604504 0.404207
C69   C     C_2   0.221198 0.623347 0.636715 0.572352
H15   H     H_    0.224094 0.624167 0.579175 0.136653
O56   O     O_2   0.161052 0.699483 0.706346 -0.507855
S10   S     S_3+6 0.994474 0.755680 0.407617 0.126341
O57   O     O_2   0.969962 0.724490 0.458620 -0.272319
O58   O     O_2   0.941340 0.871274 0.463938 -0.179516
O59   O     O_3   0.965426 0.713630 0.315821 -0.482048
H16   H     H_    0.899512 0.756859 0.337321 0.423288
S11   S     S_3+6 0.714355 0.871780 0.561194 0.138814
O60   O     O_2   0.638429 0.865105 0.579837 -0.197303
O61   O     O_2   0.691871 0.928405 0.519740 -0.167727
O62   O     O_3   0.804670 0.752329 0.486452 -0.516282
H17   H     H_    0.787824 0.725321 0.432290 0.390701
C70   C     C_2   0.574282 0.099236 0.729233 0.627442
H18   H     H_    0.520837 0.148767 0.791209 0.114432
O63   O     O_2   0.554518 0.084257 0.662506 -0.399699
C71   C     C_2   0.849862 0.120477 0.910003 0.430263
H19   H     H_    0.853002 0.155115 0.878390 0.132440
O64   O     O_2   0.884171 0.126766 0.967766 -0.477740
C72   C     C_2   0.727852 0.112711 0.960400 0.525009
H20   H     H_    0.723203 0.164325 0.027858 0.163470
O65   O     O_2   0.672161 0.092414 0.948648 -0.500864
C73   C     C_2   0.965275 0.900880 0.800012 0.605529
H21   H     H_    0.999327 0.889323 0.844953 0.153014
O66   O     O_2   0.006763 0.881027 0.734087 -0.480690
C74   C     C_2   0.844487 0.891620 0.849539 0.521640
H22   H     H_    0.815519 0.850268 0.812148 0.044521
O67   O     O_2   0.857878 0.896062 0.915643 -0.488387
S12   S     S_3+6 0.919699 0.511227 0.206750 0.081856
O68   O     O_2   0.999184 0.403192 0.139813 -0.192417
O69   O     O_2   0.899087 0.572108 0.169635 -0.275181
O70   O     O_3   0.944369 0.567146 0.298905 -0.567768
H23   H     H_    0.006518 0.543094 0.276503 0.406454
C75   C     C_2   0.798542 0.490196 0.089961 0.605741
H24   H     H_    0.748127 0.538198 0.074423 0.035958
O71   O     O_2   0.873880 0.424478 0.036761 -0.469039
S13   S     S_3+6 0.505511 0.608251 0.375180 0.112512
O72   O     O_2   0.497359 0.708424 0.419175 -0.220054
O73   O     O_2   0.453137 0.599174 0.312308 -0.211741
O74   O     O_3   0.462482 0.607592 0.453490 -0.459227
H25   H     H_    0.399899 0.667848 0.481298 0.427459
S14   S     S_3+6 0.413473 0.521750 0.532192 0.084682
O75   O     O_2   0.512999 0.455745 0.491102 -0.153178
O76   O     O_2   0.372506 0.508811 0.459689 -0.278102
O77   O     O_3   0.379549 0.645393 0.604104 -0.508651
H26   H     H_    0.319990 0.686908 0.602369 0.371824
S15   S     S_3+6 0.631422 0.382757 0.236505 0.106972
O78   O     O_2   0.576652 0.395895 0.178077 -0.311321
O79   O     O_2   0.726348 0.297563 0.178279 -0.282853
O80   O     O_3   0.593407 0.350577 0.289757 -0.401348
H27   H     H_    0.594856 0.289746 0.242184 0.406961
C76   C     C_2   0.634610 0.590533 0.475062 0.549433
H28   H     H_    0.595852 0.586479 0.515015 0.159689
O81   O     O_2   0.637715 0.665995 0.509662 -0.498859
S16   S     S_3+6 0.762159 0.384858 0.363239 0.090825
O82   O     O_2   0.804702 0.407596 0.434498 -0.280214
O83   O     O_2   0.716807 0.338749 0.372269 -0.185912
O84   O     O_3   0.842361 0.300608 0.263720 -0.456427
H29   H     H_    0.856446 0.232279 0.243167 0.431067
S17   S     S_3+6 0.931810 0.281592 0.604541 0.125783
O85   O     O_2   0.010798 0.275598 0.633205 -0.169165
O86   O     O_2   0.926715 0.197198 0.593228 -0.223758
O87   O     O_3   0.944493 0.264648 0.506628 -0.527187
H30   H     H_    0.005410 0.202106 0.468586 0.397522
C77   C     C_2   0.561320 0.773822 0.935897 0.552667
H31   H     H_    0.607540 0.786950 0.968924 0.048131
O88   O     O_2   0.481826 0.832823 0.977078 -0.437358
C78   C     C_2   0.625776 0.653766 0.690425 0.533802
H32   H     H_    0.604009 0.706342 0.672072 0.126085
O89   O     O_2   0.626846 0.575672 0.644582 -0.533158
C79   C     C_2   0.663277 0.766546 0.811111 0.367693
H33   H     H_    0.727950 0.753258 0.813844 0.069616
O90   O     O_2   0.600565 0.852552 0.837776 -0.476887
S18   S     S_3+6 0.511454 0.321461 0.682571 0.051272
O91   O     O_2   0.549743 0.367687 0.750638 -0.381801
O92   O     O_2   0.476400 0.276452 0.708302 -0.236136
O93   O     O_3   0.592545 0.226327 0.583304 -0.445421
H34   H     H_    0.634730 0.245988 0.584444 0.378088
C80   C     C_2   0.210960 0.567725 0.991561 0.446154
H35   H     H_    0.221157 0.539510 0.031776 0.139045
O94   O     O_2   0.216060 0.640365 0.016299 -0.522444
C81   C     C_2   0.108991 0.478478 0.975839 0.449627
H36   H     H_    0.043976 0.505003 0.010107 0.110315
O95   O     O_2   0.173881 0.422076 0.985012 -0.527473
C82   C     C_2   0.995633 0.606409 0.794226 0.405493
H37   H     H_    0.940762 0.597583 0.790635 0.079155
O96   O     O_2   0.988653 0.673331 0.789833 -0.587694
S19   S     S_3+6 0.059386 0.119845 0.224105 0.113806
O97   O     O_2   0.059607 0.160759 0.172126 -0.145647
O98   O     O_2   0.029801 0.048075 0.180317 -0.219532
O99   O     O_3   0.985956 0.219311 0.326851 -0.559857
H38   H     H_    0.953009 0.195606 0.340281 0.406918

loop_
_geom_bond_atom_site_label_1
_geom_bond_atom_site_label_2
_geom_bond_distance
_ccdc_geom_bond_type
S6    O46   1.682121 S    
S19   O97   1.502975 D    
C37   C38   1.394547 A    
C51   S15   1.813160 S    
C48   C75   1.485721 S    
C69   O56   1.220436 D    
C35   S7    1.816482 S    
S15   O79   1.500355 D    
C55   C56   1.409361 A    
O93   H34   0.990657 S    
C28   S4    1.805671 S    
S11   O60   1.503051 D    
S7    O49   1.670815 S    
C71   H19   1.085853 S    
O40   H9    0.990299 S    
C51   S13   1.801577 S    
C44   C73   1.513752 S    
S18   O92   1.499378 D    
S8    O50   1.502797 D    
C27   S2    1.804145 S    
S6    O44   1.502292 D    
C36   S9    1.826890 S    
C35   C36   1.590699 S    
C81   H36   1.082621 S    
C57   C62   1.454986 S    
Zn7   O21   1.939786 S    
C71   O64   1.221159 D    
C11   C12   1.399008 A    
C9    C10   1.388692 A    
O4    C3    1.298817 A    
S4    O38   1.502623 D    
C56   C57   1.403786 A    
Zn1   O1    1.980156 S    
C19   C20   1.411381 A    
S11   O61   1.503534 D    
Zn8   O15   1.958911 S    
C31   S5    1.783435 S    
C32   S6    1.800674 S    
S12   O69   1.503450 D    
C44   C74   1.513750 S    
C13   C14   1.434933 A    
C59   H3    1.113910 S    
C10   S18   1.772261 S    
C20   C82   1.492736 S    
C77   O88   1.219233 D    
O33   H6    0.987743 S    
C37   C44   1.510783 S    
O8    C5    1.281078 A    
S16   O84   1.682404 S    
C38   C39   1.421178 A    
O9    C6    1.299762 A    
C75   O71   1.220803 D    
C17   C18   1.414217 A    
C23   C24   1.427029 A    
O7    C6    1.271392 A    
O49   H12   0.982751 S    
O30   H5    0.990782 S    
O19   C65   1.283247 A    
Zn3   O8    1.938532 S    
S10   O59   1.677109 S    
C79   O90   1.220992 D    
C72   H20   1.083319 S    
O77   H26   0.989738 S    
C82   H37   1.082858 S    
C12   C16   1.426384 A    
C50   C51   1.505956 S    
C73   O66   1.220847 D    
S9    O55   1.679125 S    
O25   C61   1.275150 A    
C13   C66   1.460519 S    
S4    O40   1.680449 S    
S19   O98   1.504770 D    
S1    O28   1.501500 D    
C7    C8    1.414703 A    
Zn3   O13   1.948811 S    
C43   C71   1.513264 S    
Zn8   O20   1.952943 S    
C40   C70   1.488813 S    
C24   S1    1.800003 S    
C7    C69   1.478080 S    
O21   C65   1.282454 A    
C4    C30   1.447165 S    
C33   C61   1.464436 S    
C70   O63   1.218072 D    
C48   C49   1.424690 A    
C41   C42   1.389034 A    
C75   H24   1.085501 S    
C37   C42   1.370690 A    
S10   O58   1.503435 D    
S15   O80   1.680909 S    
S1    O29   1.500474 D    
O22   C66   1.293430 A    
C51   C52   1.577357 S    
S14   O77   1.684084 S    
O2    C1    1.270568 A    
C53   C60   1.501899 S    
C67   H4    1.083215 S    
S8    O51   1.496563 D    
C74   O67   1.221214 D    
C79   H33   1.086147 S    
O16   C62   1.289383 A    
C57   C58   1.391493 A    
S7    O47   1.501163 D    
Zn7   O18   1.932273 S    
S16   O82   1.503007 D    
S19   O99   1.681270 S    
Zn6   O25   1.941054 S    
C56   H2    1.082952 S    
C43   C72   1.521635 S    
C21   C22   1.388308 A    
C33   C34   1.415050 A    
C41   C64   1.461453 S    
O10   C3    1.283392 A    
S11   O62   1.679383 S    
C25   C63   1.465564 S    
Zn4   O2    1.948921 S    
O26   C62   1.288031 A    
S3    O36   1.678607 S    
C77   H31   1.086084 S    
C76   H28   1.082477 S    
S14   O75   1.503417 D    
O80   H27   0.990576 S    
C6    C16   1.478196 S    
C8    C9    1.389952 A    
C58   C59   1.494410 S    
C5    C46   1.449840 S    
O6    C5    1.284814 A    
S13   O72   1.502606 D    
C60   C79   1.511389 S    
C42   C43   1.508266 S    
C18   C19   1.409890 A    
S10   O57   1.499098 D    
S5    O42   1.503893 D    
C49   C50   1.389034 A    
S13   O73   1.497427 D    
S12   O68   1.503463 D    
Zn3   O5    1.941199 S    
C59   C77   1.505558 S    
C36   S10   1.816653 S    
Zn5   O22   1.924166 S    
C2    C22   1.448519 S    
C29   C30   1.390616 A    
C39   S11   1.792473 S    
C45   C52   1.502748 S    
O23   C63   1.282860 A    
C30   C31   1.414684 A    
C35   S8    1.818510 S    
C32   C33   1.438988 A    
C14   C17   1.430191 A    
C28   C68   1.516564 S    
C82   O96   1.220089 D    
Zn5   O16   1.946286 S    
C15   C20   1.430773 A    
Zn8   O14   1.922908 S    
Zn4   O7    1.953194 S    
C78   O89   1.222090 D    
C80   O94   1.219211 D    
O17   C63   1.304389 A    
C8    S14   1.761189 S    
O70   H23   0.988932 S    
C29   C36   1.502054 S    
S2    O32   1.504992 D    
S14   O76   1.503135 D    
C70   H18   1.083127 S    
Zn7   O14   1.956281 S    
C31   C32   1.429603 A    
O3    C2    1.283415 A    
C21   C28   1.500488 S    
C25   C26   1.401976 A    
O62   H17   0.990930 S    
S1    O30   1.682072 S    
S9    O54   1.502085 D    
C55   S17   1.775357 S    
S12   O70   1.676818 S    
Zn2   O1    1.956135 S    
Zn1   O9    1.924274 S    
C24   C25   1.444909 A    
C21   C26   1.365550 A    
C68   O37   1.221468 D    
Zn2   O6    1.939883 S    
S18   O93   1.683513 S    
C53   C58   1.375084 A    
S8    O52   1.681351 S    
Zn2   O12   1.932273 S    
O36   H7    0.990291 S    
C60   C78   1.509910 S    
C47   S12   1.787128 S    
C27   S3    1.814069 S    
S6    O45   1.500434 D    
C45   C50   1.355390 A    
C22   C23   1.412059 A    
O18   C64   1.281728 A    
Zn1   O3    1.937823 S    
C14   C15   1.420095 A    
Zn2   O4    1.958623 S    
C26   C27   1.517885 S    
O20   C66   1.268035 A    
C54   C55   1.430470 A    
Zn3   O1    1.958565 S    
S17   O87   1.679418 S    
C68   H8    1.085007 S    
C29   C34   1.364948 A    
Zn1   O10   1.946390 S    
C1    C38   1.450568 S    
C52   C76   1.512042 S    
Zn6   O14   1.958567 S    
S2    O31   1.502839 D    
Zn6   O19   1.938571 S    
S15   O78   1.502557 D    
C23   S19   1.782645 S    
C19   C67   1.488671 S    
C9    H1    1.081840 S    
C15   C16   1.425439 A    
Zn4   O11   1.958862 S    
S3    O35   1.502338 D    
C67   O27   1.220742 D    
O87   H30   0.990788 S    
S13   O74   1.667809 S    
C53   C54   1.396910 A    
O59   H16   0.990713 S    
S3    O34   1.502440 D    
C46   C47   1.427643 A    
O74   H25   0.990312 S    
Zn5   O23   1.937868 S    
C59   C60   1.550547 S    
O5    C4    1.278188 A    
C39   C40   1.428654 A    
O43   H10   0.990176 S    
O11   C4    1.262239 A    
Zn6   O17   1.948812 S    
Zn4   O1    1.922911 S    
S17   O85   1.502866 D    
C11   C13   1.404963 A    
O13   C2    1.293959 A    
C72   O65   1.221995 D    
C81   O95   1.220585 D    
S5    O41   1.502745 D    
S17   O86   1.503585 D    
O52   H13   0.990447 S    
C47   C48   1.430126 A    
C43   C44   1.559302 S    
O15   C61   1.275869 A    
C40   C41   1.429209 A    
O46   H11   0.990271 S    
S18   O91   1.503378 D    
C45   C46   1.388446 A    
S5    O43   1.681078 S    
C27   C28   1.574303 S    
C7    C12   1.425647 A    
O84   H29   0.990291 S    
C49   C65   1.450600 S    
O12   C1    1.272975 A    
C73   H21   1.085333 S    
Zn7   O26   1.958522 S    
C69   H15   1.081048 S    
S4    O39   1.502226 D    
C52   S16   1.805686 S    
S16   O83   1.502135 D    
S9    O53   1.498775 D    
C3    C54   1.465448 S    
C18   C81   1.489740 S    
S7    O48   1.499545 D    
O55   H14   0.990588 S    
O99   H38   0.990140 S    
C76   O81   1.221632 D    
C78   H32   1.084507 S    
Zn8   O24   1.948972 S    
S2    O33   1.671093 S    
Zn5   O14   1.980308 S    
C74   H22   1.084427 S    
O24   C64   1.267351 A    
C80   H35   1.082010 S    
C34   C35   1.533428 S    
C17   C80   1.481677 S    
C10   C11   1.425977 A    
