data_mof_unit_9348.cif
_audit_creation_date              2012-12-11T16:17:57-0500
_audit_creation_method            fapswitch 2.2
_symmetry_space_group_name_H-M    P1
_symmetry_Int_Tables_number       1
_space_group_crystal_system       triclinic
_cell_length_a                    14.041348
_cell_length_b                    14.051797
_cell_length_c                    30.119081
_cell_angle_alpha                 97.109456
_cell_angle_beta                  96.94409
_cell_angle_gamma                 61.38189
_cell_volume                      5163.59604414

loop_
_atom_site_label
_atom_site_type_symbol
_atom_type_description
_atom_site_fract_x
_atom_site_fract_y
_atom_site_fract_z
_atom_type_partial_charge
C1    C     C_R   0.386526 0.709626 0.441882 0.538750
C2    C     C_R   0.413596 0.263344 0.220573 -0.100055
C3    C     C_R   0.424264 0.267851 0.267605 0.077202
C4    C     C_R   0.338645 0.349390 0.292058 0.072786
C5    C     C_R   0.319438 0.339376 0.198191 -0.029370
C6    C     C_1   0.304955 0.325390 0.150334 -0.053651
C7    C     C_1   0.350790 0.357088 0.340275 0.017635
C8    C     C_1   0.292207 0.305430 0.110774 -0.010271
C9    C     C_R   0.762192 0.370095 0.399608 -0.000865
C10   C     C_R   0.771295 0.274390 0.375175 -0.106987
C11   C     C_R   0.794467 0.254002 0.329913 0.112468
C12   C     C_R   0.399253 0.381372 0.426329 0.544234
C13   C     C_R   0.808651 0.330558 0.309502 0.068168
C14   C     C_R   0.808266 0.421176 0.334626 -0.146756
C15   C     C_R   0.785690 0.440725 0.379497 -0.141561
C16   C     C_R   0.834671 0.400957 0.159007 -0.124806
C17   C     C_R   0.864280 0.390293 0.115537 -0.153772
C18   C     C_R   0.875510 0.210638 0.104212 0.091670
C19   C     C_R   0.845633 0.222507 0.148061 -0.103548
C20   C     C_R   0.829766 0.315366 0.175726 0.017526
C21   C     C_1   0.820037 0.318475 0.222495 -0.018404
C22   C     C_1   0.815313 0.322184 0.262134 0.007047
C23   C     C_R   0.709423 0.405932 0.442233 0.540830
C24   C     C_R   0.890686 0.293103 0.088410 0.057674
C25   C     C_R   0.371926 0.758424 0.399387 0.005427
C26   C     C_R   0.466468 0.729809 0.377655 -0.129476
C27   C     C_R   0.460096 0.751412 0.333135 0.109675
C28   C     C_R   0.357522 0.804744 0.310421 0.035847
C29   C     C_R   0.262694 0.841605 0.332562 -0.099274
C30   C     C_R   0.268673 0.818915 0.376966 0.080292
C31   C     C_R   0.255415 0.825839 0.149682 -0.119671
C32   C     C_R   0.236044 0.855600 0.105829 -0.125852
C33   C     C_R   0.386913 0.897070 0.117002 -0.129500
C34   C     C_R   0.389652 0.711590 0.568249 0.546052
C35   C     C_R   0.406017 0.867295 0.160882 -0.108543
C36   C     C_R   0.337699 0.835642 0.177535 0.037990
C37   C     C_1   0.344846 0.823982 0.224214 -0.019769
C38   C     C_1   0.349543 0.816429 0.263599 -0.002305
C39   C     C_R   0.298585 0.896143 0.089814 0.021744
C40   C     C_R   0.365691 0.365417 0.592978 -0.023507
C41   C     C_R   0.428213 0.268452 0.614302 -0.107674
C42   C     C_R   0.410659 0.262132 0.658402 0.281049
C43   C     C_R   0.327648 0.352326 0.680468 0.043539
C44   C     C_R   0.259843 0.445743 0.658188 -0.168198
C45   C     C_R   0.402282 0.383421 0.552513 0.545682
C46   C     C_R   0.278356 0.452241 0.614591 -0.146764
C47   C     C_R   0.216865 0.413376 0.835115 0.276867
C48   C     C_R   0.208968 0.390903 0.878168 -0.144083
C49   C     C_R   0.397381 0.248553 0.879915 0.081148
C50   C     C_R   0.403650 0.269254 0.836428 -0.163033
C51   C     C_R   0.312455 0.347147 0.813513 0.028530
C52   C     C_1   0.315309 0.352489 0.766712 0.032459
C53   C     C_1   0.318952 0.353233 0.727258 0.020425
C54   C     C_R   0.297055 0.305472 0.900151 0.013014
C55   C     C_1   0.761491 0.376914 0.612625 -0.012387
C56   C     C_R   0.712636 0.407994 0.568620 0.548099
C57   C     C_R   0.855942 0.400247 0.726230 -0.080720
C58   C     C_R   0.873815 0.388684 0.772655 0.124081
C59   C     C_R   0.816148 0.248786 0.761890 -0.139310
C60   C     C_R   0.798387 0.261154 0.715777 -0.119579
C61   C     C_R   0.818436 0.336723 0.697881 0.020235
C62   C     C_R   0.853438 0.312429 0.790450 0.066346
C63   C     C_1   0.877414 0.295437 0.837614 -0.029053
C64   C     C_1   0.791637 0.355964 0.651065 -0.055989
C65   C     C_1   0.905652 0.282871 0.876799 -0.005870
C66   C     C_1   0.375721 0.758465 0.613549 -0.005697
C67   C     C_1   0.368223 0.365681 0.380232 0.004054
C68   C     C_R   0.328971 0.743577 0.722985 -0.119947
C69   C     C_R   0.317588 0.761566 0.769409 0.116282
C70   C     C_R   0.363363 0.908704 0.771354 -0.120217
C71   C     C_R   0.374663 0.890742 0.724853 0.106875
C72   C     C_R   0.356199 0.808142 0.700673 0.044075
C73   C     C_R   0.334882 0.844870 0.793559 0.046680
C74   C     C_1   0.315802 0.871652 0.840529 -0.027336
C75   C     C_1   0.366328 0.785943 0.652971 -0.023327
C76   C     C_1   0.294494 0.901893 0.878985 -0.009593
C77   C     C_R   0.949951 0.273162 0.048047 0.561157
C78   C     C_R   0.245537 0.428276 0.269573 0.252368
C79   C     C_R   0.275321 0.270251 0.065367 0.545967
C80   C     C_R   0.260690 0.953728 0.048640 0.540867
C81   C     C_R   0.952372 0.269062 0.922063 0.545453
C82   C     C_R   0.276884 0.266546 0.939682 0.566237
C83   C     C_R   0.261601 0.950858 0.922878 0.542727
C84   C     C_R   0.235366 0.421174 0.222525 -0.105780
Cr1   Cr    Cr6+3 0.581000 0.584320 0.508140 1.026298
Cr2   Cr    Cr6+3 0.339110 0.576430 0.496080 1.019316
Cr3   Cr    Cr6+3 0.579910 0.339270 0.495810 1.025820
Cr4   Cr    Cr6+3 0.082090 0.079210 0.982490 1.040606
Cr5   Cr    Cr6+3 0.082460 0.324610 0.994920 1.017658
Cr6   Cr    Cr6+3 0.323630 0.087860 0.996130 1.035612
H1    H     H_    0.840041 0.156957 0.161121 0.111063
H2    H     H_    0.167893 0.853386 0.085520 0.128066
H3    H     H_    0.202674 0.800814 0.162544 0.103260
H4    H     H_    0.183751 0.884820 0.314804 0.126992
H5    H     H_    0.546285 0.683803 0.394238 0.135929
H6    H     H_    0.470163 0.874546 0.182479 0.122693
H7    H     H_    0.436536 0.927701 0.105512 0.130896
H8    H     H_    0.161341 0.478492 0.205120 0.121988
H9    H     H_    0.131333 0.435617 0.892925 0.143394
H10   H     H_    0.195978 0.515544 0.675272 0.119389
H11   H     H_    0.228540 0.527941 0.598994 0.145522
H12   H     H_    0.494431 0.199842 0.597877 0.137542
H13   H     H_    0.478528 0.220875 0.819818 0.109301
H14   H     H_    0.869971 0.459573 0.712256 0.108856
H15   H     H_    0.477797 0.199470 0.201368 0.120043
H16   H     H_    0.801110 0.189468 0.775259 0.103827
H17   H     H_    0.768219 0.212476 0.694126 0.103394
H18   H     H_    0.315620 0.679642 0.704047 0.105326
H19   H     H_    0.375507 0.973380 0.790244 0.109959
H20   H     H_    0.873599 0.455549 0.104374 0.136257
H21   H     H_    0.821531 0.473556 0.180375 0.120802
H22   H     H_    0.820060 0.479766 0.318915 0.119739
H23   H     H_    0.779466 0.514959 0.397467 0.135147
H24   H     H_    0.754150 0.218863 0.390435 0.128885
O1    O     O_R   0.688580 0.499770 0.460490 -0.520669
O2    O     O_R   0.348600 0.476260 0.536540 -0.499867
O3    O     O_R   0.494840 0.313840 0.539010 -0.515937
O4    O     O_R   0.672120 0.351750 0.545910 -0.495317
O5    O     O_3   0.500010 0.500010 0.500010 -0.246521
O6    O     O_R   0.167510 0.972920 0.030390 -0.511363
O7    O     O_R   0.990840 0.178580 0.027590 -0.454316
O8    O     O_R   0.972840 0.345510 0.038590 -0.529940
O9    O     O_R   0.181550 0.320660 0.045200 -0.496458
O10   O     O_R   0.346150 0.177650 0.050510 -0.510134
O11   O     O_R   0.314200 0.996600 0.036060 -0.504624
O12   O     O_R   0.480400 0.672610 0.462660 -0.504690
O13   O     O_R   0.168690 0.969990 0.933130 -0.509297
O14   O     O_R   0.991920 0.175870 0.937430 -0.496631
O15   O     O_R   0.974010 0.342590 0.941330 -0.505528
O16   O     O_R   0.182630 0.317940 0.955040 -0.516893
O17   O     O_R   0.347320 0.174720 0.953250 -0.464345
O18   O     O_R   0.315290 0.993890 0.945900 -0.494494
O19   O     O_3   0.162730 0.163890 0.991180 -0.251609
O20   O     O_R   0.315310 0.685650 0.451800 -0.518248
O21   O     O_R   0.346220 0.474990 0.446280 -0.494283
O22   O     O_R   0.492270 0.312460 0.441630 -0.504906
O23   O     O_R   0.669740 0.350480 0.455640 -0.502038
O24   O     O_R   0.691150 0.501150 0.557860 -0.503811
O25   O     O_R   0.482790 0.673890 0.552920 -0.490123
O26   O     O_R   0.317880 0.687030 0.549170 -0.511911
O27   O     O_3   0.161424 0.507945 0.293605 -0.554987
C85   C     C_3   0.164494 0.607063 0.294107 -0.014695
H25   H     H_    0.153669 0.632732 0.259509 0.119167
H26   H     H_    0.242833 0.600027 0.310649 0.136508
C86   C     C_3   0.072210 0.695163 0.320473 -0.361405
H27   H     H_    0.082060 0.673661 0.355600 0.164084
H28   H     H_    0.072710 0.773949 0.320573 0.112315
H29   H     H_    0.992906 0.703940 0.304810 0.160528
N1    N     N_3   0.895137 0.112823 0.076923 -0.600506
H30   H     H_    0.956391 0.047023 0.093542 0.226587
H31   H     H_    0.824191 0.105030 0.074078 0.220361
N2    N     N_3   0.797794 0.159534 0.303992 -0.643296
H32   H     H_    0.877588 0.110395 0.294914 0.232574
H33   H     H_    0.780844 0.113839 0.323634 0.224534
N3    N     N_3   0.169171 0.857958 0.398102 -0.639450
H34   H     H_    0.175011 0.897717 0.429223 0.245787
H35   H     H_    0.157774 0.791960 0.403023 0.251482
N4    N     N_3   0.557248 0.715666 0.310320 -0.617120
H36   H     H_    0.564221 0.651026 0.287222 0.228847
H37   H     H_    0.626082 0.684776 0.332801 0.219905
O28   O     O_3   0.127688 0.490812 0.811788 -0.549680
C87   C     C_3   0.101976 0.595239 0.832564 -0.016786
H38   H     H_    0.175943 0.606275 0.840611 0.138953
H39   H     H_    0.060691 0.609444 0.863827 0.131874
C88   C     C_3   0.024973 0.680459 0.800765 -0.378752
H40   H     H_    0.948520 0.674588 0.793068 0.149169
H41   H     H_    0.005083 0.762961 0.816536 0.099062
H42   H     H_    0.063892 0.667926 0.769055 0.152465
N5    N     N_3   0.491610 0.166425 0.902339 -0.591700
H43   H     H_    0.516270 0.093111 0.882515 0.226905
H44   H     H_    0.553983 0.187720 0.904489 0.224214
O29   O     O_3   0.473415 0.167586 0.679875 -0.553460
C89   C     C_3   0.574981 0.162155 0.694913 -0.017368
H45   H     H_    0.564853 0.237567 0.715596 0.126365
H46   H     H_    0.623301 0.149257 0.665970 0.126662
C90   C     C_3   0.638203 0.066733 0.723938 -0.375365
H47   H     H_    0.650936 0.989824 0.704241 0.160298
H48   H     H_    0.718623 0.061117 0.735799 0.091034
H49   H     H_    0.592487 0.078104 0.753479 0.145674
N6    N     N_3   0.913443 0.453111 0.801780 -0.589372
H50   H     H_    0.928318 0.501935 0.783092 0.249955
H51   H     H_    0.851388 0.505987 0.822387 0.221107
N7    N     N_3   0.287853 0.696443 0.792060 -0.629361
H52   H     H_    0.283299 0.635142 0.769831 0.222999
H53   H     H_    0.209478 0.746760 0.802486 0.223601
N8    N     N_3   0.403107 0.956640 0.702052 -0.588319
H54   H     H_    0.480967 0.906768 0.691015 0.232484
H55   H     H_    0.408439 0.017425 0.724368 0.247928
N9    N     N_3   0.521091 0.189767 0.290721 -0.615788
H56   H     H_    0.561327 0.231417 0.307577 0.244399
H57   H     H_    0.574124 0.132331 0.267792 0.235219

loop_
_geom_bond_atom_site_label_1
_geom_bond_atom_site_label_2
_ccdc_geom_bond_type
C58   C62   A    
C1    C25   S    
C55   C56   S    
C63   C65   T    
C40   C41   A    
C88   H40   S    
N3    H35   S    
C11   C13   A    
C41   C42   A    
C35   C36   A    
N7    H52   S    
C17   H20   S    
C34   C66   S    
C80   O6    A    
C86   H27   S    
C32   H2    S    
C89   H45   S    
C52   C53   T    
C27   N4    S    
C14   H22   S    
C26   C27   A    
C33   C39   A    
C74   C76   T    
C18   C24   A    
C28   C29   A    
C23   O1    A    
Cr4   O19   S    
Cr3   O3    S    
Cr4   O13   S    
N7    H53   S    
C29   H4    S    
Cr5   O8    S    
C49   C54   A    
C34   O25   A    
C26   H5    S    
Cr5   O15   S    
C41   H12   S    
Cr2   O2    S    
C18   C19   A    
C73   C74   S    
C32   C39   A    
Cr1   O5    S    
C77   O8    A    
C65   C81   S    
C43   C53   S    
C90   H49   S    
C47   C48   A    
N6    H51   S    
C16   C17   A    
C12   O21   A    
Cr2   O20   S    
C8    C79   S    
C15   H23   S    
C69   C73   A    
Cr2   O5    S    
C13   C14   A    
Cr4   O6    S    
C18   N1    S    
C9    C10   A    
Cr1   O25   S    
C31   C36   A    
C10   H24   S    
Cr2   O26   S    
Cr6   O18   S    
C90   H48   S    
N8    H54   S    
C59   C60   A    
C88   H41   S    
N1    H31   S    
C21   C22   T    
N4    H37   S    
N5    H44   S    
C85   C86   S    
Cr1   O12   S    
Cr6   O10   S    
Cr3   O23   S    
C4    C7    S    
C76   C83   S    
C86   H28   S    
C44   C46   A    
O28   C87   S    
C87   H39   S    
C89   H46   S    
C40   C45   S    
C46   H11   S    
C59   H16   S    
Cr5   O19   S    
C51   C52   S    
C17   C24   A    
N5    H43   S    
Cr1   O1    S    
C77   O7    A    
C1    O12   A    
Cr3   O4    S    
C83   O18   A    
C78   O27   S    
C5    C84   A    
C68   C69   A    
C6    C8    T    
C12   C67   S    
Cr5   O9    S    
C25   C26   A    
C35   H6    S    
C70   C73   A    
C79   O9    A    
Cr5   O16   S    
C11   N2    S    
C60   C61   A    
C48   C54   A    
C61   C64   S    
C40   C46   A    
C43   C44   A    
C4    C78   A    
C37   C38   T    
C70   H19   S    
C87   C88   S    
C56   O24   A    
C24   C77   S    
C81   O15   A    
C31   C32   A    
C28   C38   S    
C29   C30   A    
C68   C72   A    
C55   C64   T    
C62   C63   S    
Cr3   O5    S    
C50   C51   A    
C16   C20   A    
N2    H32   S    
C70   C71   A    
C60   H17   S    
C42   O29   S    
C69   N7    S    
Cr6   O17   S    
C30   N3    S    
N2    H33   S    
C88   H42   S    
C81   O14   A    
N4    H36   S    
C85   H26   S    
C2    C5    A    
C82   O16   A    
C42   C43   A    
C71   N8    S    
N8    H55   S    
C1    O20   A    
C54   C82   S    
C86   H29   S    
O29   C89   S    
C87   H38   S    
C89   C90   S    
C45   O3    A    
C25   C30   A    
Cr6   O19   S    
C57   H14   S    
C36   C37   S    
C59   C62   A    
C85   H25   S    
C56   O4    A    
Cr3   O22   S    
C23   O23   A    
C9    C23   S    
C83   O13   A    
Cr4   O7    S    
C90   H47   S    
C47   C51   A    
C57   C61   A    
C68   H18   S    
C79   O10   A    
C2    H15   S    
C84   H8    S    
C39   C80   S    
C19   C20   A    
C3    N9    S    
C2    C3    A    
C9    C15   A    
C71   C72   A    
Cr4   O14   S    
C31   H3    S    
N1    H30   S    
C49   N5    S    
C44   H10   S    
C45   O2    A    
C72   C75   S    
C57   C58   A    
C5    C6    S    
C66   C75   T    
C34   O26   A    
C33   C35   A    
Cr6   O11   S    
C13   C22   S    
C33   H7    S    
C80   O11   A    
N9    H56   S    
C19   H1    S    
C10   C11   A    
C7    C67   T    
C47   O28   S    
C78   C84   A    
Cr2   O21   S    
C50   H13   S    
C20   C21   S    
C49   C50   A    
C12   O22   A    
N3    H34   S    
C14   C15   A    
C58   N6    S    
C48   H9    S    
N9    H57   S    
C82   O17   A    
O27   C85   S    
Cr1   O24   S    
N6    H50   S    
C3    C4    A    
C16   H21   S    
C27   C28   A    
