data_mof_unit_16728.cif
_audit_creation_date              2013-03-05T15:45:31-0500
_audit_creation_method            fapswitch 2.2
_symmetry_space_group_name_H-M    P1
_symmetry_Int_Tables_number       1
_space_group_crystal_system       triclinic
_cell_length_a                    27.745279
_cell_length_b                    10.747526
_cell_length_c                    10.0058
_cell_angle_alpha                 90.077391
_cell_angle_beta                  90.343344
_cell_angle_gamma                 90.020979
_cell_volume                      2983.60409238

loop_
_atom_site_label
_atom_site_type_symbol
_atom_site_description
_atom_site_fract_x
_atom_site_fract_y
_atom_site_fract_z
_atom_type_partial_charge
O1    O     O_R   0.499990 0.319060 0.613040 -0.615305
O2    O     O_R   0.500010 0.319100 0.386900 -0.614269
C1    C     C_R   0.499047 0.262624 0.499747 0.941285
O3    O     O_R   0.428750 0.500000 0.613050 -0.620596
O4    O     O_R   0.428760 0.500040 0.386920 -0.618452
C2    C     C_R   0.406034 0.500176 0.499584 0.876958
Zn1   Zn    Zn3+2 0.499990 0.499970 0.650990 0.952012
Zn2   Zn    Zn3+2 0.500010 0.500030 0.349010 0.949244
O5    O     O_R   0.499990 0.680900 0.613100 -0.612596
O6    O     O_R   0.500010 0.680940 0.386960 -0.613995
O7    O     O_R   0.571240 0.499960 0.613080 -0.621193
O8    O     O_R   0.571250 0.500000 0.386950 -0.618238
C3    C     C_R   0.501222 0.737364 0.500024 0.939936
C4    C     C_R   0.593962 0.499524 0.500501 0.869765
C5    C     C_R   0.177565 0.405201 0.437330 0.505531
O9    O     O_2   0.202536 0.312206 0.379056 -0.556847
N1    N     N_R   0.201500 0.502152 0.496158 -0.356428
C6    C     C_R   0.177515 0.597649 0.556641 0.504942
C7    C     C_R   0.277965 0.515989 0.376913 -0.096211
C8    C     C_R   0.328038 0.514976 0.377599 -0.211820
C9    C     C_R   0.327967 0.487736 0.618665 -0.211910
C10   C     C_R   0.277916 0.488218 0.617571 -0.099248
C11   C     C_R   0.252896 0.502436 0.496819 0.313112
C12   C     C_R   0.101617 0.497681 0.502409 -0.053416
C13   C     C_R   0.127186 0.401294 0.439001 -0.021050
C14   C     C_R   0.102094 0.303522 0.378623 -0.136283
C15   C     C_R   0.127147 0.597055 0.561239 -0.021209
C16   C     C_R   0.353370 0.500904 0.498589 -0.042539
H1    H     H_    0.346677 0.476418 0.713172 0.163445
H2    H     H_    0.258476 0.477132 0.710335 0.144484
H3    H     H_    0.120917 0.229962 0.326330 0.191444
C17   C     C_R   0.646607 0.496701 0.502470 -0.039404
C18   C     C_R   0.974866 0.384219 0.465118 0.031938
C19   C     C_R   0.974184 0.593835 0.565527 0.048150
C20   C     C_R   0.949227 0.487438 0.516362 0.069275
C21   C     C_R   0.949113 0.275175 0.432339 -0.267087
C22   C     C_R   0.898949 0.270039 0.437373 0.017963
C23   C     C_R   0.872737 0.378029 0.472896 -0.071362
C24   C     C_R   0.898154 0.484594 0.517986 -0.062715
C25   C     C_R   0.872439 0.588917 0.564764 -0.009914
C26   C     C_R   0.822187 0.586927 0.563144 0.483626
N2    N     N_R   0.798312 0.486932 0.511527 -0.351393
C27   C     C_R   0.822000 0.384782 0.464429 0.491380
C28   C     C_R   0.721266 0.478060 0.626911 -0.108545
C29   C     C_R   0.671286 0.482082 0.624442 -0.217665
C30   C     C_R   0.672636 0.507425 0.383089 -0.217117
C31   C     C_R   0.722727 0.503871 0.385998 -0.109708
C32   C     C_R   0.746970 0.489091 0.507897 0.325230
O10   O     O_2   0.796297 0.292021 0.407595 -0.553033
C33   C     C_R   0.025581 0.391177 0.452332 0.052341
C34   C     C_R   0.050628 0.494499 0.507305 0.070627
C35   C     C_R   0.025272 0.594408 0.567466 0.043295
C36   C     C_R   0.052216 0.298757 0.384273 -0.220478
H4    H     H_    0.652061 0.473175 0.717846 0.163188
H5    H     H_    0.740137 0.466537 0.721157 0.138478
H6    H     H_    0.967464 0.189417 0.409112 0.142782
H7    H     H_    0.035443 0.222833 0.331024 0.143621
O11   O     O_2   0.202423 0.692952 0.611627 -0.555901
C37   C     C_R   0.102065 0.692733 0.624420 -0.136250
H8    H     H_    0.346825 0.525696 0.283750 0.164984
H9    H     H_    0.258574 0.527327 0.283468 0.145507
H10   H     H_    0.120967 0.769202 0.672144 0.191194
C38   C     C_R   0.947009 0.696666 0.610532 -0.214897
C39   C     C_R   0.897175 0.693599 0.610970 -0.153186
O12   O     O_2   0.797143 0.684813 0.611014 -0.599346
C40   C     C_R   0.052123 0.691535 0.627940 -0.218731
H11   H     H_    0.962996 0.782737 0.643510 0.140241
H12   H     H_    0.654388 0.519004 0.287912 0.161004
H13   H     H_    0.878074 0.774747 0.646913 0.178663
H14   H     H_    0.742765 0.512998 0.293967 0.138155
H15   H     H_    0.035801 0.767233 0.681714 0.141978
C41   C     C_2   0.500507 0.932974 0.387091 -0.153635
C42   C     C_2   0.506181 0.868795 0.500206 -0.328203
H16   H     H_    0.494004 0.887249 0.291728 0.175374
H17   H     H_    0.515788 0.911516 0.594880 0.151813
C43   C     C_2   0.503284 0.066862 0.387535 -0.151560
C44   C     C_2   0.494942 0.131060 0.499292 -0.324284
H18   H     H_    0.511623 0.112686 0.293711 0.174093
H19   H     H_    0.483794 0.088309 0.592159 0.152115
C45   C     C_2   0.530683 0.563095 0.925477 -0.126593
N3    N     N_2   0.500520 0.501330 0.852150 -0.192201
H20   H     H_    0.558788 0.615793 0.876234 0.159676
H21   H     H_    0.472141 0.457396 0.897364 0.163352
C46   C     C_2   0.528656 0.569221 0.075616 -0.130421
N4    N     N_2   0.500540 0.501360 0.147810 -0.194184
H22   H     H_    0.553012 0.633168 0.125893 0.158637
H23   H     H_    0.479497 0.435415 0.101644 0.163061
C47   C     C_R   0.876128 0.146827 0.415214 0.191253
C48   C     C_R   0.881654 0.084366 0.292818 -0.144356
C49   C     C_R   0.860863 0.967080 0.273490 -0.144606
C50   C     C_R   0.834547 0.911444 0.376038 -0.079925
C51   C     C_R   0.829232 0.972706 0.498370 -0.121591
C52   C     C_R   0.850396 0.089228 0.518668 -0.105776
H24   H     H_    0.901867 0.126710 0.212531 0.127983
H25   H     H_    0.865088 0.919408 0.178937 0.136717
H26   H     H_    0.818365 0.820836 0.360784 0.151662
H27   H     H_    0.808831 0.929943 0.577801 0.180717
H28   H     H_    0.846419 0.135182 0.614386 0.123445

loop_
_geom_bond_atom_site_label_1
_geom_bond_atom_site_label_2
_geom_bond_distance
_ccdc_geom_bond_type
C17   C29   1.404844 A    
C22   C47   1.483436 S    
C20   C24   1.417544 A    
C7    C8    1.389331 A    
C12   C15   1.407712 A    
C45   C46   1.504995 S    
C49   H25   1.082312 S    
Zn1   O7    2.015145 S    
N1    C11   1.425971 S    
C21   C22   1.394097 A    
C43   H18   1.086817 S    
Zn2   N4    2.013380 S    
C37   C40   1.386363 A    
C23   C24   1.416608 A    
C45   N3    1.292387 D    
O7    C4    1.294145 A    
C5    C13   1.398587 A    
C5    O9    1.350083 S    
C18   C21   1.409648 A    
Zn1   O5    1.981665 S    
C19   C20   1.422281 A    
C26   N2    1.361750 A    
C48   H24   1.083121 S    
O5    C3    1.285235 A    
C51   C52   1.397044 A    
C50   H26   1.082416 S    
C47   C52   1.405241 A    
C46   N4    1.292292 D    
C6    O11   1.350115 S    
C2    C16   1.461173 S    
C40   H15   1.076331 S    
C8    H8    1.082988 S    
C41   C43   1.441000 S    
C12   C34   1.416255 A    
C44   H19   1.083840 S    
C14   H3    1.083519 S    
C9    C10   1.388668 A    
C42   H17   1.083944 S    
O3    Zn1   2.010463 S    
N3    H21   1.025753 S    
C51   H27   1.081417 S    
C33   C34   1.418373 A    
N4    H23   1.025742 S    
C38   H11   1.076319 S    
C33   C36   1.414638 A    
C34   C35   1.419199 A    
C12   C13   1.408225 A    
C45   H20   1.084724 S    
C4    C17   1.460995 S    
C50   C51   1.397696 A    
C36   H7    1.077912 S    
C27   O10   1.348681 S    
C26   O12   1.349869 S    
C8    C16   1.404561 A    
C18   C33   1.415647 A    
C9    H1    1.083010 S    
O1    C1    1.285059 A    
C7    C11   1.398145 A    
C31   H14   1.083052 S    
C30   H12   1.083199 S    
C22   C23   1.415952 A    
C21   H6    1.078852 S    
C31   C32   1.398604 A    
Zn2   O8    2.010466 S    
N1    C6    1.366068 A    
N2    C32   1.424947 S    
C39   H13   1.082868 S    
C43   C44   1.334612 D    
C41   H16   1.086801 S    
C25   C26   1.394428 A    
Zn1   N3    2.012766 S    
C9    C16   1.403864 A    
C3    C42   1.419183 S    
C29   H4    1.083204 S    
O3    C2    1.295224 A    
N2    C27   1.364607 A    
C1    C44   1.418522 S    
C14   C36   1.386288 A    
C24   C25   1.410105 A    
C35   C40   1.415318 A    
C28   C29   1.387447 A    
C5    N1    1.366148 A    
C30   C31   1.390465 A    
C37   H10   1.083575 S    
C10   H2    1.083000 S    
O1    Zn1   1.980564 S    
C17   C30   1.404393 A    
O2    Zn2   1.981666 S    
C6    C15   1.398511 A    
O8    C4    1.295928 A    
C41   C42   1.334760 D    
O6    C3    1.283118 A    
O4    Zn2   2.015142 S    
C19   C35   1.417498 A    
C25   C39   1.394553 A    
O2    C1    1.283072 A    
C13   C14   1.395190 A    
C23   C27   1.411655 A    
C15   C37   1.394781 A    
C28   H5    1.083154 S    
C49   C50   1.397779 A    
O4    C2    1.294943 A    
C7    H9    1.082961 S    
C19   C38   1.412808 A    
C18   C20   1.415271 A    
C38   C39   1.383061 A    
C47   C48   1.405012 A    
Zn2   O6    1.980563 S    
C10   C11   1.398427 A    
C46   H22   1.084778 S    
C48   C49   1.398783 A    
C52   H28   1.083233 S    
C28   C32   1.396874 A    
