data_mof_unit_61115.cif
_audit_creation_date              2012-10-26T17:20:27-0400
_audit_creation_method            fapswitch 2.2
_symmetry_space_group_name_H-M    P1
_symmetry_Int_Tables_number       1
_space_group_crystal_system       monoclinic
_cell_length_a                    23.705447
_cell_length_b                    23.705216
_cell_length_c                    38.73099
_cell_angle_alpha                 90.000026
_cell_angle_beta                  90.0
_cell_angle_gamma                 90.0
_cell_volume                      21764.5987021

loop_
_atom_site_label
_atom_site_type_symbol
_atom_type_description
_atom_site_fract_x
_atom_site_fract_y
_atom_site_fract_z
_atom_type_partial_charge
C1    C     C_R   0.500000 0.108207 0.500000 0.545715
C2    C     C_R   1.000000 0.500000 0.395583 -0.034184
C3    C     C_R   0.536620 0.036276 0.841099 0.226112
C4    C     C_R   0.967304 0.460191 0.158860 0.231522
C5    C     C_R   0.460192 0.032697 0.158860 0.231523
C6    C     C_R   0.032696 0.539808 0.158860 0.231523
C7    C     C_R   0.539807 0.967303 0.158860 0.231524
C8    C     C_R   0.500000 0.000000 0.322979 0.026022
C9    C     C_R   1.000000 0.500000 0.322979 0.026021
C10   C     C_R   0.500000 1.000000 0.676991 0.011651
C11   C     C_R   1.000000 0.500000 0.677021 0.026033
C12   C     C_R   0.000000 0.500000 0.823009 0.011661
C13   C     C_R   0.500000 1.000000 0.604383 -0.035548
C14   C     C_R   0.500000 1.000000 0.822979 0.026042
C15   C     C_R   1.000000 0.499999 0.176991 0.011669
C16   C     C_R   0.500000 0.000000 0.176991 0.011667
C17   C     C_3   0.437334 0.087153 0.396442 -0.359162
C18   C     C_3   0.912851 0.437330 0.396441 -0.359168
C19   C     C_3   0.562666 0.912847 0.396442 -0.359162
C20   C     C_3   0.087149 0.562670 0.396441 -0.359168
C21   C     C_3   0.438904 0.911611 0.603386 -0.353971
C22   C     C_3   0.912850 0.562670 0.603559 -0.359104
C23   C     C_3   0.561096 0.088388 0.603387 -0.353971
C24   C     C_R   1.000000 0.500000 0.604416 -0.034179
C25   C     C_3   0.087150 0.437330 0.603558 -0.359105
C26   C     C_3   0.938905 0.588389 0.896614 -0.353935
C27   C     C_3   0.412849 0.937331 0.896441 -0.359071
C28   C     C_3   0.061095 0.411611 0.896613 -0.353936
C29   C     C_3   0.587150 0.062669 0.896441 -0.359071
C30   C     C_3   0.938905 0.411610 0.103386 -0.353870
C31   C     C_3   0.411613 0.061098 0.103387 -0.353876
C32   C     C_3   0.061095 0.588389 0.103387 -0.353871
C33   C     C_3   0.588387 0.938902 0.103387 -0.353878
C34   C     C_3   0.372854 0.051195 0.324248 0.002798
C35   C     C_R   0.000000 0.500000 0.895617 -0.035529
C36   C     C_3   0.336015 0.084084 0.299197 -0.358240
C37   C     C_3   0.948811 0.372850 0.324248 0.002797
C38   C     C_3   0.915924 0.336009 0.299197 -0.358243
C39   C     C_3   0.627146 0.948806 0.324248 0.002798
C40   C     C_3   0.663985 0.915917 0.299197 -0.358241
C41   C     C_3   0.051188 0.627150 0.324248 0.002797
C42   C     C_3   0.084075 0.663991 0.299197 -0.358245
C43   C     C_3   0.380183 0.945718 0.681459 -0.005326
C44   C     C_3   0.343978 0.905147 0.702263 -0.358781
C45   C     C_3   0.948811 0.627149 0.675752 0.002828
C46   C     C_R   0.500000 1.000000 0.895584 -0.034160
C47   C     C_3   0.915923 0.663991 0.700803 -0.358249
C48   C     C_3   0.619817 0.054282 0.681459 -0.005326
C49   C     C_3   0.656022 0.094852 0.702264 -0.358780
C50   C     C_3   0.051189 0.372850 0.675752 0.002827
C51   C     C_3   0.084076 0.336009 0.700803 -0.358249
C52   C     C_3   0.880183 0.554283 0.818541 -0.005321
C53   C     C_3   0.843979 0.594855 0.797736 -0.358763
C54   C     C_3   0.448809 0.872851 0.824248 0.002834
C55   C     C_3   0.415921 0.836011 0.799197 -0.358231
C56   C     C_3   0.119817 0.445717 0.818541 -0.005321
C57   C     C_R   1.000000 0.500000 0.104383 -0.035526
C58   C     C_3   0.156020 0.405145 0.797736 -0.358762
C59   C     C_3   0.551191 0.127149 0.824248 0.002834
C60   C     C_3   0.584079 0.163989 0.799197 -0.358232
C61   C     C_3   0.880183 0.445716 0.181459 -0.005310
C62   C     C_3   0.843980 0.405145 0.202264 -0.358743
C63   C     C_3   0.445720 0.119819 0.181460 -0.005311
C64   C     C_3   0.405146 0.156027 0.202259 -0.358749
C65   C     C_3   0.119817 0.554283 0.181459 -0.005309
C66   C     C_3   0.156018 0.594849 0.202269 -0.358745
C67   C     C_3   0.554279 0.880181 0.181459 -0.005309
C68   C     C_R   0.500000 1.000000 0.104383 -0.035531
C69   C     C_3   0.594849 0.843975 0.202263 -0.358746
C70   C     C_R   0.500000 0.000000 0.215017 0.359408
C71   C     C_R   1.000000 0.499999 0.215017 0.359414
C72   C     C_R   0.500000 1.000000 0.784934 0.392641
C73   C     C_R   0.891793 0.500000 0.500000 0.545839
C74   C     C_R   0.000000 0.500000 0.784983 0.359426
C75   C     C_R   0.000000 0.500000 0.715066 0.392640
C76   C     C_R   0.500000 1.000000 0.715017 0.359424
C77   C     C_R   1.000000 0.500000 0.284934 0.392609
C78   C     C_R   0.500000 0.000000 0.284934 0.392610
C79   C     C_R   0.393004 0.500000 0.500000 0.542626
C80   C     C_R   0.500000 0.393004 0.500000 0.542634
C81   C     C_R   0.606996 0.500000 0.500000 0.542626
C82   C     C_R   0.500000 0.606996 0.500000 0.542634
C83   C     C_R   0.893004 1.000000 0.000000 0.542547
C84   C     C_R   0.500000 0.891793 0.500000 0.545716
C85   C     C_R   1.000000 0.893004 0.000000 0.542555
C86   C     C_R   0.106996 0.000000 0.000000 0.542547
C87   C     C_R   1.000000 0.106996 0.000000 0.542555
C88   C     C_R   0.500000 1.000000 0.433573 0.562815
C89   C     C_R   1.000000 0.500000 0.433573 0.562937
C90   C     C_R   0.500000 0.000000 0.566417 0.562481
C91   C     C_R   0.000000 0.500000 0.566427 0.562939
C92   C     C_R   0.000000 0.500000 0.933583 0.562307
C93   C     C_R   0.500000 1.000000 0.933573 0.562766
C94   C     C_R   0.000000 0.500000 0.066417 0.562308
C95   C     C_R   0.108207 0.500000 0.500000 0.545839
C96   C     C_R   0.500000 1.000000 0.066417 0.562431
C97   C     C_1   0.500000 0.169324 0.500001 -0.028666
C98   C     C_1   0.830676 0.500000 0.500000 -0.028755
C99   C     C_1   0.500000 0.830676 0.500001 -0.028665
C100  C     C_1   0.169324 0.500000 0.500000 -0.028756
C101  C     C_1   0.000000 0.669324 0.000000 -0.028452
C102  C     C_1   0.330676 1.000000 0.000001 -0.028542
C103  C     C_1   1.000000 0.330676 0.000000 -0.028452
C104  C     C_1   0.669324 0.000000 0.000001 -0.028542
C105  C     C_1   0.500000 0.220530 0.500002 -0.038287
C106  C     C_R   0.000000 0.608207 0.000000 0.545564
C107  C     C_1   0.779470 0.500000 0.500000 -0.038500
C108  C     C_1   0.500000 0.779470 0.500002 -0.038287
C109  C     C_1   0.220530 0.500000 0.500000 -0.038500
C110  C     C_1   0.000000 0.720530 1.000000 -0.037889
C111  C     C_1   0.279470 1.000000 0.000002 -0.038102
C112  C     C_1   0.000000 0.279470 0.000000 -0.037889
C113  C     C_1   0.720530 1.000000 0.000002 -0.038102
C114  C     C_1   0.500000 0.280660 0.500001 -0.033939
C115  C     C_1   0.719339 0.500000 0.500000 -0.034116
C116  C     C_1   0.500000 0.719339 0.500001 -0.033939
C117  C     C_R   0.391793 1.000000 0.000000 0.545688
C118  C     C_1   0.280661 0.500000 0.500000 -0.034116
C119  C     C_1   1.000000 0.780660 1.000000 -0.033522
C120  C     C_1   0.219339 1.000000 0.000001 -0.033700
C121  C     C_1   1.000000 0.219340 0.000000 -0.033523
C122  C     C_1   0.780661 1.000000 0.000001 -0.033700
C123  C     C_1   0.500000 0.331871 0.500000 -0.016823
C124  C     C_1   0.668129 0.500000 0.500000 -0.016918
C125  C     C_1   0.500000 0.668129 0.500000 -0.016823
C126  C     C_1   0.331871 0.500000 0.500000 -0.016918
C127  C     C_1   1.000000 0.831871 1.000000 -0.016486
C128  C     C_R   0.000000 0.391793 0.000000 0.545564
C129  C     C_1   0.168129 1.000000 0.000000 -0.016581
C130  C     C_1   0.000000 0.168129 0.000000 -0.016486
C131  C     C_1   0.831871 1.000000 0.000000 -0.016581
C132  C     C_R   0.467047 0.039912 0.377388 -0.036665
C133  C     C_R   0.960090 0.467045 0.377388 -0.036664
C134  C     C_R   0.532953 0.960088 0.377388 -0.036665
C135  C     C_R   0.039910 0.532955 0.377388 -0.036664
C136  C     C_R   0.469149 0.958381 0.622555 -0.033148
C137  C     C_R   0.960090 0.532955 0.622612 -0.036679
C138  C     C_R   0.530850 0.041618 0.622555 -0.033148
C139  C     C_R   0.608207 1.000000 0.000000 0.545688
C140  C     C_R   0.039910 0.467045 0.622612 -0.036679
C141  C     C_R   0.969150 0.541619 0.877444 -0.033144
C142  C     C_R   0.460089 0.967045 0.877388 -0.036677
C143  C     C_R   0.030850 0.458381 0.877444 -0.033145
C144  C     C_R   0.539911 0.032954 0.877388 -0.036677
C145  C     C_R   0.969150 0.458381 0.122555 -0.033158
C146  C     C_R   0.458382 0.030851 0.122556 -0.033158
C147  C     C_R   0.030850 0.541619 0.122556 -0.033159
C148  C     C_R   0.541617 0.969149 0.122556 -0.033158
C149  C     C_R   0.463725 0.036622 0.341099 0.226095
C150  C     C_R   0.500000 0.000000 0.395584 -0.034180
C151  C     C_R   0.963380 0.463723 0.341099 0.226096
C152  C     C_R   0.536275 0.963379 0.341099 0.226095
C153  C     C_R   0.036619 0.536277 0.341099 0.226096
C154  C     C_R   0.467304 0.960192 0.658860 0.231502
C155  C     C_R   0.963380 0.536277 0.658901 0.226109
C156  C     C_R   0.532696 0.039808 0.658860 0.231502
C157  C     C_R   0.036619 0.463723 0.658901 0.226109
C158  C     C_R   0.967304 0.539809 0.841140 0.231506
C159  C     C_R   0.463380 0.963724 0.841099 0.226112
C160  C     C_R   0.032696 0.460191 0.841140 0.231506
Cu1   Cu    Cu3+1 0.555710 1.000000 0.500000 0.916541
Cu2   Cu    Cu3+1 0.500000 0.500000 0.534110 0.961631
Cu3   Cu    Cu3+1 1.000000 0.000000 0.965890 0.961636
Cu4   Cu    Cu3+1 0.000000 1.000000 0.034110 0.962768
Cu5   Cu    Cu3+1 0.000000 0.555710 0.500000 0.915715
Cu6   Cu    Cu3+1 0.444290 1.000000 0.500000 0.916541
Cu7   Cu    Cu3+1 1.000000 0.444290 0.500000 0.915716
Cu8   Cu    Cu3+1 0.055710 0.500000 0.000000 0.917726
Cu9   Cu    Cu3+1 0.500000 0.055710 0.000000 0.916899
Cu10  Cu    Cu3+1 0.944290 0.500000 0.000000 0.917726
Cu11  Cu    Cu3+1 0.500000 0.944290 0.000000 0.916899
Cu12  Cu    Cu3+1 0.500000 0.500000 0.465890 0.960494
H1    H     H_    0.422072 0.120716 0.378803 0.167317
H2    H     H_    0.120712 0.577933 0.378802 0.167312
H3    H     H_    0.117444 0.486360 0.804141 0.140655
H4    H     H_    0.137086 0.398484 0.771845 0.174923
H5    H     H_    0.199036 0.422916 0.794490 0.098023
H6    H     H_    0.159165 0.363995 0.811313 0.154377
H7    H     H_    0.556019 0.145185 0.850575 0.122462
H8    H     H_    0.505754 0.128936 0.816855 0.146502
H9    H     H_    0.578023 0.148533 0.772400 0.184399
H10   H     H_    0.568794 0.208190 0.800822 0.096104
H11   H     H_    0.629711 0.162993 0.805671 0.153571
H12   H     H_    0.859197 0.453024 0.156112 0.124274
H13   H     H_    0.070220 0.599416 0.410846 0.139432
H14   H     H_    0.882556 0.486359 0.195859 0.140632
H15   H     H_    0.862915 0.398484 0.228155 0.174898
H16   H     H_    0.800964 0.422915 0.205510 0.097899
H17   H     H_    0.840835 0.363995 0.188687 0.154528
H18   H     H_    0.453035 0.140804 0.156113 0.124264
H19   H     H_    0.486359 0.117445 0.195863 0.140640
H20   H     H_    0.398476 0.137094 0.228150 0.174894
H21   H     H_    0.422918 0.199042 0.205507 0.097898
H22   H     H_    0.364001 0.159174 0.188678 0.154522
H23   H     H_    0.140805 0.546983 0.156112 0.124276
H24   H     H_    0.107673 0.533075 0.414787 0.130230
H25   H     H_    0.117445 0.513636 0.195854 0.140625
H26   H     H_    0.137082 0.601501 0.228160 0.174904
H27   H     H_    0.199034 0.577080 0.205513 0.097899
H28   H     H_    0.159161 0.636004 0.188697 0.154532
H29   H     H_    0.546970 0.859195 0.156113 0.124265
H30   H     H_    0.513637 0.882555 0.195859 0.140633
H31   H     H_    0.601511 0.862909 0.228154 0.174898
H32   H     H_    0.577078 0.800959 0.205509 0.097897
H33   H     H_    0.635998 0.840829 0.188686 0.154524
H34   H     H_    0.423040 0.878090 0.620847 0.172247
H35   H     H_    0.402235 0.929099 0.589163 0.140323
H36   H     H_    0.468224 0.891073 0.584885 0.129285
H37   H     H_    0.879288 0.577933 0.621198 0.167401
H38   H     H_    0.929780 0.599415 0.589153 0.139445
H39   H     H_    0.892327 0.533075 0.585213 0.130264
H40   H     H_    0.576960 0.121910 0.620847 0.172247
H41   H     H_    0.400588 0.070225 0.410847 0.139446
H42   H     H_    0.597765 0.070901 0.589163 0.140323
H43   H     H_    0.531776 0.108927 0.584885 0.129284
H44   H     H_    0.120712 0.422067 0.621198 0.167401
H45   H     H_    0.070220 0.400585 0.589153 0.139445
H46   H     H_    0.107673 0.466925 0.585213 0.130264
H47   H     H_    0.923042 0.621911 0.879153 0.172267
H48   H     H_    0.902236 0.570902 0.910837 0.140379
H49   H     H_    0.968226 0.608928 0.915114 0.129257
H50   H     H_    0.379287 0.922068 0.878802 0.167421
H51   H     H_    0.429779 0.900586 0.910847 0.139502
H52   H     H_    0.466930 0.107675 0.414787 0.130207
H53   H     H_    0.392327 0.966927 0.914787 0.130239
H54   H     H_    0.076958 0.378089 0.879153 0.172267
H55   H     H_    0.097764 0.429098 0.910837 0.140379
H56   H     H_    0.031774 0.391072 0.915114 0.129258
H57   H     H_    0.620713 0.077931 0.878802 0.167421
H58   H     H_    0.570222 0.099414 0.910847 0.139501
H59   H     H_    0.607673 0.033073 0.914787 0.130239
H60   H     H_    0.923042 0.378089 0.120847 0.172353
H61   H     H_    0.902236 0.429097 0.089163 0.140393
H62   H     H_    0.968226 0.391072 0.084885 0.129291
H63   H     H_    0.879288 0.422067 0.378802 0.167312
H64   H     H_    0.378092 0.076963 0.120847 0.172348
H65   H     H_    0.429101 0.097767 0.089163 0.140379
H66   H     H_    0.391074 0.031778 0.084885 0.129314
H67   H     H_    0.076958 0.621911 0.120847 0.172352
H68   H     H_    0.097763 0.570903 0.089163 0.140393
H69   H     H_    0.031774 0.608928 0.084886 0.129292
H70   H     H_    0.621907 0.923037 0.120847 0.172347
H71   H     H_    0.570899 0.902233 0.089164 0.140379
H72   H     H_    0.608926 0.968222 0.084886 0.129314
H73   H     H_    0.354818 0.056024 0.350575 0.122390
H74   H     H_    0.929780 0.400584 0.410846 0.139432
H75   H     H_    0.371066 0.005758 0.316855 0.146504
H76   H     H_    0.351471 0.078028 0.272400 0.184457
H77   H     H_    0.291814 0.068801 0.300821 0.096158
H78   H     H_    0.337012 0.129717 0.305671 0.153424
H79   H     H_    0.943984 0.354814 0.350575 0.122381
H80   H     H_    0.994248 0.371064 0.316855 0.146503
H81   H     H_    0.921980 0.351465 0.272400 0.184457
H82   H     H_    0.931209 0.291809 0.300822 0.096155
H83   H     H_    0.870291 0.337005 0.305671 0.153422
H84   H     H_    0.645182 0.943977 0.350575 0.122390
H85   H     H_    0.892327 0.466925 0.414787 0.130230
H86   H     H_    0.628934 0.994243 0.316855 0.146504
H87   H     H_    0.648529 0.921974 0.272399 0.184456
H88   H     H_    0.708186 0.931200 0.300821 0.096158
H89   H     H_    0.662988 0.870284 0.305671 0.153424
H90   H     H_    0.056016 0.645185 0.350575 0.122381
H91   H     H_    0.005751 0.628936 0.316855 0.146504
H92   H     H_    0.078019 0.648535 0.272400 0.184456
H93   H     H_    0.068790 0.708191 0.300822 0.096155
H94   H     H_    0.129708 0.662995 0.305671 0.153422
H95   H     H_    0.359197 0.953027 0.656113 0.124206
H96   H     H_    0.577928 0.879284 0.378802 0.167317
H97   H     H_    0.382556 0.986361 0.695859 0.140650
H98   H     H_    0.362912 0.898484 0.728154 0.174933
H99   H     H_    0.300963 0.922918 0.705509 0.097983
H100  H     H_    0.340833 0.863997 0.688686 0.154353
H101  H     H_    0.943983 0.645185 0.649425 0.122410
H102  H     H_    0.994248 0.628936 0.683145 0.146486
H103  H     H_    0.921980 0.648534 0.727601 0.184409
H104  H     H_    0.931208 0.708191 0.699179 0.096053
H105  H     H_    0.870291 0.662995 0.694329 0.153553
H106  H     H_    0.640804 0.046974 0.656112 0.124207
H107  H     H_    0.599412 0.929776 0.410847 0.139446
H108  H     H_    0.617444 0.013639 0.695859 0.140649
H109  H     H_    0.637087 0.101513 0.728155 0.174935
H110  H     H_    0.699037 0.077082 0.705510 0.097982
H111  H     H_    0.659166 0.136003 0.688687 0.154353
H112  H     H_    0.056017 0.354814 0.649425 0.122410
H113  H     H_    0.005752 0.371064 0.683145 0.146487
H114  H     H_    0.078020 0.351466 0.727601 0.184409
H115  H     H_    0.068791 0.291809 0.699179 0.096053
H116  H     H_    0.129709 0.337005 0.694329 0.153553
H117  H     H_    0.859197 0.546975 0.843887 0.124256
H118  H     H_    0.533071 0.892325 0.414787 0.130208
H119  H     H_    0.882556 0.513641 0.804141 0.140656
H120  H     H_    0.862914 0.601517 0.771846 0.174923
H121  H     H_    0.800964 0.577085 0.794490 0.098023
H122  H     H_    0.840835 0.636005 0.811314 0.154377
H123  H     H_    0.443981 0.854815 0.850574 0.122462
H124  H     H_    0.494246 0.871064 0.816855 0.146502
H125  H     H_    0.421977 0.851467 0.772399 0.184399
H126  H     H_    0.431205 0.791810 0.800821 0.096104
H127  H     H_    0.370289 0.837007 0.805671 0.153570
H128  H     H_    0.140803 0.453024 0.843887 0.124256
N1    N     N_R   0.549243 0.999803 0.267129 -0.218802
N2    N     N_R   0.500196 0.049243 0.767129 -0.218801
N3    N     N_R   0.999801 0.549278 0.767194 -0.191485
N4    N     N_R   0.499804 0.950757 0.767129 -0.218801
N5    N     N_R   0.000199 0.549277 0.232806 -0.191460
N6    N     N_R   0.549277 0.999800 0.232806 -0.191460
N7    N     N_R   0.999801 0.450722 0.232806 -0.191461
N8    N     N_R   0.450722 0.000201 0.232806 -0.191460
N9    N     N_R   0.000195 0.549243 0.267129 -0.218802
N10   N     N_R   0.450757 0.000197 0.267129 -0.218801
N11   N     N_R   0.999804 0.450756 0.267129 -0.218802
N12   N     N_R   0.500200 0.049278 0.732806 -0.191487
N13   N     N_R   0.000195 0.450757 0.732871 -0.218803
N14   N     N_R   0.499800 0.950722 0.732806 -0.191487
N15   N     N_R   0.999805 0.549243 0.732871 -0.218803
N16   N     N_R   0.000199 0.450722 0.767194 -0.191485
O1    O     O_R   0.547030 0.081100 0.499900 -0.501875
O2    O     O_R   0.418900 0.047030 0.999900 -0.501844
O3    O     O_R   0.952970 0.418900 0.999900 -0.501669
O4    O     O_R   0.581100 0.952970 0.999900 -0.501844
O5    O     O_R   0.047030 0.418900 0.000100 -0.501679
O6    O     O_R   0.418900 0.952970 0.000100 -0.501586
O7    O     O_R   0.952970 0.581100 0.000100 -0.501679
O8    O     O_R   0.581100 0.047030 0.000100 -0.501586
O9    O     O_R   0.547030 0.999700 0.449980 -0.507216
O10   O     O_R   0.000300 0.547030 0.449980 -0.507160
O11   O     O_R   0.452970 0.000300 0.449980 -0.507215
O12   O     O_R   0.918900 0.547030 0.499900 -0.501782
O13   O     O_R   0.999700 0.452970 0.449980 -0.507160
O14   O     O_R   0.547030 0.000300 0.550020 -0.507221
O15   O     O_R   0.000300 0.452970 0.550020 -0.507149
O16   O     O_R   0.452970 0.999700 0.550020 -0.507221
O17   O     O_R   0.999700 0.547030 0.550020 -0.507149
O18   O     O_R   0.047030 0.499700 0.949980 -0.507279
O19   O     O_R   0.500300 0.047030 0.949980 -0.507207
O20   O     O_R   0.952970 0.500300 0.949980 -0.507279
O21   O     O_R   0.499700 0.952970 0.949980 -0.507207
O22   O     O_R   0.047030 0.500300 0.050020 -0.507268
O23   O     O_R   0.452970 0.918900 0.499900 -0.501875
O24   O     O_R   0.500300 0.952970 0.050020 -0.507212
O25   O     O_R   0.952970 0.499700 0.050020 -0.507268
O26   O     O_R   0.499700 0.047030 0.050020 -0.507213
O27   O     O_R   0.419660 0.499650 0.470270 -0.498993
O28   O     O_R   0.500350 0.419660 0.470270 -0.499021
O29   O     O_R   0.580340 0.500350 0.470270 -0.498993
O30   O     O_R   0.499650 0.580340 0.470270 -0.499021
O31   O     O_R   0.419660 0.500350 0.529730 -0.498806
O32   O     O_R   0.500350 0.580340 0.529730 -0.498718
O33   O     O_R   0.580340 0.499650 0.529730 -0.498806
O34   O     O_R   0.081100 0.452970 0.499900 -0.501782
O35   O     O_R   0.499650 0.419660 0.529730 -0.498718
O36   O     O_R   0.919660 0.999650 0.970270 -0.498965
O37   O     O_R   0.000350 0.919660 0.970270 -0.498877
O38   O     O_R   0.080340 0.000350 0.970270 -0.498965
O39   O     O_R   0.999650 0.080340 0.970270 -0.498877
O40   O     O_R   0.919660 0.000350 0.029730 -0.498663
O41   O     O_R   0.000350 0.080340 0.029730 -0.498691
O42   O     O_R   0.080340 0.999650 0.029730 -0.498663
O43   O     O_R   0.999650 0.919660 0.029730 -0.498691
O44   O     O_3   0.428557 0.072540 0.322853 -0.550358
O45   O     O_R   0.547030 0.918900 0.500100 -0.501617
O46   O     O_3   0.927464 0.428553 0.322853 -0.550357
O47   O     O_3   0.571443 0.927461 0.322853 -0.550358
O48   O     O_3   0.072535 0.571447 0.322853 -0.550358
O49   O     O_3   0.434324 0.921990 0.676841 -0.544394
O50   O     O_3   0.927464 0.571447 0.677147 -0.550314
O51   O     O_3   0.565676 0.078009 0.676841 -0.544394
O52   O     O_3   0.072535 0.428553 0.677147 -0.550314
O53   O     O_3   0.934325 0.578010 0.823159 -0.544400
O54   O     O_3   0.427463 0.928554 0.822853 -0.550322
O55   O     O_3   0.065675 0.421990 0.823159 -0.544400
O56   O     O_R   0.918900 0.452970 0.500100 -0.501791
O57   O     O_3   0.572537 0.071446 0.822853 -0.550322
O58   O     O_3   0.934325 0.421989 0.176841 -0.544355
O59   O     O_3   0.421992 0.065678 0.176841 -0.544354
O60   O     O_3   0.065675 0.578009 0.176841 -0.544355
O61   O     O_3   0.578007 0.934322 0.176841 -0.544353
O62   O     O_R   0.452970 0.081100 0.500100 -0.501617
O63   O     O_R   0.081100 0.547030 0.500100 -0.501792
O64   O     O_R   0.047030 0.581100 0.999900 -0.501669

loop_
_geom_bond_atom_site_label_1
_geom_bond_atom_site_label_2
_ccdc_geom_bond_type
Cu9   O19   S    
C57   C145  A    
C63   O59   S    
C133  C151  A    
C28   H56   S    
C68   C146  A    
C23   H43   S    
C24   C140  A    
C80   O35   A    
C87   C130  S    
C91   O17   A    
C29   H58   S    
C74   N16   A    
C45   H102  S    
C49   H110  S    
C132  C150  A    
C18   C133  S    
C70   N6    A    
C40   H87   S    
C113  C122  S    
C158  O53   S    
C1    O1    A    
C36   H78   S    
C42   H94   S    
C44   H100  S    
C97   C105  T    
C59   C60   S    
Cu6   O16   S    
Cu3   O36   S    
C10   C154  A    
C25   H46   S    
C83   O36   A    
C88   O11   A    
C64   H20   S    
C17   H1    S    
C109  C118  S    
C48   H108  S    
C86   O38   A    
C51   H116  S    
C25   C140  S    
Cu11  O24   S    
C81   C124  S    
C101  C110  T    
C37   H79   S    
C29   C144  S    
C56   H128  S    
C103  C112  T    
C43   C44   S    
C82   C125  S    
C83   C131  S    
C37   C38   S    
C159  O54   S    
Cu1   O9    S    
C128  O3    A    
C74   N3    A    
C9    C77   S    
C38   H82   S    
C57   C147  A    
C1    C97   S    
C82   O32   A    
C11   C157  A    
C62   H16   S    
C9    C151  A    
C47   H104  S    
C91   O15   A    
Cu4   O41   S    
C94   O25   A    
Cu7   O34   S    
C32   H68   S    
C27   H51   S    
C81   O29   A    
Cu7   O13   S    
C59   O57   S    
C152  O47   S    
C22   H38   S    
Cu8   O5    S    
C30   H61   S    
C43   H97   S    
N5    N9    A    
C139  O8    A    
C75   N15   A    
C47   H105  S    
C54   H124  S    
C80   C123  S    
C77   N9    A    
C51   H114  S    
C41   O48   S    
C52   H117  S    
C50   O52   S    
C40   H88   S    
C143  C160  A    
C32   C147  S    
C19   C134  S    
C99   C108  T    
C22   C137  S    
Cu11  O6    S    
C59   H8    S    
C8    C152  A    
Cu7   O15   S    
C95   O34   A    
C92   O18   A    
C23   H40   S    
Cu12  O27   S    
C137  C155  A    
Cu1   O1    S    
C18   H85   S    
C20   H2    S    
Cu12  O29   S    
C19   H118  S    
C64   H22   S    
C96   O24   A    
N7    N11   A    
C82   O30   A    
C11   C155  A    
C9    C153  A    
Cu5   Cu7   S    
C76   N12   A    
Cu9   Cu11  S    
Cu4   O43   S    
C56   O55   S    
N8    N10   A    
C73   C98   S    
C120  C129  T    
C106  O64   A    
C16   C70   S    
C39   C40   S    
Cu2   O31   S    
C27   H53   S    
C46   C144  A    
C117  O6    A    
C52   O53   S    
C149  O44   S    
C50   H112  S    
C21   H34   S    
C43   H95   S    
C67   H29   S    
C39   H86   S    
C72   N2    A    
Cu3   O38   S    
C40   H89   S    
C107  C115  S    
C58   H6    S    
C75   N13   A    
Cu5   O10   S    
C39   O47   S    
C66   H26   S    
C102  C117  S    
C114  C123  T    
C55   H127  S    
C77   N11   A    
C31   H66   S    
C116  C125  T    
C50   H113  S    
Cu8   O64   S    
C33   H71   S    
C52   H119  S    
Cu8   O22   S    
C122  C131  T    
C52   C53   S    
C30   C145  S    
C60   H9    S    
C54   C55   S    
C61   H12   S    
C26   H47   S    
C14   C72   S    
C110  C119  S    
C92   O20   A    
C32   H67   S    
C24   C137  A    
C63   H18   S    
C69   H33   S    
C2    C135  A    
C85   O43   A    
C14   C159  A    
C57   C94   S    
C13   C138  A    
C29   H57   S    
C112  C121  S    
Cu4   O40   S    
C11   C75   S    
C6    C147  A    
C154  O49   S    
C4    O58   S    
Cu6   O62   S    
C45   H101  S    
C4    C145  A    
C49   H109  S    
C56   C58   S    
C34   C36   S    
C93   O21   A    
Cu10  O7    S    
Cu11  O21   S    
C34   O44   S    
C6    O60   S    
N3    N15   A    
C104  C113  T    
C93   O19   A    
C100  C109  T    
Cu2   Cu12  S    
C69   H32   S    
C34   H75   S    
C12   C158  A    
C119  C127  T    
C19   H107  S    
C106  O7    A    
C132  C149  A    
C12   C74   S    
C13   C90   S    
C81   O33   A    
C41   C42   S    
C53   H122  S    
C23   C138  S    
C25   H45   S    
C142  C159  A    
C84   O45   A    
C102  C111  T    
C46   C142  A    
C68   C96   S    
C21   H36   S    
C51   H115  S    
C90   O16   A    
C72   N4    A    
C117  O2    A    
C66   H28   S    
C101  C106  S    
C128  O5    A    
Cu5   O12   S    
C61   O58   S    
C1    O62   A    
C55   H125  S    
C78   N10   A    
C89   O13   A    
C26   C141  S    
C121  C130  T    
C157  O52   S    
C35   C92   S    
C60   H11   S    
Cu8   Cu10  S    
C38   H83   S    
C37   O46   S    
C17   C132  S    
Cu9   O26   S    
Cu5   O17   S    
C28   H55   S    
C94   O22   A    
C62   H17   S    
C2    C133  A    
C85   O37   A    
C48   O51   S    
C29   H59   S    
C42   H92   S    
C71   N7    A    
C95   C100  S    
C39   H84   S    
C49   H111  S    
C98   C107  T    
C2    C89   S    
C33   C148  S    
C136  C154  A    
C134  C152  A    
C22   H39   S    
C34   H73   S    
C79   O27   A    
C36   H77   S    
C28   C143  S    
C12   C160  A    
C42   H93   S    
C3    C14   A    
Cu9   O2    S    
C5    O59   S    
C44   H99   S    
Cu3   O39   S    
Cu4   O42   S    
C48   C49   S    
Cu11  O4    S    
Cu9   O8    S    
Cu1   O45   S    
Cu2   O35   S    
C139  O4    A    
C41   H90   S    
C115  C124  T    
C18   H63   S    
C84   C99   S    
C88   C150  S    
C3    C144  A    
C90   O14   A    
C37   H80   S    
C15   C71   S    
C104  C139  S    
C28   H54   S    
C108  C116  S    
C59   H7    S    
C8    C149  A    
Cu10  O25   S    
Cu5   O63   S    
N1    N6    A    
C63   H19   S    
C67   O61   S    
Cu2   O32   S    
Cu8   O18   S    
C141  C158  A    
C38   H81   S    
Cu12  O30   S    
N2    N12   A    
C67   H30   S    
Cu6   O11   S    
C35   C143  A    
C62   H15   S    
C65   H23   S    
C23   H42   S    
C134  C150  A    
C78   N1    A    
C32   H69   S    
Cu3   Cu4   S    
C71   N5    A    
C83   O40   A    
C160  O55   S    
C47   H103  S    
C30   H60   S    
C86   O42   A    
C22   H37   S    
Cu1   O14   S    
C27   C142  S    
Cu7   O56   S    
C45   C47   S    
C95   O63   A    
C5    C16   A    
C55   H126  S    
C6    C15   A    
Cu3   O37   S    
C31   C146  S    
C10   C76   S    
Cu10  O3    S    
C153  O48   S    
Cu10  O20   S    
Cu6   O23   S    
C21   C136  S    
C87   O39   A    
Cu1   Cu6   S    
Cu2   O33   S    
C54   H123  S    
C20   H13   S    
C84   O23   A    
C80   O28   A    
Cu12  O28   S    
C8    C78   S    
C89   O10   A    
C33   H70   S    
C61   C62   S    
C17   H41   S    
C54   O54   S    
C53   H121  S    
C65   O60   S    
C50   C51   S    
C60   H10   S    
C56   H3    S    
C26   H48   S    
C105  C114  S    
C41   H91   S    
C96   O26   A    
C10   C156  A    
N13   N16   A    
C43   O49   S    
C30   H62   S    
C63   C64   S    
C155  O50   S    
C111  C120  S    
C67   C69   S    
C53   H120  S    
C140  C157  A    
C18   H74   S    
C64   H21   S    
C26   H49   S    
C76   N14   A    
C103  C128  S    
C70   N8    A    
C73   O56   A    
C35   C141  A    
C65   H25   S    
C79   C126  S    
C69   H31   S    
C156  O51   S    
C36   H76   S    
C13   C136  A    
C85   C127  S    
C24   C91   S    
C44   H98   S    
C7    C148  A    
C138  C156  A    
C7    C16   A    
C27   H50   S    
C5    C146  A    
C3    O57   S    
C87   O41   A    
C151  O46   S    
C25   H44   S    
C58   H4    S    
C66   H27   S    
C68   C148  A    
C88   O9    A    
C86   C129  S    
N4    N14   A    
C48   H106  S    
C31   H64   S    
C79   O31   A    
C135  C153  A    
C21   H35   S    
C4    C15   A    
C17   H52   S    
C46   C93   S    
C7    O61   S    
C61   H14   S    
C58   H5    S    
C20   C135  S    
C31   H65   S    
C73   O12   A    
C65   C66   S    
C45   O50   S    
C33   H72   S    
C118  C126  T    
C20   H24   S    
C19   H96   S    
