data_mof_unit_49706.cif
_audit_creation_date              2012-12-11T16:56:13-0500
_audit_creation_method            fapswitch 2.2
_symmetry_space_group_name_H-M    P1
_symmetry_Int_Tables_number       1
_space_group_crystal_system       triclinic
_cell_length_a                    6.978937
_cell_length_b                    14.588591
_cell_length_c                    16.142001
_cell_angle_alpha                 90.437048
_cell_angle_beta                  89.932131
_cell_angle_gamma                 90.044887
_cell_volume                      1643.41378951

loop_
_atom_site_label
_atom_site_type_symbol
_atom_type_description
_atom_site_fract_x
_atom_site_fract_y
_atom_site_fract_z
_atom_type_partial_charge
O1    O     O_R   0.505830 0.583360 0.413880 -0.519049
O2    O     O_R   0.175830 0.595460 0.585520 -0.540162
O3    O     O_R   0.005520 0.416640 0.586120 -0.545810
C1    C     C_R   0.344666 0.617344 0.614385 0.699308
O4    O     O_R   0.176120 0.594390 0.414490 -0.540242
O5    O     O_R   0.005810 0.415570 0.413870 -0.542063
C2    C     C_R   0.345234 0.616168 0.385865 0.695157
O6    O     O_R   0.505540 0.584430 0.586130 -0.521098
O7    O     O_3   0.339200 0.441330 0.500000 -0.383453
V1    V     V_3+5 0.064350 0.510880 0.500000 1.445482
O8    O     O_R   0.676100 0.404540 0.414480 -0.540198
C3    C     C_R   0.845160 0.381242 0.386893 0.705706
O9    O     O_R   0.675810 0.405610 0.585510 -0.544953
C4    C     C_R   0.844930 0.383783 0.613612 0.727853
V2    V     V_3+5 0.564340 0.489120 0.500000 1.446570
O10   O     O_3   0.839360 0.558670 0.500000 -0.347083
C5    C     C_2   0.721566 0.208723 0.786022 -0.133521
C6    C     C_2   0.885773 0.181702 0.822581 -0.315733
H1    H     H_    0.586492 0.179923 0.806910 0.136697
H2    H     H_    0.022519 0.209788 0.803781 0.127677
C7    C     C_2   0.709022 0.277233 0.718061 -0.138834
C8    C     C_2   0.861401 0.315518 0.680440 -0.311292
H3    H     H_    0.565829 0.296097 0.698206 0.133250
H4    H     H_    0.005696 0.297295 0.698445 0.128800
C9    C     C_R   0.721773 0.240037 0.195356 0.109743
C10   C     C_R   0.882083 0.183705 0.184770 -0.110539
C11   C     C_R   0.035874 0.196452 0.240066 -0.178669
C12   C     C_R   0.024186 0.260680 0.305635 -0.182739
H5    H     H_    0.141722 0.266177 0.348907 0.131803
C13   C     C_R   0.857156 0.312998 0.318541 -0.118552
C14   C     C_R   0.708964 0.302215 0.261034 0.100138
C15   C     C_3   0.503191 0.280703 0.275261 -0.422256
C16   C     C_3   0.516704 0.213611 0.203151 -0.398524
H6    H     H_    0.408535 0.340084 0.262400 0.172781
H7    H     H_    0.479089 0.246773 0.335837 0.170451
H8    H     H_    0.431492 0.234804 0.148399 0.176254
C17   C     C_R   0.512077 0.684829 0.738898 0.014121
C18   C     C_R   0.353546 0.682077 0.685814 -0.092966
C19   C     C_R   0.203001 0.743106 0.703299 -0.208616
H9    H     H_    0.083100 0.746414 0.661925 0.186601
C20   C     C_R   0.213613 0.805833 0.769969 -0.195926
H10   H     H_    0.098047 0.854234 0.778802 0.131638
C21   C     C_R   0.377629 0.810820 0.820715 -0.085201
C22   C     C_R   0.524639 0.747838 0.804569 0.026798
C23   C     C_3   0.732399 0.766053 0.789689 -0.493169
C24   C     C_3   0.718847 0.697154 0.717848 0.300397
H11   H     H_    0.821680 0.740623 0.841638 0.157379
H12   H     H_    0.760179 0.838658 0.773872 0.155316
H13   H     H_    0.800921 0.633439 0.730270 0.080332
C25   C     C_R   0.512232 0.745057 0.311028 0.019786
C26   C     C_R   0.354639 0.686378 0.319709 -0.087337
C27   C     C_R   0.203640 0.697083 0.263228 -0.202834
H14   H     H_    0.084295 0.650733 0.265498 0.182418
C28   C     C_R   0.213699 0.761640 0.198873 -0.192378
H15   H     H_    0.098954 0.763940 0.154021 0.130431
C29   C     C_R   0.376807 0.817461 0.188595 -0.087557
C30   C     C_R   0.521582 0.810921 0.248422 0.021502
C31   C     C_3   0.731329 0.797817 0.235315 -0.496018
C32   C     C_3   0.719159 0.721624 0.300068 0.303187
H16   H     H_    0.813537 0.858349 0.257834 0.152698
H17   H     H_    0.766655 0.778394 0.170688 0.164372
O11   O     O_R   0.229930 0.912420 0.917160 -0.541207
O12   O     O_R   0.559420 0.902500 0.088780 -0.539621
O13   O     O_R   0.729660 0.081330 0.089380 -0.536576
C33   C     C_R   0.390327 0.881640 0.117975 0.697129
O14   O     O_R   0.559650 0.901420 0.917750 -0.538077
O15   O     O_R   0.729880 0.080250 0.917130 -0.537042
C34   C     C_R   0.390786 0.879918 0.888565 0.696792
O16   O     O_R   0.229700 0.913500 0.089410 -0.540485
O17   O     O_3   0.396250 0.055540 0.003280 -0.371167
V3    V     V_3+5 0.671130 0.986010 0.003260 1.393866
O18   O     O_R   0.059600 0.091310 0.917720 -0.544570
C35   C     C_R   0.890985 0.113130 0.889578 0.741386
O19   O     O_R   0.059370 0.092380 0.088750 -0.543219
C36   C     C_R   0.890678 0.113833 0.117799 0.697213
V4    V     V_3+5 0.171120 0.007820 0.003230 1.387275
O20   O     O_3   0.896130 0.938240 0.003240 -0.371717
H18   H     H_    0.498707 0.140851 0.221752 0.166606
O21   O     O_3   0.751015 0.727411 0.635016 -0.558073
C37   C     C_3   0.692078 0.818113 0.617730 0.089580
H19   H     H_    0.807027 0.866742 0.636601 0.106948
H20   H     H_    0.556294 0.837133 0.649407 0.136965
C38   C     C_3   0.661870 0.826230 0.524370 -0.276501
H21   H     H_    0.799078 0.811301 0.492012 0.185729
H22   H     H_    0.553456 0.775041 0.503796 0.186655
C39   C     C_3   0.593949 0.921827 0.500590 -0.874644
H23   H     H_    0.454423 0.937369 0.530747 0.232860
H24   H     H_    0.575168 0.925120 0.432360 0.233523
H25   H     H_    0.701254 0.974126 0.519678 0.234296
H26   H     H_    0.803146 0.737992 0.356646 0.084891
O22   O     O_3   0.747550 0.628460 0.274863 -0.563829
C40   C     C_3   0.700339 0.608402 0.191343 0.074709
H27   H     H_    0.819879 0.629863 0.150225 0.109816
H28   H     H_    0.564697 0.641688 0.171928 0.144467
C41   C     C_3   0.675056 0.505290 0.181742 -0.282899
H29   H     H_    0.812331 0.470957 0.197245 0.191684
H30   H     H_    0.562381 0.482111 0.225476 0.193655
C42   C     C_3   0.617072 0.478790 0.093637 -0.856794
H31   H     H_    0.478298 0.511217 0.077346 0.229788
H32   H     H_    0.600566 0.403225 0.089012 0.236507
H33   H     H_    0.728717 0.500794 0.048881 0.230365
H34   H     H_    0.160464 0.152990 0.235383 0.135846

loop_
_geom_bond_atom_site_label_1
_geom_bond_atom_site_label_2
_ccdc_geom_bond_type
C9    C14   A    
O14   C34   A    
O12   C33   A    
C20   H10   S    
C41   H29   S    
O18   V4    S    
C41   C42   S    
C19   C20   A    
C23   C24   S    
C22   C23   S    
C24   H13   S    
C10   C11   A    
O19   V4    S    
C38   H21   S    
C25   C32   S    
C12   H5    S    
O5    C3    A    
C24   O21   S    
C39   H24   S    
C16   H18   S    
C31   H16   S    
C29   C33   S    
C16   H8    S    
C29   C30   A    
O16   V4    S    
O13   V3    S    
O8    V2    S    
C14   C15   S    
C21   C34   S    
O17   V3    S    
O15   C35   A    
O7    V1    S    
O15   V3    S    
C1    O6    A    
C31   H17   S    
O9    C4    A    
C20   C21   A    
O11   V4    S    
C37   C38   S    
C27   C28   A    
C5    C6    D    
C23   H11   S    
C18   C19   A    
C28   C29   A    
O19   C36   A    
C26   C27   A    
C15   H7    S    
V4    O20   S    
C37   H20   S    
O22   C40   S    
O4    C2    A    
C39   H23   S    
C37   H19   S    
C25   C26   A    
C31   C32   S    
C40   C41   S    
C5    C7    S    
C32   H26   S    
C15   H6    S    
O2    C1    A    
C21   C22   A    
C17   C18   A    
O14   V3    S    
C40   H28   S    
C10   C36   S    
C32   O22   S    
O3    C4    A    
O1    V2    S    
C38   H22   S    
C1    C18   S    
O6    V2    S    
C42   H32   S    
O9    V2    S    
O17   V4    S    
C8    H4    S    
O2    V1    S    
V3    O20   S    
C27   H14   S    
C23   H12   S    
C28   H15   S    
C3    C13   S    
O1    C2    A    
C25   C30   A    
O12   V3    S    
O18   C35   A    
C39   H25   S    
O5    V1    S    
O8    C3    A    
C41   H30   S    
C6    C35   S    
C42   H33   S    
C11   H34   S    
O11   C34   A    
C15   C16   S    
C4    C8    S    
C17   C22   A    
C7    H3    S    
C9    C10   A    
C2    C26   S    
O4    V1    S    
O3    V1    S    
V1    O10   S    
C30   C31   S    
C13   C14   A    
C33   O16   A    
C12   C13   A    
C40   H27   S    
C5    H1    S    
O13   C36   A    
C6    H2    S    
O7    V2    S    
O21   C37   S    
C19   H9    S    
C38   C39   S    
C42   H31   S    
C11   C12   A    
C17   C24   S    
C7    C8    D    
V2    O10   S    
C9    C16   S    
