data_mof_unit_35127.cif
_audit_creation_date              2012-12-10T18:55:21-0500
_audit_creation_method            fapswitch 2.2
_symmetry_space_group_name_H-M    P1
_symmetry_Int_Tables_number       1
_space_group_crystal_system       triclinic
_cell_length_a                    10.875887
_cell_length_b                    10.047354
_cell_length_c                    28.587636
_cell_angle_alpha                 89.971875
_cell_angle_beta                  85.439194
_cell_angle_gamma                 90.146305
_cell_volume                      3113.9794396

loop_
_atom_site_label
_atom_site_type_symbol
_atom_type_description
_atom_site_fract_x
_atom_site_fract_y
_atom_site_fract_z
_atom_type_partial_charge
C1    C     C_R   0.260298 0.499986 0.500063 0.858376
C2    C     C_R   0.390888 0.477067 0.878973 -0.027634
C3    C     C_R   0.504855 0.496480 0.355827 -0.217321
C4    C     C_R   0.494573 0.496327 0.644146 -0.210058
C5    C     C_R   0.388065 0.483431 0.978764 0.043722
C6    C     C_R   0.609317 0.477660 0.021259 0.054403
C7    C     C_R   0.613938 0.483835 0.971039 -0.011916
C8    C     C_R   0.383664 0.486286 0.029081 -0.010975
C9    C     C_R   0.501885 0.484449 0.950309 0.051748
C10   C     C_R   0.495663 0.482498 0.049803 0.052075
C11   C     C_R   0.281932 0.467855 0.955528 -0.250785
C12   C     C_R   0.739702 0.500007 0.499937 0.858725
C13   C     C_R   0.715134 0.460506 0.044537 -0.256308
C14   C     C_R   0.277525 0.466579 0.908001 0.188713
C15   C     C_R   0.720707 0.482118 0.092179 0.178568
C16   C     C_R   0.501822 0.499635 0.407098 0.985790
C17   C     C_R   0.497865 0.499525 0.592884 0.986892
C18   C     C_R   0.272452 0.494726 0.060341 0.078205
C19   C     C_R   0.725356 0.493337 0.939927 0.078717
C20   C     C_R   0.063463 0.379056 0.500008 -0.215578
C21   C     C_R   0.936541 0.620905 0.499988 -0.193984
C22   C     C_R   0.936574 0.379059 0.500002 -0.212250
C23   C     C_R   0.494597 0.480737 0.100116 -0.118931
C24   C     C_R   0.063425 0.620902 0.499998 -0.190847
C25   C     C_R   0.872654 0.499956 0.499943 -0.007662
C26   C     C_R   0.127347 0.500011 0.500057 -0.007626
C27   C     C_R   0.572573 0.071708 0.528724 0.155114
C28   C     C_R   0.427447 0.928284 0.471270 0.144443
C29   C     C_R   0.427450 0.072002 0.471242 0.154194
C30   C     C_R   0.572534 0.927985 0.528763 0.143012
C31   C     C_R   0.396329 0.531514 0.178232 0.606889
C32   C     C_R   0.602140 0.532373 0.821862 0.608758
C33   C     C_R   0.606141 0.502828 0.169944 0.548245
C34   C     C_R   0.502957 0.482992 0.900092 -0.121186
C35   C     C_R   0.392071 0.494194 0.830238 0.545042
C36   C     C_R   0.618293 0.497221 0.279903 0.071506
C37   C     C_R   0.380730 0.498662 0.720169 0.075985
C38   C     C_R   0.615874 0.491963 0.328889 -0.004074
C39   C     C_R   0.383361 0.492599 0.671077 -0.022197
C40   C     C_R   0.394224 0.496411 0.335124 0.363106
C41   C     C_R   0.605122 0.496046 0.664942 0.362420
C42   C     C_R   0.393704 0.485347 0.285208 0.436091
C43   C     C_R   0.605468 0.485134 0.714865 0.433461
C44   C     C_R   0.505548 0.496827 0.254093 0.057098
C45   C     C_R   0.385165 0.501440 0.129786 -0.141208
C46   C     C_R   0.493499 0.496793 0.745896 0.059400
C47   C     C_3   0.178542 0.473422 0.357546 -0.218822
C48   C     C_3   0.820919 0.472860 0.642832 -0.218961
C49   C     C_3   0.250623 0.338737 0.263265 -0.363683
C50   C     C_3   0.747727 0.338180 0.737058 -0.361894
C51   C     C_R   0.612900 0.502078 0.870386 -0.146323
C52   C     C_R   0.272736 0.509818 0.109336 0.200985
C53   C     C_R   0.725392 0.509842 0.890898 0.204973
C54   C     C_R   0.607024 0.482662 0.121129 -0.037735
H1    H     H_    0.199479 0.432410 0.972490 0.163892
H2    H     H_    0.815021 0.362772 0.645295 0.140269
H3    H     H_    0.864764 0.522038 0.671960 0.223075
H4    H     H_    0.885383 0.493508 0.611779 0.166921
H5    H     H_    0.663478 0.241454 0.555622 0.266544
H6    H     H_    0.706056 0.097523 0.581377 0.153467
H7    H     H_    0.336076 0.758758 0.444521 0.278940
H8    H     H_    0.294206 0.902523 0.418586 0.168099
H9    H     H_    0.332981 0.239970 0.445338 0.262069
H10   H     H_    0.296121 0.097649 0.418140 0.151651
H11   H     H_    0.667459 0.760307 0.554531 0.273932
H12   H     H_    0.797562 0.423447 0.027995 0.146932
H13   H     H_    0.703585 0.902404 0.581898 0.166220
H14   H     H_    0.284847 0.272883 0.290904 0.138502
H15   H     H_    0.287735 0.303295 0.228325 0.187239
H16   H     H_    0.148762 0.329584 0.264955 0.190920
H17   H     H_    0.713372 0.272451 0.709399 0.138559
H18   H     H_    0.710190 0.302651 0.771985 0.187726
H19   H     H_    0.849552 0.328766 0.735468 0.191185
H20   H     H_    0.075335 0.536844 0.120813 0.196294
H21   H     H_    0.145961 0.578861 0.170099 0.262012
H22   H     H_    0.923049 0.571208 0.879373 0.185290
H23   H     H_    0.111185 0.284613 0.499970 0.159215
H24   H     H_    0.852124 0.581345 0.830252 0.257495
H25   H     H_    0.182261 0.491898 0.665997 0.179523
H26   H     H_    0.271936 0.492609 0.612232 0.190365
H27   H     H_    0.817618 0.502067 0.333544 0.189912
H28   H     H_    0.727388 0.490991 0.387789 0.187802
H29   H     H_    0.221652 0.607948 0.731927 0.220610
H30   H     H_    0.202099 0.432508 0.735425 0.191367
H31   H     H_    0.775954 0.611477 0.263748 0.237137
H32   H     H_    0.793146 0.428188 0.256044 0.204768
H33   H     H_    0.091257 0.493540 0.913475 0.174290
H34   H     H_    0.888824 0.715351 0.500018 0.157205
H35   H     H_    0.134226 0.435909 0.860071 0.252134
H36   H     H_    0.913220 0.495002 0.081476 0.151487
H37   H     H_    0.872222 0.500365 0.139339 0.234298
H38   H     H_    0.111881 0.414391 0.037525 0.178404
H39   H     H_    0.141481 0.591293 0.024301 0.205910
H40   H     H_    0.886967 0.414614 0.962292 0.186992
H41   H     H_    0.854554 0.589528 0.977152 0.206366
H42   H     H_    0.888765 0.284506 0.500035 0.160466
H43   H     H_    0.111230 0.715458 0.499970 0.158466
H44   H     H_    0.184295 0.363368 0.355182 0.140704
H45   H     H_    0.134488 0.522353 0.328432 0.223080
H46   H     H_    0.114524 0.494122 0.388669 0.167027
N1    N     N_R   0.501197 0.500990 0.200489 -0.308151
N2    N     N_3   0.841059 0.534038 0.863779 -0.432729
N3    N     N_3   0.269263 0.493808 0.648344 -0.467551
N4    N     N_3   0.730241 0.494690 0.351569 -0.462747
N5    N     N_3   0.258351 0.514941 0.740721 -0.353278
N6    N     N_3   0.741045 0.514345 0.259687 -0.387067
N7    N     N_3   0.155339 0.433154 0.894360 -0.459745
N8    N     N_3   0.842784 0.530561 0.106544 -0.403286
N9    N     N_3   0.153134 0.505876 0.044431 -0.511786
N10   N     N_3   0.844320 0.505693 0.956174 -0.507458
N11   N     N_R   0.497419 0.499887 0.799558 -0.308216
N12   N     N_R   0.500000 0.857200 0.500000 -0.141432
N13   N     N_R   0.500000 0.142800 0.500000 -0.138581
N14   N     N_3   0.643458 0.142822 0.561187 -0.458826
N15   N     N_3   0.356908 0.857127 0.438705 -0.441566
N16   N     N_3   0.359218 0.143711 0.437992 -0.451328
N17   N     N_3   0.640436 0.856217 0.562103 -0.433199
N18   N     N_3   0.157017 0.528409 0.136728 -0.450067
O1    O     O_R   0.316770 0.614620 0.500000 -0.652849
O2    O     O_2   0.679616 0.621407 0.800886 -0.519410
O3    O     O_2   0.285339 0.538821 0.817502 -0.577824
O4    O     O_2   0.708026 0.556615 0.183456 -0.577347
O5    O     O_3   0.292405 0.532710 0.365466 -0.618974
O6    O     O_3   0.707304 0.531880 0.634620 -0.618809
O7    O     O_3   0.280922 0.474002 0.267487 -0.562241
O8    O     O_3   0.718002 0.473617 0.732857 -0.563924
O9    O     O_R   0.683230 0.385380 0.500000 -0.654786
O10   O     O_R   0.683230 0.614620 0.500000 -0.653591
O11   O     O_R   0.316770 0.385380 0.500000 -0.655758
O12   O     O_R   0.500030 0.614650 0.428760 -0.610548
O13   O     O_R   0.499970 0.385350 0.571240 -0.635625
O14   O     O_R   0.499970 0.614650 0.571240 -0.606634
O15   O     O_R   0.500030 0.385350 0.428760 -0.631293
O16   O     O_2   0.317266 0.618485 0.199715 -0.515666
Zn1   Zn    Zn3+2 0.500000 0.653120 0.500000 0.956623
Zn2   Zn    Zn3+2 0.500000 0.346880 0.500000 0.942208

loop_
_geom_bond_atom_site_label_1
_geom_bond_atom_site_label_2
_ccdc_geom_bond_type
C2    C35   A    
C23   C45   A    
C49   H14   S    
C17   O13   A    
H6    N14   S    
O12   Zn1   S    
C18   N9    S    
C35   N11   A    
C18   C52   A    
C48   H3    S    
C12   O9    A    
C28   N12   A    
C5    C9    A    
C34   C51   A    
C47   H44   S    
C20   H23   S    
C33   N1    A    
C31   N1    A    
C41   O6    S    
C28   C29   A    
C32   N11   A    
C24   C26   A    
C5    C11   A    
C1    O11   A    
H5    N14   S    
C11   C14   A    
H38   N9    S    
H24   N2    S    
C4    C41   A    
C47   H45   S    
C48   H2    S    
C1    O1    A    
C50   H18   S    
C38   N4    S    
C42   O7    S    
C3    C38   A    
C22   C25   A    
H7    N15   S    
O15   Zn2   S    
C50   O8    S    
C16   O12   A    
C2    C34   A    
C40   C42   A    
C21   H34   S    
C49   H15   S    
C46   N11   S    
C27   C30   A    
C41   C43   A    
H25   N3    S    
H32   N6    S    
H21   N18   S    
C42   C44   A    
C32   O2    S    
C31   O16   S    
C16   O15   A    
C43   O8    S    
C13   H12   S    
H22   N2    S    
H20   N18   S    
C33   O4    S    
H26   N3    S    
C36   N6    S    
C24   H43   S    
C15   C54   A    
C35   O3    S    
O9    Zn2   S    
O13   Zn2   S    
C50   H19   S    
C45   C52   A    
H10   N16   S    
N13   Zn2   S    
O1    Zn1   S    
C47   H46   S    
H29   N5    S    
C30   N12   A    
C51   C53   A    
C15   N8    S    
C50   H17   S    
C32   C51   A    
C37   N5    S    
C28   N15   S    
O11   Zn2   S    
C47   O5    S    
C4    C39   A    
C53   N2    S    
H35   N7    S    
H30   N5    S    
C48   H4    S    
H13   N17   S    
H9    N16   S    
C27   N13   A    
C14   N7    S    
C29   N16   S    
C20   C22   A    
C3    C40   A    
C7    C19   A    
C49   H16   S    
C13   C15   A    
C1    C26   S    
O10   Zn1   S    
C4    C17   S    
N12   Zn1   S    
H31   N6    S    
C11   H1    S    
C23   C54   A    
C19   N10   S    
C33   C54   A    
C7    C9    A    
C40   O5    S    
C21   C25   A    
H11   N17   S    
C22   H42   S    
H37   N8    S    
H41   N10   S    
C6    C10   A    
C5    C8    A    
C44   N1    S    
C39   N3    S    
C6    C7    A    
C12   O10   A    
C30   N17   S    
C10   C23   A    
C49   O7    S    
C12   C25   S    
C36   C38   A    
H36   N8    S    
H8    N15   S    
C37   C39   A    
C6    C13   A    
C19   C53   A    
C9    C34   A    
C20   C26   A    
O14   Zn1   S    
H40   N10   S    
C2    C14   A    
C43   C46   A    
C8    C18   A    
C36   C44   A    
C27   N14   S    
H33   N7    S    
C8    C10   A    
C48   O6    S    
C31   C45   A    
C21   C24   A    
C29   N13   A    
H28   N4    S    
C37   C46   A    
C3    C16   S    
H39   N9    S    
C17   O14   A    
H27   N4    S    
C52   N18   S    
