data_mof_unit_19745.cif
_audit_creation_date              2012-12-10T17:25:32-0500
_audit_creation_method            fapswitch 2.2
_symmetry_space_group_name_H-M    P1
_symmetry_Int_Tables_number       1
_space_group_crystal_system       triclinic
_cell_length_a                    10.177596
_cell_length_b                    10.71743
_cell_length_c                    23.271428
_cell_angle_alpha                 90.642345
_cell_angle_beta                  82.005004
_cell_angle_gamma                 92.802268
_cell_volume                      2510.68971634

loop_
_atom_site_label
_atom_site_type_symbol
_atom_type_description
_atom_site_fract_x
_atom_site_fract_y
_atom_site_fract_z
_atom_type_partial_charge
C1    C     C_R   0.552891 0.733358 0.499528 0.972355
C2    C     C_R   0.447905 0.267305 0.507424 0.984029
C3    C     C_R   0.374949 0.398828 0.763626 -0.150966
C4    C     C_R   0.394802 0.616235 0.250810 -0.155807
C5    C     C_R   0.394591 0.399764 0.703331 0.077982
C6    C     C_R   0.422134 0.617183 0.307765 0.074864
C7    C     C_R   0.495197 0.482709 0.673976 -0.192757
C8    C     C_R   0.493928 0.518031 0.326652 -0.245700
C9    C     C_R   0.586957 0.547798 0.706060 0.272382
C10   C     C_R   0.552165 0.430702 0.285527 0.265842
C11   C     C_R   0.580293 0.521761 0.765921 0.348931
C12   C     C_R   0.548282 0.451340 0.225973 0.376959
C13   C     C_R   0.464011 0.461826 0.795039 0.098630
C14   C     C_R   0.456014 0.534030 0.210069 0.090763
C15   C     C_2   0.577353 0.866864 0.506830 -0.491273
C16   C     C_2   0.426923 0.134779 0.517999 -0.476039
C17   C     C_2   0.494876 0.935687 0.543412 0.404940
C18   C     C_2   0.514649 0.068985 0.542421 0.361590
C19   C     C_2   0.929113 0.528968 0.493991 0.051110
C20   C     C_2   0.079622 0.516307 0.485483 0.005913
C21   C     C_R   0.500354 0.499300 0.611034 1.026081
C22   C     C_R   0.499105 0.503985 0.389127 0.989803
C23   C     C_R   0.373842 0.420611 0.131275 0.611968
C24   C     C_R   0.424343 0.591140 0.880629 0.561635
C25   C     C_R   0.439710 0.636840 0.118940 0.583435
C26   C     C_R   0.406569 0.368915 0.890650 0.589329
C27   C     C_R   0.421174 0.630351 0.060504 -0.023385
C28   C     C_R   0.383359 0.380551 0.951118 -0.024936
C29   C     C_R   0.392977 0.512690 0.036323 -0.008429
C30   C     C_R   0.395409 0.500165 0.976045 0.005191
C31   C     C_R   0.367658 0.406777 0.071988 -0.025153
C32   C     C_R   0.415174 0.606767 0.940655 -0.017001
C33   C     C_R   0.437416 0.736736 0.025081 -0.124095
C34   C     C_R   0.354918 0.275649 0.987138 -0.137621
C35   C     C_R   0.431550 0.725311 0.965759 -0.142957
C36   C     C_R   0.344151 0.289094 0.047237 -0.112511
H1    H     H_    0.456845 0.828554 0.042863 0.196643
H2    H     H_    0.342890 0.182929 0.969023 0.195710
H3    H     H_    0.446639 0.808682 0.939314 0.199923
H4    H     H_    0.324413 0.206314 0.073921 0.203923
H5    H     H_    0.290490 0.346699 0.786735 0.201036
H6    H     H_    0.328524 0.682690 0.237207 0.192946
H7    H     H_    0.342034 0.087351 0.502125 0.177583
H8    H     H_    0.663050 0.911581 0.480517 0.155011
H9    H     H_    0.125918 0.476258 0.445229 0.167522
H10   H     H_    0.889127 0.609293 0.517370 0.174734
N1    N     N_R   0.420484 0.531490 0.152510 -0.329790
N2    N     N_R   0.430075 0.473594 0.856740 -0.321070
N3    N     N_2   0.842710 0.448880 0.476480 0.059406
N4    N     N_2   0.157290 0.551120 0.523520 0.050344
O1    O     O_R   0.431060 0.692470 0.504730 -0.565582
O2    O     O_R   0.568940 0.307530 0.495270 -0.506585
O3    O     O_R   0.651120 0.659650 0.489640 -0.642276
O4    O     O_R   0.348880 0.340350 0.510360 -0.619318
O5    O     O_R   0.389950 0.516450 0.591390 -0.556597
O6    O     O_R   0.610050 0.483550 0.408610 -0.554464
O7    O     O_R   0.610020 0.483630 0.576300 -0.555562
O8    O     O_R   0.389980 0.516370 0.423700 -0.661356
O9    O     O_2   0.337880 0.323214 0.167274 -0.484307
O10   O     O_2   0.431365 0.692407 0.846155 -0.521159
O11   O     O_2   0.481166 0.746073 0.141383 -0.524246
O12   O     O_2   0.409772 0.254252 0.866097 -0.526244
Zn1   Zn    Zn3+2 0.353060 0.521920 0.510080 1.095660
Zn2   Zn    Zn3+2 0.646940 0.478080 0.489920 1.153144
S1    S     S_3+6 0.078895 0.594656 0.591575 0.170116
O13   O     O_2   0.009019 0.713455 0.586116 -0.261158
O14   O     O_2   0.978302 0.493230 0.614274 -0.269907
O15   O     O_3   0.184897 0.619882 0.639908 -0.458645
H11   H     H_    0.131275 0.655529 0.674450 0.394846
S2    S     S_3+6 0.901332 0.322556 0.435219 0.181582
O16   O     O_2   0.972018 0.368381 0.377756 -0.265536
O17   O     O_2   0.997031 0.255181 0.466145 -0.273437
O18   O     O_3   0.775443 0.222466 0.423799 -0.449628
H12   H     H_    0.818315 0.147901 0.405742 0.374556
C37   C     C_3   0.311506 0.304893 0.672879 -0.327007
C38   C     C_3   0.161916 0.318508 0.688820 -0.656403
H13   H     H_    0.126073 0.274768 0.731502 0.241212
H14   H     H_    0.137321 0.417891 0.691276 0.306166
H15   H     H_    0.108335 0.270563 0.655764 0.274605
H16   H     H_    0.336529 0.306775 0.625209 0.218197
H17   H     H_    0.335226 0.210349 0.686071 0.269664
C39   C     C_3   0.375224 0.726987 0.346002 -0.353996
C40   C     C_3   0.492535 0.812104 0.358762 -0.787906
H18   H     H_    0.456278 0.888509 0.388576 0.241568
H19   H     H_    0.564523 0.759358 0.379292 0.226426
H20   H     H_    0.544372 0.854114 0.317850 0.293172
H21   H     H_    0.309512 0.784930 0.324046 0.220815
H22   H     H_    0.313565 0.696480 0.386802 0.227305
S3    S     S_3+6 0.685918 0.681909 0.678078 0.155477
O19   O     O_2   0.633283 0.793727 0.711643 -0.177042
O20   O     O_2   0.827793 0.670070 0.687100 -0.164120
O21   O     O_3   0.682928 0.708586 0.607483 -0.547357
H23   H     H_    0.745264 0.781590 0.597917 0.407006
S4    S     S_3+6 0.612440 0.288601 0.308100 0.115558
O22   O     O_2   0.596738 0.186725 0.264350 -0.210520
O23   O     O_2   0.756954 0.309290 0.313696 -0.175054
O24   O     O_3   0.527759 0.241556 0.372038 -0.567959
H24   H     H_    0.548977 0.153044 0.375815 0.372844
S5    S     S_3+6 0.719030 0.554272 0.803985 0.117412
O25   O     O_2   0.699176 0.492964 0.862564 -0.314520
O26   O     O_2   0.841064 0.503235 0.769734 -0.208216
O27   O     O_3   0.744429 0.709322 0.812450 -0.439642
H25   H     H_    0.696183 0.729248 0.851145 0.376741
S6    S     S_3+6 0.665101 0.385535 0.170940 0.103947
O28   O     O_2   0.691931 0.472142 0.119826 -0.307717
O29   O     O_2   0.793902 0.366915 0.193634 -0.202656
O30   O     O_3   0.604420 0.247176 0.148769 -0.472062
H26   H     H_    0.668235 0.223293 0.114805 0.385530
S7    S     S_3+6 0.639908 0.130315 0.582291 0.079760
O31   O     O_2   0.763007 0.167073 0.541800 -0.223135
O32   O     O_2   0.593121 0.241178 0.617617 -0.339066
O33   O     O_3   0.676899 0.019761 0.627366 -0.485856
H27   H     H_    0.749731 0.058156 0.646742 0.403650
S8    S     S_3+6 0.363960 0.877511 0.595235 0.111358
O34   O     O_2   0.248269 0.840307 0.564294 -0.249562
O35   O     O_2   0.407633 0.767993 0.626014 -0.213779
O36   O     O_3   0.318168 0.989135 0.644180 -0.544157
H28   H     H_    0.240229 0.951664 0.669469 0.396402

loop_
_geom_bond_atom_site_label_1
_geom_bond_atom_site_label_2
_ccdc_geom_bond_type
C6    C39   S    
C27   C29   A    
O18   H12   S    
C19   C20   S    
C38   H15   S    
S6    O29   D    
S8    O34   D    
C19   H10   S    
C27   C33   A    
C23   O9    S    
C6    C8    A    
C38   H14   S    
C15   H8    S    
C12   S6    S    
S7    O32   D    
O3    Zn2   S    
O4    Zn1   S    
C10   S4    S    
C39   H21   S    
C11   S5    S    
C1    O3    A    
S6    O28   D    
C20   N4    D    
C40   H18   S    
O15   H11   S    
S1    O14   D    
O5    Zn1   S    
C8    C22   S    
O30   H26   S    
C18   S7    S    
S2    O16   D    
C1    C15   S    
S3    O20   D    
C2    C16   S    
C37   H16   S    
C25   N1    A    
C20   H9    S    
C3    C13   A    
C26   N2    A    
C28   C34   A    
N3    Zn2   S    
N4    Zn1   S    
O27   H25   S    
C10   C12   A    
O33   H27   S    
C17   S8    S    
O24   H24   S    
C23   N1    A    
C24   N2    A    
C32   C35   A    
C36   H4    S    
O1    Zn1   S    
C38   H13   S    
C4    C6    A    
O2    Zn2   S    
S7    O33   S    
C9    S3    S    
C5    C7    A    
C37   H17   S    
C22   O6    A    
S4    O24   S    
C7    C21   S    
C33   H1    S    
C23   C31   A    
C5    C37   S    
C35   H3    S    
C37   C38   S    
C24   C32   A    
C21   O7    A    
C29   C30   A    
C9    C11   A    
C19   N3    D    
S5    O25   D    
C24   O10   S    
S1    O15   S    
S5    O27   S    
S2    O18   S    
O6    Zn2   S    
C17   C18   S    
C25   O11   S    
S3    O21   S    
S4    O23   D    
C1    O1    A    
C16   H7    S    
C2    O2    A    
C16   C18   D    
C40   H19   S    
C12   C14   A    
C39   C40   S    
N3    S2    S    
C2    O4    A    
O7    Zn2   S    
C21   O5    A    
O8    Zn1   S    
C15   C17   D    
C3    H5    S    
S5    O26   D    
C34   H2    S    
C3    C5    A    
C22   O8    A    
C13   N2    S    
S8    O35   D    
C14   N1    S    
C25   C27   A    
C26   C28   A    
C28   C30   A    
C26   O12   S    
C29   C31   A    
S7    O31   D    
C30   C32   A    
C11   C13   A    
C4    H6    S    
C39   H22   S    
O21   H23   S    
C33   C35   A    
C34   C36   A    
C4    C14   A    
S4    O22   D    
N4    S1    S    
S8    O36   S    
C7    C9    A    
C40   H20   S    
C8    C10   A    
S1    O13   D    
C31   C36   A    
S2    O17   D    
S3    O19   D    
O36   H28   S    
S6    O30   S    
