data_mof_unit_57968.cif
_audit_creation_date              2012-12-10T18:33:45-0500
_audit_creation_method            fapswitch 2.2
_symmetry_space_group_name_H-M    P1
_symmetry_Int_Tables_number       1
_space_group_crystal_system       triclinic
_cell_length_a                    10.518138
_cell_length_b                    14.891878
_cell_length_c                    15.577446
_cell_angle_alpha                 80.905436
_cell_angle_beta                  90.695569
_cell_angle_gamma                 103.143576
_cell_volume                      2345.46265545

loop_
_atom_site_label
_atom_site_type_symbol
_atom_type_description
_atom_site_fract_x
_atom_site_fract_y
_atom_site_fract_z
_atom_type_partial_charge
C1    C     C_R   0.480531 0.441200 0.661959 0.868154
C2    C     C_R   0.499671 0.485568 0.045383 0.034022
C3    C     C_R   0.456563 0.389207 0.078752 -0.225267
C4    C     C_R   0.553216 0.609740 0.921425 -0.228716
C5    C     C_R   0.435005 0.320750 0.024572 0.135212
C6    C     C_R   0.574323 0.678319 0.975293 0.140925
C7    C     C_R   0.674497 0.825802 0.657316 -0.331057
C8    C     C_R   0.451740 0.201775 0.321153 -0.329698
C9    C     C_R   0.641180 0.740344 0.627470 -0.025894
C10   C     C_R   0.412851 0.268494 0.360391 -0.012824
C11   C     C_R   0.546120 0.808338 0.501038 0.212302
C12   C     C_R   0.520081 0.558827 0.338043 0.869416
C13   C     C_R   0.458340 0.195070 0.500578 0.244204
C14   C     C_R   0.596046 0.899232 0.523274 0.001745
C15   C     C_R   0.514796 0.131040 0.462662 0.006478
C16   C     C_R   0.741424 0.499536 0.502246 0.894349
C17   C     C_R   0.257929 0.499099 0.500219 0.888350
C18   C     C_R   0.647477 0.905088 0.606828 0.141250
C19   C     C_R   0.506606 0.134787 0.371069 0.145637
C20   C     C_R   0.582966 0.983371 0.470445 0.102005
C21   C     C_R   0.571377 0.060302 0.510357 0.066925
C22   C     C_R   0.626300 0.065712 0.592813 -0.230047
C23   C     C_R   0.472312 0.468976 0.811347 -0.262499
C24   C     C_R   0.589268 0.995338 0.379304 -0.225655
C25   C     C_R   0.668454 0.989865 0.639160 -0.207819
C26   C     C_R   0.551667 0.070612 0.330013 -0.224650
C27   C     C_3   0.935418 0.427128 0.561144 0.227417
C28   C     C_3   0.061703 0.567487 0.444845 0.222389
C29   C     C_3   0.048551 0.505318 0.583828 -0.319406
C30   C     C_3   0.949228 0.489019 0.422415 -0.324858
C31   C     C_3   0.122214 0.495601 0.501596 -0.182221
C32   C     C_3   0.875807 0.499833 0.504206 -0.186454
C33   C     C_3   0.009339 0.416812 0.480874 0.253436
C34   C     C_R   0.532739 0.530922 0.189031 -0.263876
C35   C     C_3   0.988605 0.577993 0.525363 0.254929
C36   C     C_R   0.472216 0.405600 0.754999 -0.107148
C37   C     C_R   0.531033 0.594479 0.244973 -0.103143
C38   C     C_R   0.485305 0.285562 0.877932 0.167682
C39   C     C_R   0.521361 0.714338 0.121171 0.168894
C40   C     C_R   0.480230 0.314505 0.787982 -0.204743
C41   C     C_R   0.524751 0.685860 0.211401 -0.203342
C42   C     C_3   0.402401 0.173532 0.592650 -0.394961
C43   C     C_3   0.304324 0.079128 0.610465 -0.901561
C44   C     C_3   0.444043 0.793207 0.431497 -0.373794
C45   C     C_R   0.484605 0.444458 0.900338 0.054531
C46   C     C_3   0.330648 0.840276 0.442822 -0.889184
C47   C     C_3   0.935526 0.293704 0.674440 -0.794535
C48   C     C_3   0.054643 0.695585 0.327697 -0.794678
C49   C     C_3   0.902300 0.266744 0.439569 -0.754633
C50   C     C_3   0.090214 0.712200 0.593803 -0.808601
C51   C     C_3   0.357232 0.222930 0.061261 -0.442986
C52   C     C_3   0.228344 0.223470 0.105680 -0.857929
C53   C     C_3   0.654631 0.775008 0.937888 -0.443945
C54   C     C_3   0.790143 0.771351 0.905876 -0.871062
C55   C     C_3   0.526251 0.194227 0.908477 -0.445066
C56   C     C_R   0.522716 0.555084 0.099805 0.053647
C57   C     C_3   0.654760 0.190922 0.865231 -0.874634
C58   C     C_3   0.479409 0.805028 0.089528 -0.451879
C59   C     C_3   0.349157 0.807234 0.131127 -0.868656
C60   C     C_R   0.469474 0.348476 0.935248 0.055534
C61   C     C_R   0.538277 0.651089 0.064463 0.059334
C62   C     C_R   0.508868 0.513647 0.954900 0.033011
H1    H     H_    0.091532 0.510816 0.648769 0.162595
H2    H     H_    0.460373 0.537976 0.784860 0.164230
H3    H     H_    0.516065 0.733456 0.255432 0.150216
H4    H     H_    0.489122 0.267548 0.743673 0.153406
H5    H     H_    0.430982 0.365870 0.146663 0.147673
H6    H     H_    0.580498 0.632801 0.853584 0.151364
H7    H     H_    0.711596 0.996132 0.702099 0.145512
H8    H     H_    0.552222 0.076243 0.259769 0.144368
H9    H     H_    0.227987 0.075117 0.560377 0.264950
H10   H     H_    0.352767 0.020290 0.611010 0.271856
H11   H     H_    0.256233 0.071132 0.675181 0.251119
H12   H     H_    0.906323 0.482454 0.357595 0.159429
H13   H     H_    0.478749 0.177700 0.641629 0.181759
H14   H     H_    0.346446 0.226061 0.602096 0.243453
H15   H     H_    0.319940 0.850608 0.511188 0.258483
H16   H     H_    0.237683 0.797619 0.424060 0.290413
H17   H     H_    0.344490 0.908799 0.400145 0.269285
H18   H     H_    0.487616 0.815872 0.365383 0.168218
H19   H     H_    0.401703 0.718641 0.434074 0.266892
H20   H     H_    0.796211 0.373528 0.660925 0.215877
H21   H     H_    0.868357 0.233372 0.713917 0.233545
H22   H     H_    0.999857 0.334202 0.718822 0.234274
H23   H     H_    0.379288 0.323883 0.319980 0.141567
H24   H     H_    0.995931 0.266264 0.631523 0.273912
H25   H     H_    0.199456 0.620628 0.344336 0.213816
H26   H     H_    0.993477 0.723954 0.369336 0.269527
H27   H     H_    0.119009 0.755107 0.285330 0.238047
H28   H     H_    0.990929 0.651351 0.285774 0.234763
H29   H     H_    0.092247 0.339077 0.407400 0.234312
H30   H     H_    0.922688 0.200247 0.426217 0.234870
H31   H     H_    0.854908 0.298332 0.382066 0.233506
H32   H     H_    0.834303 0.250322 0.496697 0.272962
H33   H     H_    0.892840 0.663782 0.581778 0.245119
H34   H     H_    0.665354 0.679767 0.665973 0.143495
H35   H     H_    0.091949 0.787741 0.587713 0.246173
H36   H     H_    0.182478 0.703605 0.565967 0.280434
H37   H     H_    0.083551 0.681561 0.663891 0.228169
H38   H     H_    0.245321 0.252010 0.167493 0.246671
H39   H     H_    0.171917 0.265392 0.061718 0.266277
H40   H     H_    0.168965 0.150807 0.121419 0.246964
H41   H     H_    0.328821 0.180268 0.009031 0.211567
H42   H     H_    0.417326 0.187221 0.107907 0.192396
H43   H     H_    0.842576 0.737885 0.959586 0.268268
H44   H     H_    0.783788 0.732038 0.850548 0.248893
H45   H     H_    0.719901 0.829717 0.719756 0.158707
H46   H     H_    0.847791 0.843479 0.883476 0.243229
H47   H     H_    0.601926 0.806876 0.883345 0.203902
H48   H     H_    0.673462 0.822179 0.987056 0.210174
H49   H     H_    0.641969 0.185565 0.795260 0.247481
H50   H     H_    0.731381 0.254245 0.872136 0.268138
H51   H     H_    0.688220 0.128432 0.896970 0.245781
H52   H     H_    0.543616 0.184547 0.979232 0.209540
H53   H     H_    0.448237 0.134745 0.894190 0.204246
H54   H     H_    0.273618 0.743826 0.122815 0.266964
H55   H     H_    0.359304 0.811750 0.201414 0.254236
H56   H     H_    0.444155 0.205063 0.251575 0.151159
H57   H     H_    0.315843 0.869705 0.099186 0.246773
H58   H     H_    0.555968 0.865057 0.104403 0.201185
H59   H     H_    0.463858 0.814284 0.018486 0.212207
H60   H     H_    0.646120 0.130024 0.619165 0.151225
H61   H     H_    0.624606 0.947269 0.345864 0.144578
H62   H     H_    0.544517 0.462096 0.216137 0.160858
N1    N     N_R   0.574200 0.731700 0.552740 -0.119498
N2    N     N_R   0.425800 0.268300 0.447260 -0.125944
N3    N     N_2   0.860149 0.351893 0.623510 -0.304947
N4    N     N_2   0.133901 0.641980 0.380681 -0.307414
N5    N     N_2   0.023409 0.329511 0.456527 -0.294081
N6    N     N_2   0.978554 0.666421 0.549338 -0.289574
O1    O     O_R   0.462600 0.383110 0.605620 -0.637139
O2    O     O_R   0.537400 0.616890 0.394380 -0.635598
O3    O     O_R   0.510210 0.531900 0.639510 -0.627841
O4    O     O_R   0.489790 0.468100 0.360490 -0.631603
O5    O     O_R   0.662240 0.425610 0.483080 -0.599614
O6    O     O_R   0.337760 0.574390 0.516920 -0.626536
O7    O     O_R   0.709860 0.574400 0.516970 -0.633191
O8    O     O_R   0.290140 0.425600 0.483030 -0.622495
Zn1   Zn    Zn3+2 0.468210 0.400660 0.477370 0.923859
Zn2   Zn    Zn3+2 0.531790 0.599340 0.522630 0.916256

loop_
_geom_bond_atom_site_label_1
_geom_bond_atom_site_label_2
_ccdc_geom_bond_type
C53   H48   S    
C43   H11   S    
C38   C40   A    
C29   H1    S    
C10   H23   S    
C34   C56   A    
C43   H10   S    
C23   C45   A    
C27   C29   S    
C34   C37   A    
C14   C18   A    
C16   O7    A    
O6    Zn2   S    
C48   H28   S    
C8    H56   S    
C45   C60   A    
C53   C54   S    
C27   C33   S    
C15   C19   A    
C52   H40   S    
C50   H37   S    
C6    C61   A    
C11   N1    A    
C24   C26   A    
C46   H17   S    
C30   H12   S    
C11   C14   A    
C57   H50   S    
C51   H41   S    
C4    C62   A    
C45   C62   A    
C12   C37   S    
C19   C26   A    
H25   N4    S    
C50   N6    S    
C27   N3    S    
C38   C55   S    
C20   C24   A    
C28   C35   S    
C59   H54   S    
C58   H59   S    
C22   C25   A    
H33   N6    S    
C59   H57   S    
C48   H26   S    
C17   O8    A    
C47   H21   S    
C49   H32   S    
C5    C60   A    
C59   H55   S    
C40   H4    S    
C21   C22   A    
C18   C25   A    
C1    O3    A    
C13   C42   S    
C44   C46   S    
C22   H60   S    
N1    Zn2   S    
O2    Zn2   S    
C39   C61   A    
O7    Zn2   S    
N2    Zn1   S    
C50   H36   S    
C8    C19   A    
C31   C33   S    
C54   H44   S    
C51   C52   S    
C32   C35   S    
C14   C20   A    
C44   H18   S    
C39   C41   A    
C44   H19   S    
O4    Zn1   S    
C4    H6    S    
C57   H51   S    
C1    O1    A    
C58   C59   S    
C39   C58   S    
C49   N5    S    
C52   H38   S    
C24   H61   S    
C9    N1    A    
O5    Zn1   S    
C47   H24   S    
C48   N4    S    
C9    H34   S    
C36   C40   A    
C7    C18   A    
C17   O6    A    
C58   H58   S    
C42   H13   S    
C11   C44   S    
C47   H22   S    
C35   N6    S    
C52   H39   S    
C38   C60   A    
C13   N2    A    
C4    C6    A    
C23   H2    S    
C48   H27   S    
C13   C15   A    
C17   C31   S    
C7    H45   S    
C25   H7    S    
C42   C43   S    
C6    C53   S    
C34   H62   S    
C46   H16   S    
C33   N5    S    
C7    C9    A    
C50   H35   S    
C43   H9    S    
C12   O2    A    
C30   C33   S    
C27   C32   S    
C28   C31   S    
C3    H5    S    
C3    C5    A    
C46   H15   S    
C41   H3    S    
C47   N3    S    
H29   N5    S    
C55   H52   S    
C16   C32   S    
C29   C35   S    
C42   H14   S    
C54   H46   S    
C55   C57   S    
C2    C3    A    
C51   H42   S    
C29   C31   S    
C2    C56   A    
C30   C32   S    
C12   O4    A    
C57   H49   S    
C55   H53   S    
C54   H43   S    
C26   H8    S    
C28   C30   S    
C37   C41   A    
H20   N3    S    
O1    Zn1   S    
O8    Zn1   S    
C2    C62   A    
C15   C21   A    
C20   C21   A    
O3    Zn2   S    
C8    C10   A    
C23   C36   A    
C56   C61   A    
C5    C51   S    
C53   H47   S    
C49   H30   S    
C49   H31   S    
C10   N2    A    
C16   O5    A    
C28   N4    S    
C1    C36   S    
