data_mof_unit_64575.cif
_audit_creation_date              2012-12-10T17:50:03-0500
_audit_creation_method            fapswitch 2.2
_symmetry_space_group_name_H-M    P1
_symmetry_Int_Tables_number       1
_space_group_crystal_system       triclinic
_cell_length_a                    27.792205
_cell_length_b                    36.179873
_cell_length_c                    27.792466
_cell_angle_alpha                 90.000123
_cell_angle_beta                  89.999881
_cell_angle_gamma                 90.00087
_cell_volume                      27945.8372553

loop_
_atom_site_label
_atom_site_type_symbol
_atom_type_description
_atom_site_fract_x
_atom_site_fract_y
_atom_site_fract_z
_atom_type_partial_charge
C1    C     C_R   0.499958 0.650316 0.250031 0.506982
C2    C     C_R   0.999958 0.650316 0.249967 0.506962
C3    C     C_1   0.499982 0.249990 0.431113 0.008073
C4    C     C_1   0.499982 0.250010 0.931113 0.008037
C5    C     C_1   0.499982 0.250010 0.068887 0.008040
C6    C     C_1   0.499982 0.749990 0.068887 0.008071
C7    C     C_1   0.499982 0.749990 0.931113 0.008069
C8    C     C_1   0.999982 0.750009 0.931113 0.008046
C9    C     C_1   0.999982 0.750009 0.068887 0.008047
C10   C     C_1   0.999982 0.249990 0.068887 0.008078
C11   C     C_1   0.999982 0.249990 0.931113 0.008075
C12   C     C_1   0.999982 0.250010 0.431113 0.008035
C13   C     C_R   0.999957 0.349684 0.249964 0.506860
C14   C     C_1   0.999982 0.250009 0.568887 0.008039
C15   C     C_1   0.999982 0.749990 0.568887 0.008067
C16   C     C_1   0.999982 0.749990 0.431113 0.008065
C17   C     C_1   0.499979 0.750015 0.474551 -0.037091
C18   C     C_1   0.499980 0.750014 0.525449 -0.037090
C19   C     C_1   0.499980 0.249985 0.525449 -0.037049
C20   C     C_1   0.499980 0.249985 0.474551 -0.037050
C21   C     C_1   0.499980 0.250015 0.974551 -0.037097
C22   C     C_1   0.499980 0.250015 0.025449 -0.037096
C23   C     C_1   0.499980 0.749985 0.025449 -0.037055
C24   C     C_R   0.999956 0.349684 0.750037 0.506841
C25   C     C_1   0.499980 0.749985 0.974551 -0.037055
C26   C     C_1   0.999979 0.750015 0.974551 -0.037088
C27   C     C_1   0.999979 0.750014 0.025449 -0.037088
C28   C     C_1   0.999980 0.249985 0.025449 -0.037048
C29   C     C_1   0.999980 0.249985 0.974551 -0.037049
C30   C     C_1   0.999980 0.250015 0.474551 -0.037099
C31   C     C_1   0.999980 0.250015 0.525449 -0.037098
C32   C     C_1   0.999980 0.749985 0.525449 -0.037060
C33   C     C_1   0.999980 0.749985 0.474551 -0.037061
C34   C     C_R   0.499988 0.750000 0.120623 0.505822
C35   C     C_R   0.999961 0.150317 0.250028 0.507006
C36   C     C_R   0.499987 0.750000 0.879377 0.505792
C37   C     C_R   0.499988 0.250000 0.879377 0.505687
C38   C     C_R   0.499988 0.250000 0.120623 0.505718
C39   C     C_R   0.499987 0.250000 0.620623 0.505837
C40   C     C_R   0.499987 0.250000 0.379377 0.505795
C41   C     C_R   0.499987 0.750000 0.379377 0.505690
C42   C     C_R   0.499987 0.750000 0.620623 0.505732
C43   C     C_R   0.999988 0.750000 0.620623 0.505794
C44   C     C_R   0.999988 0.750000 0.379377 0.505787
C45   C     C_R   0.999987 0.250000 0.379377 0.505682
C46   C     C_R   0.999957 0.150316 0.749966 0.506966
C47   C     C_R   0.999988 0.249999 0.620623 0.505690
C48   C     C_R   0.999988 0.250000 0.120623 0.505841
C49   C     C_R   0.999988 0.250000 0.879377 0.505807
C50   C     C_R   0.999987 0.750000 0.879377 0.505703
C51   C     C_R   0.999988 0.750000 0.120623 0.505737
C52   C     C_R   0.370619 0.750000 0.250000 0.506416
C53   C     C_R   0.370619 0.750000 0.750000 0.506408
C54   C     C_R   0.370619 0.250000 0.750000 0.506399
C55   C     C_R   0.370619 0.250000 0.250000 0.506420
C56   C     C_R   0.870619 0.750000 0.750000 0.506435
C57   C     C_R   0.999957 0.849684 0.749964 0.506862
C58   C     C_R   0.870618 0.750000 0.250000 0.506416
C59   C     C_R   0.870618 0.250000 0.250000 0.506406
C60   C     C_R   0.870618 0.250000 0.750000 0.506432
C61   C     C_R   0.629374 0.750000 0.250000 0.505555
C62   C     C_R   0.629374 0.750000 0.750000 0.505577
C63   C     C_R   0.629374 0.250000 0.750000 0.505574
C64   C     C_R   0.629374 0.250000 0.250000 0.505557
C65   C     C_R   0.129374 0.750000 0.750000 0.505533
C66   C     C_R   0.129375 0.750000 0.250000 0.505568
C67   C     C_R   0.129375 0.250000 0.250000 0.505566
C68   C     C_R   0.999961 0.849683 0.250030 0.506926
C69   C     C_R   0.129375 0.250000 0.750000 0.505534
C70   C     C_1   0.681110 0.750000 0.250000 0.008469
C71   C     C_1   0.681110 0.750000 0.750000 0.008510
C72   C     C_1   0.681110 0.250000 0.750000 0.008504
C73   C     C_1   0.681110 0.250000 0.250000 0.008472
C74   C     C_1   0.181110 0.750000 0.750000 0.008441
C75   C     C_1   0.181110 0.750000 0.250000 0.008486
C76   C     C_1   0.181110 0.250000 0.250000 0.008481
C77   C     C_1   0.181110 0.250000 0.750000 0.008440
C78   C     C_1   0.724548 0.750000 0.250000 -0.036750
C79   C     C_3   0.495981 0.977648 0.310148 0.090277
C80   C     C_1   0.724548 0.750000 0.750000 -0.036700
C81   C     C_1   0.724548 0.250000 0.750000 -0.036704
C82   C     C_1   0.724548 0.250000 0.250000 -0.036748
C83   C     C_1   0.224548 0.750000 0.750000 -0.036778
C84   C     C_1   0.224548 0.750000 0.250000 -0.036732
C85   C     C_1   0.224548 0.250000 0.250000 -0.036736
C86   C     C_1   0.224548 0.250000 0.750000 -0.036780
C87   C     C_1   0.775445 0.750000 0.250000 -0.036873
C88   C     C_1   0.775445 0.750000 0.750000 -0.036812
C89   C     C_1   0.775445 0.250000 0.750000 -0.036814
C90   C     C_3   0.489889 0.977649 0.690746 0.090294
C91   C     C_1   0.775445 0.249999 0.250000 -0.036872
C92   C     C_1   0.275445 0.750000 0.750000 -0.036897
C93   C     C_1   0.275445 0.749999 0.250000 -0.036853
C94   C     C_1   0.275445 0.250000 0.250000 -0.036854
C95   C     C_1   0.275445 0.249999 0.750000 -0.036898
C96   C     C_1   0.818883 0.750000 0.250000 0.008196
C97   C     C_1   0.818883 0.750000 0.750000 0.008259
C98   C     C_1   0.818883 0.249999 0.750000 0.008258
C99   C     C_1   0.818883 0.249999 0.250000 0.008195
C100  C     C_1   0.318883 0.750000 0.750000 0.008178
C101  C     C_3   0.483058 0.022353 0.692431 0.090636
C102  C     C_1   0.318883 0.749999 0.250000 0.008216
C103  C     C_1   0.318883 0.249999 0.250000 0.008216
C104  C     C_1   0.318883 0.249999 0.750000 0.008176
C105  C     C_3   0.547058 0.978694 0.232650 -0.231290
C106  C     C_3   0.548546 0.978695 0.762676 -0.231283
C107  C     C_3   0.550067 0.021261 0.757180 -0.231315
C108  C     C_3   0.549130 0.021260 0.237962 -0.231253
C109  C     C_3   0.547092 0.478694 0.732745 -0.231285
C110  C     C_3   0.547805 0.478696 0.265230 -0.231281
C111  C     C_3   0.549623 0.521262 0.259829 -0.231276
C112  C     C_R   0.499958 0.650316 0.749967 0.506964
C113  C     C_3   0.489024 0.022354 0.309164 0.090634
C114  C     C_3   0.549153 0.521260 0.738061 -0.231249
C115  C     C_3   0.047040 0.978694 0.732603 -0.231289
C116  C     C_3   0.048545 0.978695 0.262682 -0.231283
C117  C     C_3   0.050067 0.021261 0.257186 -0.231315
C118  C     C_3   0.049118 0.021260 0.737913 -0.231252
C119  C     C_3   0.047100 0.478694 0.232767 -0.231286
C120  C     C_3   0.046527 0.478695 0.768690 -0.231293
C121  C     C_3   0.048751 0.521262 0.763445 -0.231228
C122  C     C_3   0.049159 0.521260 0.238084 -0.231251
C123  C     C_3   0.454039 0.957333 0.336743 -0.382950
C124  C     C_3   0.495861 0.477648 0.810140 0.090273
C125  C     C_3   0.445475 0.957331 0.668527 -0.382985
C126  C     C_3   0.429732 0.034411 0.683225 -0.383960
C127  C     C_3   0.436908 0.034418 0.323728 -0.383914
C128  C     C_3   0.453866 0.457333 0.836652 -0.382954
C129  C     C_3   0.450064 0.457329 0.165561 -0.382953
C130  C     C_3   0.433529 0.534409 0.179376 -0.383929
C131  C     C_3   0.436760 0.534418 0.823601 -0.383921
C132  C     C_3   0.954128 0.957333 0.836791 -0.382949
C133  C     C_3   0.945486 0.957331 0.168519 -0.382983
C134  C     C_3   0.929741 0.034411 0.183215 -0.383959
C135  C     C_3   0.493188 0.477650 0.190187 0.090285
C136  C     C_3   0.936980 0.034418 0.823790 -0.383913
C137  C     C_3   0.953823 0.457333 0.336628 -0.382943
C138  C     C_3   0.956661 0.457331 0.661867 -0.382942
C139  C     C_3   0.939129 0.534413 0.674378 -0.383911
C140  C     C_3   0.936722 0.534418 0.323568 -0.383908
C141  C     C_3   0.542048 0.965583 0.338533 -0.385544
C142  C     C_3   0.532850 0.965590 0.657845 -0.385541
C143  C     C_3   0.512088 0.042676 0.652146 -0.385030
C144  C     C_3   0.521991 0.042674 0.346299 -0.385062
C145  C     C_3   0.541870 0.465583 0.838617 -0.385545
C146  C     C_3   0.486271 0.522354 0.191497 0.090643
C147  C     C_3   0.537894 0.465595 0.159696 -0.385549
C148  C     C_3   0.517468 0.542681 0.152868 -0.385054
C149  C     C_3   0.521797 0.542674 0.846343 -0.385066
C150  C     C_3   0.042138 0.965584 0.838490 -0.385545
C151  C     C_3   0.032863 0.965590 0.157849 -0.385541
C152  C     C_3   0.012102 0.042676 0.152147 -0.385029
C153  C     C_3   0.022086 0.042674 0.846277 -0.385062
C154  C     C_3   0.041826 0.465583 0.338636 -0.385562
C155  C     C_3   0.044682 0.465591 0.662708 -0.385560
C156  C     C_3   0.024844 0.542680 0.654348 -0.385084
C157  C     C_3   0.488905 0.522354 0.809142 0.090640
C158  C     C_3   0.021749 0.542674 0.346353 -0.385082
C159  C     C_3   0.996042 0.977648 0.810152 0.090277
C160  C     C_3   0.989897 0.977649 0.190744 0.090294
C161  C     C_3   0.983067 0.022353 0.192429 0.090636
C162  C     C_3   0.989083 0.022354 0.809175 0.090635
C163  C     C_3   0.995830 0.477648 0.310137 0.090281
C164  C     C_R   0.499957 0.349684 0.749964 0.506861
C165  C     C_3   0.997785 0.477649 0.689705 0.090276
C166  C     C_3   0.990792 0.522355 0.690484 0.090641
C167  C     C_3   0.988875 0.522354 0.309136 0.090640
C168  C     C_1   0.000402 0.610710 0.250817 -0.013147
C169  C     C_1   0.000429 0.610710 0.749165 -0.013116
C170  C     C_1   0.000470 0.389289 0.749145 -0.013092
C171  C     C_1   0.000436 0.389289 0.250833 -0.013124
C172  C     C_1   0.000405 0.110710 0.750817 -0.013149
C173  C     C_1   0.000301 0.110711 0.249256 -0.013225
C174  C     C_1   0.000339 0.889289 0.249235 -0.013205
C175  C     C_R   0.499959 0.349684 0.250033 0.506890
C176  C     C_1   0.000439 0.889289 0.750833 -0.013125
C177  C     C_1   0.500402 0.610710 0.750818 -0.013142
C178  C     C_1   0.500355 0.610710 0.249219 -0.013179
C179  C     C_1   0.500397 0.389289 0.249196 -0.013157
C180  C     C_1   0.500436 0.389289 0.750834 -0.013120
C181  C     C_1   0.500404 0.110710 0.250818 -0.013150
C182  C     C_1   0.500300 0.110711 0.749256 -0.013225
C183  C     C_1   0.500338 0.889289 0.749235 -0.013205
C184  C     C_1   0.500438 0.889289 0.250833 -0.013126
C185  C     C_3   0.500212 0.963364 0.255925 0.082062
C186  C     C_R   0.499961 0.150317 0.750028 0.507006
C187  C     C_3   0.499586 0.963365 0.744262 0.082086
C188  C     C_3   0.499311 0.036635 0.744336 0.082042
C189  C     C_3   0.499936 0.036635 0.255881 0.082014
C190  C     C_3   0.500200 0.463364 0.755927 0.082053
C191  C     C_3   0.499931 0.463365 0.244154 0.082069
C192  C     C_3   0.499648 0.536635 0.244216 0.082021
C193  C     C_3   0.499924 0.536635 0.755881 0.082005
C194  C     C_3   0.000218 0.963364 0.755926 0.082061
C195  C     C_3   0.999588 0.963365 0.244261 0.082086
C196  C     C_3   0.999312 0.036634 0.244335 0.082042
C197  C     C_R   0.499957 0.150316 0.249967 0.506965
C198  C     C_3   0.999942 0.036635 0.755881 0.082014
C199  C     C_3   0.000197 0.463364 0.255925 0.082057
C200  C     C_3   0.000398 0.463364 0.744028 0.082043
C201  C     C_3   0.000112 0.536635 0.744069 0.081994
C202  C     C_3   0.999920 0.536635 0.255880 0.082009
C203  C     C_3   0.961421 0.521297 0.220481 -0.232264
C204  C     C_3   0.960491 0.521294 0.778205 -0.232292
C205  C     C_3   0.957171 0.478742 0.773558 -0.231684
C206  C     C_3   0.957948 0.478745 0.225015 -0.231696
C207  C     C_3   0.961318 0.021296 0.720617 -0.232264
C208  C     C_R   0.499957 0.849684 0.249964 0.506862
C209  C     C_3   0.964493 0.021296 0.283360 -0.232175
C210  C     C_3   0.960591 0.978744 0.279187 -0.231719
C211  C     C_3   0.957860 0.978746 0.725164 -0.231692
C212  C     C_3   0.461406 0.521296 0.720501 -0.232265
C213  C     C_3   0.462743 0.521293 0.281273 -0.232229
C214  C     C_3   0.459078 0.478742 0.276891 -0.231708
C215  C     C_3   0.457935 0.478745 0.725038 -0.231696
C216  C     C_3   0.461348 0.021297 0.220578 -0.232263
C217  C     C_3   0.464497 0.021296 0.783365 -0.232175
C218  C     C_3   0.460594 0.978744 0.779193 -0.231719
C219  C     C_R   0.499961 0.849683 0.750030 0.506926
C220  C     C_3   0.457886 0.978746 0.225121 -0.231692
C221  C     C_1   0.000399 0.577427 0.252571 -0.073848
C222  C     C_1   0.000482 0.577428 0.747396 -0.073804
C223  C     C_1   0.000594 0.422571 0.747366 -0.073636
C224  C     C_1   0.000500 0.422572 0.252597 -0.073684
C225  C     C_1   0.000408 0.077427 0.752571 -0.073845
C226  C     C_1   0.000116 0.077426 0.247567 -0.073967
C227  C     C_1   0.000221 0.922573 0.247528 -0.073819
C228  C     C_1   0.000509 0.922572 0.752597 -0.073681
C229  C     C_1   0.500401 0.577427 0.752571 -0.073844
C230  C     C_R   0.999955 0.650316 0.750036 0.506950
C231  C     C_1   0.500270 0.577427 0.247494 -0.073899
C232  C     C_1   0.500382 0.422573 0.247457 -0.073741
C233  C     C_1   0.500501 0.422572 0.752598 -0.073682
C234  C     C_1   0.500406 0.077427 0.252571 -0.073847
C235  C     C_1   0.500115 0.077426 0.747567 -0.073967
C236  C     C_1   0.500221 0.922573 0.747529 -0.073819
C237  C     C_1   0.500507 0.922572 0.252597 -0.073683
C238  C     C_1   0.499982 0.750010 0.431113 0.008042
C239  C     C_1   0.499982 0.750009 0.568887 0.008046
C240  C     C_1   0.499982 0.249990 0.568887 0.008078
H1    H     H_    0.078825 0.529105 0.262703 0.114485
H2    H     H_    0.578178 0.529109 0.233930 0.114395
H3    H     H_    0.908665 0.020173 0.802829 0.118716
H4    H     H_    0.949994 0.467776 0.374009 0.121507
H5    H     H_    0.918737 0.460203 0.318266 0.119059
H6    H     H_    0.960919 0.427197 0.339589 0.140460
H7    H     H_    0.954036 0.467780 0.624385 0.121400
H8    H     H_    0.963861 0.427196 0.659127 0.140238
H9    H     H_    0.921001 0.460189 0.679090 0.119151
H10   H     H_    0.933727 0.564571 0.679560 0.137245
H11   H     H_    0.933225 0.528865 0.635520 0.122981
H12   H     H_    0.910227 0.520159 0.694511 0.118758
H13   H     H_    0.579837 0.465821 0.248192 0.115969
H14   H     H_    0.929565 0.528864 0.362214 0.123090
H15   H     H_    0.931500 0.564579 0.318226 0.137223
H16   H     H_    0.908481 0.520174 0.302508 0.118707
H17   H     H_    0.575038 0.979831 0.326178 0.118757
H18   H     H_    0.538157 0.971129 0.377644 0.121655
H19   H     H_    0.548551 0.935424 0.334838 0.130087
H20   H     H_    0.566917 0.979843 0.666798 0.118608
H21   H     H_    0.539703 0.935432 0.660862 0.130386
H22   H     H_    0.525020 0.971135 0.619328 0.121686
H23   H     H_    0.551497 0.039811 0.656035 0.116457
H24   H     H_    0.579847 0.465816 0.748343 0.116140
H25   H     H_    0.501645 0.032236 0.616048 0.121447
H26   H     H_    0.504393 0.072812 0.652068 0.136723
H27   H     H_    0.560803 0.039799 0.338441 0.116675
H28   H     H_    0.514355 0.072812 0.347148 0.135802
H29   H     H_    0.515253 0.032240 0.383271 0.121367
H30   H     H_    0.574885 0.479831 0.826328 0.118787
H31   H     H_    0.537901 0.471130 0.877720 0.121638
H32   H     H_    0.548381 0.435423 0.834935 0.130106
H33   H     H_    0.571415 0.479852 0.170504 0.118705
H34   H     H_    0.544577 0.435438 0.163089 0.130206
H35   H     H_    0.578858 0.029105 0.262506 0.114480
H36   H     H_    0.532191 0.471136 0.120806 0.121645
H37   H     H_    0.556604 0.539821 0.158919 0.116578
H38   H     H_    0.509028 0.532242 0.116250 0.121381
H39   H     H_    0.509783 0.572815 0.152370 0.136222
H40   H     H_    0.560625 0.539798 0.838562 0.116691
H41   H     H_    0.514159 0.572812 0.847177 0.135823
H42   H     H_    0.514985 0.532239 0.883301 0.121350
H43   H     H_    0.075115 0.979832 0.826102 0.118758
H44   H     H_    0.038287 0.971130 0.877606 0.121654
H45   H     H_    0.048639 0.935425 0.834788 0.130083
H46   H     H_    0.577156 0.029106 0.729750 0.114263
H47   H     H_    0.066929 0.979843 0.166806 0.118608
H48   H     H_    0.039714 0.935432 0.160866 0.130384
H49   H     H_    0.025037 0.971135 0.119330 0.121685
H50   H     H_    0.051511 0.039811 0.156042 0.116455
H51   H     H_    0.001664 0.032236 0.116048 0.121446
H52   H     H_    0.004406 0.072812 0.152068 0.136721
H53   H     H_    0.060890 0.039801 0.838380 0.116677
H54   H     H_    0.014449 0.072812 0.847134 0.135793
H55   H     H_    0.015385 0.032240 0.883256 0.121366
H56   H     H_    0.074846 0.479831 0.326364 0.118754
H57   H     H_    0.579593 0.965818 0.743906 0.115772
H58   H     H_    0.037837 0.471130 0.377738 0.121598
H59   H     H_    0.048339 0.435423 0.334958 0.130086
H60   H     H_    0.077283 0.479847 0.676038 0.118819
H61   H     H_    0.051082 0.435433 0.666598 0.130024
H62   H     H_    0.041956 0.471135 0.623497 0.121598
H63   H     H_    0.063405 0.539813 0.663361 0.116749
H64   H     H_    0.019216 0.532242 0.617193 0.121307
H65   H     H_    0.017225 0.572816 0.653269 0.135548
H66   H     H_    0.060580 0.539798 0.338592 0.116654
H67   H     H_    0.014110 0.572812 0.347183 0.135821
H68   H     H_    0.579845 0.965816 0.248182 0.116089
H69   H     H_    0.014917 0.532239 0.383307 0.121327
H70   H     H_    0.458902 0.966484 0.188380 0.116827
H71   H     H_    0.465325 0.966480 0.815642 0.117057
H72   H     H_    0.478395 0.028510 0.819767 0.120760
H73   H     H_    0.079197 0.529110 0.739797 0.114583
H74   H     H_    0.471488 0.028511 0.182956 0.120479
H75   H     H_    0.459026 0.466483 0.688299 0.116820
H76   H     H_    0.461799 0.466478 0.313545 0.116924
H77   H     H_    0.474618 0.528507 0.318385 0.120607
H78   H     H_    0.471622 0.528511 0.682899 0.120483
H79   H     H_    0.958839 0.966483 0.688423 0.116825
H80   H     H_    0.965317 0.966480 0.315636 0.117058
H81   H     H_    0.978386 0.028510 0.319764 0.120760
H82   H     H_    0.971420 0.028510 0.682984 0.120478
H83   H     H_    0.959056 0.466483 0.188277 0.116838
H84   H     H_    0.079763 0.465819 0.754141 0.116231
H85   H     H_    0.957093 0.466479 0.810312 0.116769
H86   H     H_    0.969505 0.528507 0.816113 0.120406
H87   H     H_    0.971655 0.528511 0.182884 0.120495
H88   H     H_    0.422532 0.970909 0.240503 0.114724
H89   H     H_    0.423866 0.970906 0.767468 0.114439
H90   H     H_    0.428280 0.034169 0.781160 0.114850
H91   H     H_    0.425540 0.034170 0.226440 0.115122
H92   H     H_    0.422551 0.470908 0.740349 0.114684
H93   H     H_    0.423049 0.470904 0.263167 0.114570
H94   H     H_    0.426701 0.534165 0.277081 0.114973
H95   H     H_    0.079848 0.465816 0.248381 0.116096
H96   H     H_    0.425588 0.534170 0.726291 0.115081
H97   H     H_    0.922522 0.970909 0.740582 0.114727
H98   H     H_    0.923864 0.970906 0.267457 0.114440
H99   H     H_    0.928276 0.034169 0.281150 0.114851
H100  H     H_    0.925517 0.034170 0.726514 0.115126
H101  H     H_    0.922556 0.470908 0.240309 0.114712
H102  H     H_    0.922292 0.470903 0.757129 0.114785
H103  H     H_    0.924873 0.534165 0.771279 0.115191
H104  H     H_    0.925599 0.534170 0.226253 0.115112
H105  H     H_    0.547704 0.971472 0.193694 0.122232
H106  H     H_    0.078870 0.029105 0.762428 0.114481
H107  H     H_    0.553131 0.971474 0.801367 0.122347
H108  H     H_    0.562785 0.033525 0.791663 0.119493
H109  H     H_    0.558290 0.033522 0.202368 0.119509
H110  H     H_    0.547815 0.471472 0.693790 0.122265
H111  H     H_    0.550260 0.471474 0.304114 0.122310
H112  H     H_    0.560426 0.533524 0.294959 0.119534
H113  H     H_    0.558384 0.533522 0.702485 0.119550
H114  H     H_    0.047647 0.971472 0.693646 0.122231
H115  H     H_    0.053125 0.971474 0.301374 0.122346
H116  H     H_    0.062780 0.033525 0.291671 0.119492
H117  H     H_    0.077159 0.029106 0.229760 0.114262
H118  H     H_    0.058243 0.033522 0.702310 0.119508
H119  H     H_    0.047843 0.471472 0.193813 0.122246
H120  H     H_    0.046011 0.471472 0.807648 0.122210
H121  H     H_    0.056845 0.533523 0.799297 0.119533
H122  H     H_    0.058407 0.533522 0.202513 0.119522
H123  H     H_    0.450303 0.967775 0.374134 0.121481
H124  H     H_    0.418908 0.960202 0.318469 0.119060
H125  H     H_    0.461143 0.927197 0.339687 0.140442
H126  H     H_    0.437971 0.967778 0.631710 0.121806
H127  H     H_    0.452252 0.927196 0.664870 0.141032
H128  H     H_    0.079595 0.965818 0.243915 0.115771
H129  H     H_    0.412374 0.960191 0.690267 0.118707
H130  H     H_    0.425056 0.064570 0.689063 0.137016
H131  H     H_    0.418791 0.028861 0.645475 0.123350
H132  H     H_    0.403712 0.020161 0.706970 0.118503
H133  H     H_    0.429846 0.028865 0.362391 0.123054
H134  H     H_    0.431672 0.064579 0.318398 0.137221
H135  H     H_    0.408613 0.020175 0.302738 0.118714
H136  H     H_    0.450056 0.467777 0.874035 0.121488
H137  H     H_    0.418771 0.460203 0.818308 0.119033
H138  H     H_    0.460964 0.427197 0.839610 0.140452
H139  H     H_    0.079843 0.965816 0.748102 0.116091
H140  H     H_    0.444588 0.467779 0.128389 0.121632
H141  H     H_    0.457040 0.427196 0.162275 0.140724
H142  H     H_    0.415820 0.460182 0.185451 0.118900
H143  H     H_    0.428534 0.564566 0.184957 0.137135
H144  H     H_    0.424680 0.528864 0.141081 0.123203
H145  H     H_    0.406246 0.520154 0.201652 0.118603
H146  H     H_    0.429621 0.528865 0.862250 0.123060
H147  H     H_    0.431534 0.564579 0.818261 0.137208
H148  H     H_    0.408507 0.520174 0.802555 0.118681
H149  H     H_    0.950429 0.967775 0.874185 0.121480
H150  H     H_    0.578832 0.529105 0.762664 0.114523
H151  H     H_    0.918978 0.960200 0.818552 0.119064
H152  H     H_    0.961236 0.927196 0.839728 0.140436
H153  H     H_    0.937987 0.967779 0.131702 0.121807
H154  H     H_    0.952264 0.927196 0.164863 0.141031
H155  H     H_    0.912383 0.960191 0.190255 0.118708
H156  H     H_    0.925064 0.064571 0.189053 0.137017
H157  H     H_    0.918805 0.028861 0.145464 0.123351
H158  H     H_    0.903718 0.020161 0.206957 0.118504
H159  H     H_    0.929957 0.028865 0.862461 0.123052
H160  H     H_    0.931738 0.064578 0.818465 0.137222
O1    O     O_3   0.499990 0.750000 0.250000 -0.434733
O2    O     O_R   0.527870 0.668020 0.722120 -0.534805
O3    O     O_R   0.972140 0.331980 0.722150 -0.538768
O4    O     O_R   0.972140 0.168020 0.222150 -0.539439
O5    O     O_R   0.972140 0.168020 0.777850 -0.539258
O6    O     O_R   0.972140 0.831980 0.777850 -0.538841
O7    O     O_R   0.972140 0.831980 0.222150 -0.539110
O8    O     O_R   0.527870 0.331980 0.722120 -0.535091
O9    O     O_R   0.527870 0.331980 0.277880 -0.535035
O10   O     O_R   0.527870 0.168020 0.777880 -0.534738
O11   O     O_R   0.527870 0.168020 0.222120 -0.534823
O12   O     O_R   0.527870 0.831980 0.222120 -0.535110
O13   O     O_R   0.527870 0.831980 0.777880 -0.534974
O14   O     O_R   0.027870 0.668020 0.777880 -0.534833
O15   O     O_R   0.027870 0.668020 0.222120 -0.534818
O16   O     O_R   0.027870 0.331980 0.222120 -0.535104
O17   O     O_3   0.499990 0.750000 0.750000 -0.434723
O18   O     O_R   0.027870 0.331980 0.777880 -0.535138
O19   O     O_R   0.027870 0.168020 0.277880 -0.534737
O20   O     O_R   0.027870 0.168020 0.722120 -0.534820
O21   O     O_R   0.027870 0.831980 0.722120 -0.535108
O22   O     O_R   0.027870 0.831980 0.277880 -0.534973
O23   O     O_R   0.472130 0.728510 0.143730 -0.535867
O24   O     O_R   0.472130 0.728510 0.856270 -0.535875
O25   O     O_R   0.472130 0.271490 0.856270 -0.535954
O26   O     O_R   0.472130 0.271490 0.143730 -0.535948
O27   O     O_R   0.472130 0.228510 0.643730 -0.535873
O28   O     O_3   0.499990 0.250000 0.750000 -0.434727
O29   O     O_R   0.472130 0.228510 0.356270 -0.535877
O30   O     O_R   0.472130 0.771490 0.356270 -0.535955
O31   O     O_R   0.472130 0.771490 0.643730 -0.535955
O32   O     O_R   0.972130 0.728510 0.643730 -0.535863
O33   O     O_R   0.972130 0.728510 0.356270 -0.535871
O34   O     O_R   0.972130 0.271490 0.356270 -0.535949
O35   O     O_R   0.972130 0.271490 0.643730 -0.535937
O36   O     O_R   0.972130 0.228510 0.143730 -0.535867
O37   O     O_R   0.972130 0.228510 0.856270 -0.535869
O38   O     O_R   0.972130 0.771490 0.856270 -0.535947
O39   O     O_3   0.499990 0.250000 0.250000 -0.434732
O40   O     O_R   0.972130 0.771490 0.143730 -0.535949
O41   O     O_R   0.393720 0.728520 0.222140 -0.535023
O42   O     O_R   0.393720 0.728520 0.777860 -0.534977
O43   O     O_R   0.393720 0.271480 0.777860 -0.534794
O44   O     O_R   0.393720 0.271480 0.222140 -0.534837
O45   O     O_R   0.393720 0.228520 0.722140 -0.535060
O46   O     O_R   0.393720 0.228520 0.277860 -0.534979
O47   O     O_R   0.393720 0.771480 0.277860 -0.534792
O48   O     O_R   0.393720 0.771480 0.722140 -0.534879
O49   O     O_R   0.893720 0.728520 0.722140 -0.534966
O50   O     O_3   0.999990 0.750000 0.750000 -0.434745
O51   O     O_R   0.893720 0.728520 0.277860 -0.534965
O52   O     O_R   0.893720 0.271480 0.277860 -0.534780
O53   O     O_R   0.893720 0.271480 0.722140 -0.534777
O54   O     O_R   0.893720 0.228520 0.222140 -0.535060
O55   O     O_R   0.893720 0.228520 0.777860 -0.534990
O56   O     O_R   0.893720 0.771480 0.777860 -0.534801
O57   O     O_R   0.893720 0.771480 0.222140 -0.534879
O58   O     O_R   0.606280 0.728500 0.277860 -0.534981
O59   O     O_R   0.606280 0.728500 0.722140 -0.534995
O60   O     O_R   0.606280 0.271500 0.722140 -0.535054
O61   O     O_3   0.999990 0.750000 0.250000 -0.434722
O62   O     O_R   0.606280 0.271500 0.277860 -0.535041
O63   O     O_R   0.606280 0.228500 0.777860 -0.534982
O64   O     O_R   0.606280 0.228500 0.222140 -0.535019
O65   O     O_R   0.606280 0.771500 0.222140 -0.535081
O66   O     O_R   0.606280 0.771500 0.777860 -0.535037
O67   O     O_R   0.106280 0.728500 0.777860 -0.535005
O68   O     O_R   0.106280 0.728500 0.222140 -0.535011
O69   O     O_R   0.106280 0.271500 0.222140 -0.535071
O70   O     O_R   0.106280 0.271500 0.777860 -0.535072
O71   O     O_R   0.106280 0.228500 0.277860 -0.534980
O72   O     O_3   0.999990 0.250000 0.250000 -0.434726
O73   O     O_R   0.106280 0.228500 0.722140 -0.535018
O74   O     O_R   0.106280 0.771500 0.722140 -0.535083
O75   O     O_R   0.106280 0.771500 0.277860 -0.535036
O76   O     O_R   0.527850 0.771500 0.143710 -0.534336
O77   O     O_R   0.527850 0.771500 0.856290 -0.534348
O78   O     O_R   0.527850 0.228500 0.856290 -0.534418
O79   O     O_R   0.527850 0.228500 0.143710 -0.534408
O80   O     O_R   0.527850 0.271500 0.643710 -0.534321
O81   O     O_R   0.527850 0.271500 0.356290 -0.534339
O82   O     O_R   0.527850 0.728500 0.356290 -0.534410
O83   O     O_3   0.999990 0.250000 0.750000 -0.434746
O84   O     O_R   0.527850 0.728500 0.643710 -0.534393
O85   O     O_R   0.027850 0.771500 0.643710 -0.534350
O86   O     O_R   0.027850 0.771500 0.356290 -0.534354
O87   O     O_R   0.027850 0.228500 0.356290 -0.534424
O88   O     O_R   0.027850 0.228500 0.643710 -0.534423
O89   O     O_R   0.027850 0.271500 0.143710 -0.534327
O90   O     O_R   0.027850 0.271500 0.856290 -0.534337
O91   O     O_R   0.027850 0.728500 0.856290 -0.534409
O92   O     O_R   0.027850 0.728500 0.143710 -0.534398
O93   O     O_R   0.472140 0.668020 0.222150 -0.539351
O94   O     O_R   0.527870 0.668020 0.277880 -0.534771
O95   O     O_R   0.472140 0.668020 0.777850 -0.539274
O96   O     O_R   0.472140 0.331980 0.777850 -0.538860
O97   O     O_R   0.472140 0.331980 0.222150 -0.538974
O98   O     O_R   0.472140 0.168020 0.722150 -0.539440
O99   O     O_R   0.472140 0.168020 0.277850 -0.539259
O100  O     O_R   0.472140 0.831980 0.277850 -0.538842
O101  O     O_R   0.472140 0.831980 0.722150 -0.539110
O102  O     O_R   0.972140 0.668020 0.722150 -0.539212
O103  O     O_R   0.972140 0.668020 0.277850 -0.539265
O104  O     O_R   0.972140 0.331980 0.277850 -0.538849
Zn1   Zn    Zn3+2 0.539790 0.780710 0.210180 0.948690
Zn2   Zn    Zn3+2 0.039790 0.780710 0.289820 0.948774
Zn3   Zn    Zn3+2 0.039790 0.219290 0.289820 0.948818
Zn4   Zn    Zn3+2 0.039790 0.219290 0.710180 0.948734
Zn5   Zn    Zn3+2 0.039790 0.280710 0.210180 0.948719
Zn6   Zn    Zn3+2 0.039790 0.280710 0.789820 0.948659
Zn7   Zn    Zn3+2 0.039790 0.719290 0.789820 0.948747
Zn8   Zn    Zn3+2 0.039790 0.719290 0.210180 0.948794
Zn9   Zn    Zn3+2 0.460190 0.719300 0.210200 0.946004
Zn10  Zn    Zn3+2 0.460190 0.719300 0.789800 0.946045
Zn11  Zn    Zn3+2 0.460190 0.280700 0.789800 0.946206
Zn12  Zn    Zn3+2 0.539790 0.780710 0.789820 0.948784
Zn13  Zn    Zn3+2 0.460190 0.280700 0.210200 0.946151
Zn14  Zn    Zn3+2 0.460190 0.219300 0.710200 0.945932
Zn15  Zn    Zn3+2 0.460190 0.219300 0.289800 0.946061
Zn16  Zn    Zn3+2 0.460190 0.780700 0.289800 0.946227
Zn17  Zn    Zn3+2 0.460190 0.780700 0.710200 0.946054
Zn18  Zn    Zn3+2 0.960190 0.719300 0.710200 0.946110
Zn19  Zn    Zn3+2 0.960190 0.719300 0.289800 0.946062
Zn20  Zn    Zn3+2 0.960190 0.280700 0.289800 0.946225
Zn21  Zn    Zn3+2 0.960190 0.280700 0.710200 0.946293
Zn22  Zn    Zn3+2 0.960190 0.219300 0.210200 0.945941
Zn23  Zn    Zn3+2 0.539790 0.219290 0.789820 0.948828
Zn24  Zn    Zn3+2 0.960190 0.219300 0.789800 0.946073
Zn25  Zn    Zn3+2 0.960190 0.780700 0.789800 0.946244
Zn26  Zn    Zn3+2 0.960190 0.780700 0.210200 0.946064
Zn27  Zn    Zn3+2 0.539790 0.219290 0.210180 0.948766
Zn28  Zn    Zn3+2 0.539790 0.280710 0.710180 0.948745
Zn29  Zn    Zn3+2 0.539790 0.280710 0.289820 0.948743
Zn30  Zn    Zn3+2 0.539790 0.719290 0.289820 0.948804
Zn31  Zn    Zn3+2 0.539790 0.719290 0.710180 0.948819
Zn32  Zn    Zn3+2 0.039790 0.780710 0.710180 0.948656

loop_
_geom_bond_atom_site_label_1
_geom_bond_atom_site_label_2
_ccdc_geom_bond_type
O17   Zn10  S    
C159  C194  S    
C49   O90   A    
C127  H133  S    
O70   Zn6   S    
C8    C26   T    
C43   O32   A    
C184  C237  T    
C19   C20   S    
C74   C83   T    
C138  H9    S    
C114  H150  S    
C15   C32   T    
C136  C162  S    
C188  C217  S    
C153  H55   S    
C114  H113  S    
C154  H56   S    
C200  C205  S    
C207  H82   S    
C60   O53   A    
C138  C165  S    
C49   O37   A    
O49   Zn18  S    
O15   Zn8   S    
C117  H117  S    
C208  O12   A    
C60   C98   S    
O28   Zn23  S    
C130  C146  S    
C106  C107  S    
C116  H115  S    
C131  H148  S    
C128  H136  S    
C203  H104  S    
C48   O36   A    
C148  H37   S    
O82   Zn30  S    
C149  H40   S    
O24   Zn10  S    
C110  C111  S    
C197  O99   A    
C116  C195  S    
O64   Zn27  S    
O63   Zn23  S    
O61   Zn19  S    
C141  H18   S    
C43   O85   A    
C117  H116  S    
C212  H78   S    
C150  H45   S    
C59   O52   A    
C101  C188  S    
O51   Zn19  S    
C16   C44   S    
C88   C97   T    
O32   Zn18  S    
C183  C236  T    
C21   C22   S    
C123  H123  S    
C158  C167  S    
O93   Zn9   S    
C196  C226  S    
C41   C238  S    
O35   Zn21  S    
O84   Zn31  S    
C62   O66   A    
C207  H100  S    
C119  H95   S    
C150  C159  S    
C46   O5    A    
C218  H71   S    
O17   Zn31  S    
C61   O65   A    
C55   O44   A    
C155  H60   S    
C82   C91   S    
C161  C196  S    
C143  H25   S    
O68   Zn8   S    
C174  C227  T    
C214  H76   S    
C11   C49   S    
C189  C216  S    
C172  C225  T    
C67   O71   A    
C156  C166  S    
C115  C118  S    
C130  H143  S    
C211  H97   S    
O17   Zn12  S    
C209  H99   S    
C42   O31   A    
C145  H32   S    
C157  C193  S    
C144  H27   S    
C57   O21   A    
O10   Zn23  S    
C8    C50   S    
C215  H92   S    
C54   C104  S    
C44   O86   A    
C183  C219  S    
C60   O55   A    
C94   C103  T    
C152  H50   S    
C58   O57   A    
C132  H149  S    
C151  H47   S    
C164  O96   A    
C148  H39   S    
C131  H146  S    
C156  H65   S    
C162  C198  S    
C113  C144  S    
C195  C227  S    
C133  C160  S    
O47   Zn16  S    
C218  H89   S    
O19   Zn3   S    
C121  C201  S    
C80   C88   S    
C63   O63   A    
C230  O14   A    
C197  O11   A    
C155  C165  S    
O39   Zn15  S    
C36   O77   A    
C206  H101  S    
C46   C172  S    
C38   O26   A    
C84   C93   S    
O28   Zn14  S    
O7    Zn26  S    
O54   Zn22  S    
C86   C95   S    
C209  H81   S    
O81   Zn29  S    
C156  H64   S    
C199  C224  S    
O23   Zn9   S    
C56   O56   A    
C64   O62   A    
C76   C85   T    
O36   Zn22  S    
O56   Zn25  S    
O65   Zn1   S    
C78   C87   S    
C192  C231  S    
O50   Zn32  S    
C134  H158  S    
C69   C77   S    
O1    Zn30  S    
O50   Zn18  S    
O6    Zn25  S    
C119  H119  S    
C14   C31   T    
C108  H35   S    
C181  C197  S    
O31   Zn17  S    
C129  H140  S    
C120  H84   S    
C133  H153  S    
O43   Zn11  S    
C191  C214  S    
O34   Zn20  S    
C75   C84   T    
C67   O69   A    
C52   O41   A    
O50   Zn7   S    
C115  H114  S    
C175  O97   A    
C167  C202  S    
C126  H131  S    
O14   Zn7   S    
C129  C135  S    
C181  C234  T    
O72   Zn20  S    
C109  H110  S    
C128  H137  S    
C44   O33   A    
C64   C73   S    
C142  H21   S    
C1    O94   A    
C24   C170  S    
C190  C215  S    
C152  C161  S    
O89   Zn5   S    
C150  H43   S    
O37   Zn24  S    
C140  C167  S    
C217  H90   S    
C163  C199  S    
C136  H160  S    
C207  C211  S    
C47   O88   A    
C202  C221  S    
C152  H52   S    
C56   C97   S    
C132  H151  S    
C112  O2    A    
C209  C210  S    
C122  H1    S    
C50   O91   A    
C176  C228  T    
C132  C159  S    
C35   C173  S    
C208  O100  A    
O11   Zn27  S    
C165  C200  S    
C137  C163  S    
O58   Zn30  S    
C215  H75   S    
C45   O87   A    
C217  C218  S    
O39   Zn13  S    
C205  H85   S    
C107  C188  S    
C65   C74   S    
O62   Zn29  S    
C145  H30   S    
C210  H98   S    
O16   Zn5   S    
C125  H129  S    
C108  H109  S    
O55   Zn24  S    
C137  H5    S    
C1    C178  S    
C116  H128  S    
C169  C222  T    
C125  H127  S    
C212  C215  S    
C109  C190  S    
C155  H61   S    
C17   C18   S    
C158  H66   S    
C140  H15   S    
C63   C72   S    
C109  H24   S    
C64   O64   A    
C147  H33   S    
C188  C235  S    
C109  C114  S    
O100  Zn16  S    
C211  H79   S    
C115  C194  S    
C37   O78   A    
C135  C147  S    
C111  H112  S    
C79   C113  S    
C134  H156  S    
C65   O74   A    
C219  O13   A    
O53   Zn21  S    
C118  C198  S    
C2    C168  S    
C58   O51   A    
C36   O24   A    
C129  H142  S    
C40   O81   A    
C47   O35   A    
C136  H3    S    
C198  C207  S    
C200  C223  S    
C187  C236  S    
O27   Zn14  S    
C2    O15   A    
C77   C86   T    
C71   C80   T    
C219  O101  A    
C153  H54   S    
C136  H159  S    
O85   Zn32  S    
C230  O102  A    
C134  C161  S    
C89   C98   T    
C120  H120  S    
C81   C89   S    
C220  H70   S    
C204  H103  S    
C79   C141  S    
O42   Zn10  S    
C131  H147  S    
C148  H38   S    
C62   C71   S    
C121  H121  S    
O48   Zn17  S    
O96   Zn11  S    
O30   Zn16  S    
O52   Zn20  S    
C63   O60   A    
C55   O46   A    
C13   C171  S    
C204  C205  S    
C154  H58   S    
O74   Zn32  S    
C68   O7    A    
C141  H17   S    
C91   C99   T    
O102  Zn18  S    
C35   O19   A    
C187  C218  S    
C61   C70   S    
O71   Zn3   S    
C2    O103  A    
O72   Zn5   S    
C185  C220  S    
C7    C36   S    
C192  C213  S    
O95   Zn10  S    
O69   Zn5   S    
C139  H12   S    
C9    C51   S    
C193  C229  S    
O18   Zn6   S    
C112  O95   A    
C57   O6    A    
C124  C190  S    
C213  C214  S    
C95   C104  T    
C52   C102  S    
C26   C27   S    
C165  C166  S    
C118  H118  S    
O26   Zn13  S    
C119  C199  S    
O1    Zn1   S    
C28   C29   S    
C106  C187  S    
C133  H155  S    
C30   C31   S    
C90   C187  S    
O66   Zn12  S    
C34   O23   A    
C110  C191  S    
C169  C230  S    
O9    Zn29  S    
C182  C186  S    
C194  C228  S    
C131  C157  S    
C138  H7    S    
C210  H80   S    
C121  H73   S    
O83   Zn21  S    
C69   O70   A    
O59   Zn31  S    
O75   Zn2   S    
C130  H144  S    
O88   Zn4   S    
O73   Zn4   S    
C42   O84   A    
O77   Zn12  S    
C168  C221  T    
C72   C81   T    
C164  C180  S    
C124  C128  S    
O103  Zn19  S    
C17   C238  T    
C111  C192  S    
C127  H134  S    
C149  H41   S    
C5    C38   S    
O40   Zn26  S    
C110  H111  S    
C144  H28   S    
O72   Zn22  S    
C203  C206  S    
O39   Zn29  S    
C146  C148  S    
C206  H83   S    
C53   C100  S    
C53   O48   A    
C62   O59   A    
C65   O67   A    
C190  C233  S    
O1    Zn9   S    
C56   O49   A    
O4    Zn22  S    
C195  C210  S    
C202  C203  S    
O12   Zn1   S    
C193  C212  S    
O94   Zn30  S    
O44   Zn13  S    
C199  C206  S    
C6    C34   S    
C166  C201  S    
C68   O22   A    
O46   Zn15  S    
C41   O30   A    
C54   O45   A    
C216  C220  S    
C212  H96   S    
C124  C157  S    
C107  H46   S    
O1    Zn16  S    
C141  H19   S    
C159  C162  S    
C3    C20   T    
C150  H44   S    
O28   Zn11  S    
C135  C191  S    
C90   C142  S    
O61   Zn8   S    
C182  C235  T    
C160  C195  S    
C196  C209  S    
O41   Zn9   S    
C3    C40   S    
O8    Zn28  S    
C158  H69   S    
C139  H10   S    
C140  H14   S    
C40   O29   A    
O21   Zn32  S    
C213  H77   S    
C123  H124  S    
C73   C82   T    
C9    C27   T    
C10   C28   T    
O50   Zn25  S    
C39   O27   A    
C12   C30   T    
O101  Zn17  S    
O5    Zn24  S    
C93   C102  T    
C42   C239  S    
O104  Zn20  S    
C203  H87   S    
C113  C189  S    
C13   O16   A    
C7    C25   T    
C153  C162  S    
C54   O43   A    
C143  H26   S    
C32   C33   S    
C122  C202  S    
C144  H29   S    
O91   Zn7   S    
C178  C231  T    
C160  C161  S    
C50   O38   A    
C66   C75   S    
C120  C200  S    
C90   C125  S    
C205  H102  S    
C126  H132  S    
C106  H57   S    
C185  C237  S    
O29   Zn15  S    
C115  H139  S    
C105  H68   S    
C15   C43   S    
C170  C223  T    
C130  H145  S    
O79   Zn27  S    
C4    C37   S    
C186  O98   A    
C46   O20   A    
C142  H22   S    
C1    O93   A    
C179  C232  T    
C220  H88   S    
C149  C157  S    
C112  C177  S    
C52   O47   A    
C38   O79   A    
C53   O42   A    
C118  H106  S    
C66   O75   A    
C4    C21   T    
C114  C193  S    
C61   O58   A    
C70   C78   T    
C59   C99   S    
C132  H152  S    
O87   Zn3   S    
C151  H48   S    
C171  C224  T    
C83   C92   S    
O22   Zn2   S    
C45   O34   A    
O20   Zn4   S    
C173  C226  T    
O33   Zn19  S    
C177  C229  T    
C39   O80   A    
O13   Zn12  S    
C110  H13   S    
C66   O68   A    
C55   C103  S    
C116  C117  S    
C214  H93   S    
C105  C185  S    
C58   C96   S    
C41   O82   A    
C164  O8    A    
O61   Zn2   S    
C175  O9    A    
C194  C211  S    
C137  H4    S    
O39   Zn27  S    
C128  H138  S    
C125  H126  S    
O17   Zn17  S    
C191  C232  S    
C24   O3    A    
C101  C126  S    
C213  H94   S    
C149  H42   S    
C156  H63   S    
C140  H16   S    
O90   Zn6   S    
C147  H36   S    
C198  C225  S    
O57   Zn26  S    
C135  C146  S    
C216  H74   S    
O97   Zn13  S    
O76   Zn1   S    
C134  H157  S    
C146  C192  S    
O99   Zn15  S    
C201  C222  S    
C39   C240  S    
O28   Zn28  S    
C129  H141  S    
O83   Zn6   S    
C35   O4    A    
O98   Zn14  S    
O80   Zn28  S    
C105  C108  S    
C24   O18   A    
C127  H135  S    
C5    C22   T    
C204  H86   S    
C217  H72   S    
C154  C163  S    
C13   O104  A    
C68   C174  S    
C175  C179  S    
C153  H53   S    
C79   C123  S    
O61   Zn26  S    
C151  H49   S    
C126  H130  S    
C139  C166  S    
C163  C167  S    
C90   C101  S    
C16   C33   T    
C57   C176  S    
C85   C94   S    
C158  H67   S    
C87   C96   T    
C106  H107  S    
C120  C121  S    
C142  H20   S    
O92   Zn8   S    
C189  C234  S    
O60   Zn28  S    
O38   Zn25  S    
C69   O73   A    
C154  H59   S    
C111  H2    S    
C37   O25   A    
C201  C204  S    
C34   O76   A    
C108  C189  S    
C152  H51   S    
O78   Zn23  S    
C59   O54   A    
O2    Zn31  S    
C18   C239  T    
C92   C100  T    
C119  C122  S    
C79   C185  S    
C139  H11   S    
O67   Zn7   S    
C12   C45   S    
C123  H125  S    
C180  C233  T    
C14   C47   S    
C113  C127  S    
C124  C145  S    
C48   O89   A    
C145  H31   S    
C151  C160  S    
C133  H154  S    
O3    Zn21  S    
C117  C196  S    
O86   Zn2   S    
C19   C240  T    
C10   C48   S    
C137  H6    S    
C101  C143  S    
O72   Zn3   S    
C6    C23   T    
C155  H62   S    
C122  H122  S    
O45   Zn14  S    
C105  H105  S    
C23   C25   S    
C216  H91   S    
C147  H34   S    
C138  H8    S    
O83   Zn24  S    
C143  H23   S    
C11   C29   T    
C51   O40   A    
O25   Zn11  S    
C184  C208  S    
O83   Zn4   S    
C67   C76   S    
C186  O10   A    
C107  H108  S    
C51   O92   A    
