data_mof_unit_16944.cif
_audit_creation_date              2012-12-10T20:43:43-0500
_audit_creation_method            fapswitch 2.2
_symmetry_space_group_name_H-M    P1
_symmetry_Int_Tables_number       1
_space_group_crystal_system       triclinic
_cell_length_a                    18.653388
_cell_length_b                    18.638563
_cell_length_c                    18.763437
_cell_angle_alpha                 109.377855
_cell_angle_beta                  109.374674
_cell_angle_gamma                 109.052939
_cell_volume                      5059.11628599

loop_
_atom_site_label
_atom_site_type_symbol
_atom_type_description
_atom_site_fract_x
_atom_site_fract_y
_atom_site_fract_z
_atom_type_partial_charge
C1    C     C_R   0.381174 0.502043 0.380387 0.874341
C2    C     C_R   0.308934 0.449507 0.015363 -0.209109
C3    C     C_R   0.120077 0.118642 0.498484 0.862938
C4    C     C_R   0.002274 0.380189 0.881659 0.870408
C5    C     C_R   0.119765 0.497798 0.118213 0.867000
C6    C     C_R   0.998646 0.620120 0.118763 0.855810
C7    C     C_R   0.880031 0.498375 0.878131 0.860371
C8    C     C_R   0.090873 0.761707 0.546144 -0.129346
C9    C     C_R   0.085628 0.775234 0.476011 -0.093847
C10   C     C_R   0.006789 0.725984 0.396931 0.094663
C11   C     C_R   0.934935 0.659715 0.387605 -0.179414
C12   C     C_R   0.940266 0.646587 0.457958 -0.136895
C13   C     C_R   0.337953 0.531495 0.021089 0.699622
C14   C     C_R   0.783129 0.724355 0.773999 -0.214731
C15   C     C_R   0.018056 0.697841 0.537318 -0.103051
C16   C     C_R   0.997671 0.675180 0.253959 -0.212069
C17   C     C_R   0.997267 0.686098 0.183780 -0.063838
C18   C     C_R   0.999541 0.760798 0.179261 0.015817
C19   C     C_R   0.998785 0.822089 0.245002 -0.172672
C20   C     C_R   0.999853 0.811568 0.315526 -0.038196
C21   C     C_R   0.001609 0.738733 0.321869 -0.002740
C22   C     C_R   0.070932 0.856052 0.128349 -0.165171
C23   C     C_R   0.076738 0.871581 0.061977 -0.123378
C24   C     C_R   0.078320 0.253919 0.755240 -0.251588
C25   C     C_R   0.016015 0.808751 0.975201 -0.109040
C26   C     C_R   0.825044 0.818528 0.577921 0.628062
C27   C     C_R   0.997800 0.185009 0.685312 -0.076353
C28   C     C_R   0.919211 0.181456 0.678577 0.035231
C29   C     C_R   0.922876 0.246112 0.745236 -0.257292
C30   C     C_R   0.003458 0.315257 0.815335 -0.106445
C31   C     C_R   0.082476 0.321172 0.819710 0.012098
C32   C     C_R   0.785538 0.132831 0.544760 -0.139950
C33   C     C_R   0.781957 0.796525 0.827158 -0.296172
C34   C     C_R   0.706664 0.066943 0.469775 -0.216943
C35   C     C_R   0.674671 0.980608 0.452653 -0.250091
C36   C     C_R   0.720835 0.960226 0.511208 0.681929
C37   C     C_R   0.800238 0.025750 0.585802 -0.169003
C38   C     C_R   0.814007 0.810873 0.497665 -0.187747
C39   C     C_R   0.833252 0.112330 0.602549 0.024037
C40   C     C_R   0.738121 0.742315 0.419110 0.018855
C41   C     C_R   0.677093 0.678941 0.422457 -0.216005
C42   C     C_R   0.688411 0.686251 0.502262 -0.149062
C43   C     C_R   0.760978 0.757870 0.581112 -0.016051
C44   C     C_R   0.948903 0.730848 0.954821 -0.125104
C45   C     C_R   0.645574 0.742638 0.287822 -0.099172
C46   C     C_R   0.626318 0.737548 0.207084 -0.188567
C47   C     C_R   0.678327 0.724768 0.170538 -0.208110
C48   C     C_R   0.621101 0.620123 0.501007 0.908264
C49   C     C_R   0.750393 0.718207 0.215233 0.691819
C50   C     C_R   0.770865 0.725064 0.296850 -0.253768
C51   C     C_R   0.718296 0.736732 0.333468 0.066736
C52   C     C_R   0.427553 0.775750 0.546725 0.653973
C53   C     C_R   0.372308 0.691239 0.475816 -0.211003
C54   C     C_R   0.379977 0.667951 0.400455 0.031867
C55   C     C_R   0.941660 0.715717 0.020901 -0.081797
C56   C     C_R   0.441357 0.731386 0.395788 -0.169861
C57   C     C_R   0.495004 0.816376 0.466107 -0.159623
C58   C     C_R   0.488906 0.838384 0.541824 -0.172596
C59   C     C_R   0.252965 0.576847 0.254321 -0.240572
C60   C     C_R   0.618316 0.497836 0.619776 0.866093
C61   C     C_R   0.185029 0.496251 0.183596 -0.083619
C62   C     C_R   0.178339 0.417233 0.179779 0.057112
C63   C     C_R   0.245695 0.421838 0.244916 -0.203147
C64   C     C_R   0.313979 0.502590 0.315582 -0.108484
C65   C     C_R   0.316002 0.581055 0.322763 0.030454
C66   C     C_R   0.003763 0.777503 0.108299 0.120934
C67   C     C_R   0.057312 0.270100 0.129591 0.632994
C68   C     C_R   0.989358 0.186551 0.063353 -0.201540
C69   C     C_R   0.967178 0.161382 0.976800 -0.170046
C70   C     C_R   0.012465 0.219905 0.956196 -0.116219
C71   C     C_R   0.080038 0.303625 0.022122 -0.219631
C72   C     C_R   0.378199 0.379998 0.498502 0.856714
C73   C     C_R   0.103655 0.329529 0.109429 -0.001882
C74   C     C_R   0.200634 0.514839 0.565756 -0.115083
C75   C     C_R   0.219079 0.448525 0.568378 -0.152969
C76   C     C_R   0.224922 0.395274 0.499653 0.110288
C77   C     C_R   0.284402 0.544543 0.960015 -0.246350
C78   C     C_R   0.211583 0.408934 0.428201 -0.061683
C79   C     C_R   0.192130 0.474658 0.425371 -0.102080
C80   C     C_R   0.186914 0.527726 0.494182 -0.126110
C81   C     C_R   0.176785 0.255669 0.499598 -0.231647
C82   C     C_R   0.186002 0.183732 0.497245 -0.076265
C83   C     C_R   0.258242 0.176294 0.495665 -0.005225
C84   C     C_R   0.775054 0.856887 0.800710 0.568857
C85   C     C_R   0.320087 0.241816 0.495197 -0.256862
C86   C     C_R   0.310809 0.313757 0.497281 -0.080464
C87   C     C_R   0.239084 0.321701 0.500049 0.001909
C88   C     C_R   0.201128 0.476045 0.894129 -0.190073
C89   C     C_R   0.342094 0.112923 0.561119 -0.148787
C90   C     C_R   0.354952 0.042198 0.557336 -0.125232
C91   C     C_R   0.296784 0.959213 0.484619 -0.118749
C92   C     C_R   0.225630 0.946818 0.415620 -0.146469
C93   C     C_R   0.211929 0.017181 0.419519 -0.129708
C94   C     C_R   0.270136 0.100728 0.492436 0.137723
C95   C     C_R   0.545328 0.563691 0.854700 -0.112056
C96   C     C_R   0.768812 0.844795 0.720741 0.642572
C97   C     C_R   0.615363 0.564988 0.841929 -0.134225
C98   C     C_R   0.601741 0.494863 0.770197 0.129856
C99   C     C_R   0.170086 0.394496 0.890198 0.118834
C100  C     C_R   0.517412 0.423092 0.712034 -0.128964
C101  C     C_R   0.447666 0.421802 0.725453 -0.125335
C102  C     C_R   0.461532 0.492172 0.796472 -0.104790
C103  C     C_R   0.742360 0.496266 0.820158 -0.255090
C104  C     C_R   0.813681 0.496936 0.810674 -0.089196
C105  C     C_R   0.820671 0.497495 0.738402 -0.008885
C106  C     C_R   0.754093 0.495839 0.675431 -0.259622
C107  C     C_R   0.682797 0.495157 0.684957 -0.079586
C108  C     C_R   0.770153 0.772146 0.667001 -0.034298
C109  C     C_R   0.676389 0.495849 0.757832 -0.007886
C110  C     C_R   0.225861 0.380848 0.949358 -0.302255
C111  C     C_R   0.950832 0.570089 0.725625 -0.150508
C112  C     C_R   0.019943 0.570103 0.711606 -0.136716
C113  C     C_R   0.033290 0.498166 0.696944 -0.122698
C114  C     C_R   0.977533 0.426107 0.696249 -0.134326
C115  C     C_R   0.908723 0.426092 0.710916 -0.124539
C116  C     C_R   0.895096 0.498226 0.725854 0.138907
C117  C     C_R   0.998536 0.877756 0.380448 0.853106
C118  C     C_R   0.879925 0.878250 0.498483 0.918292
C119  C     C_R   0.998539 0.119047 0.619709 0.879650
C120  C     C_R   0.778191 0.712460 0.694621 -0.240488
F1    F     F_    0.800206 0.704942 0.179234 -0.683890
F2    F     F_    0.420285 0.797401 0.619486 -0.670815
F3    F     F_    0.773224 0.926565 0.852164 -0.646737
F4    F     F_    0.076875 0.293348 0.213061 -0.701548
F5    F     F_    0.759621 0.902682 0.694824 -0.620839
F6    F     F_    0.896456 0.887362 0.653424 -0.662506
F7    F     F_    0.418392 0.598035 0.085282 -0.708563
F8    F     F_    0.688414 0.876947 0.495795 -0.688071
H1    H     H_    0.662767 0.720007 0.107625 0.156741
H2    H     H_    0.995187 0.200308 0.889118 0.174427
H3    H     H_    0.113830 0.348594 0.005408 0.142361
H4    H     H_    0.172052 0.578696 0.491932 0.139800
H5    H     H_    0.196283 0.555770 0.618881 0.128338
H6    H     H_    0.214788 0.367740 0.374264 0.151652
H7    H     H_    0.180718 0.484314 0.369714 0.161789
H8    H     H_    0.120758 0.260305 0.501175 0.156819
H9    H     H_    0.376140 0.237085 0.493845 0.156531
H10   H     H_    0.387957 0.177091 0.617533 0.126665
H11   H     H_    0.307076 0.904606 0.481543 0.133149
H12   H     H_    0.827511 0.721632 0.331685 0.127084
H13   H     H_    0.181479 0.882706 0.358992 0.134670
H14   H     H_    0.156856 0.006957 0.365489 0.101728
H15   H     H_    0.407418 0.491093 0.806593 0.128896
H16   H     H_    0.556072 0.618001 0.909901 0.138462
H17   H     H_    0.680068 0.620685 0.887570 0.131892
H18   H     H_    0.505983 0.368037 0.656991 0.104834
H19   H     H_    0.382892 0.366148 0.681095 0.140734
H20   H     H_    0.738477 0.496700 0.876737 0.164712
H21   H     H_    0.758382 0.496332 0.619291 0.153473
H22   H     H_    0.940819 0.626010 0.736531 0.122229
H23   H     H_    0.530822 0.904287 0.596088 0.176946
H24   H     H_    0.062926 0.625717 0.711745 0.124445
H25   H     H_    0.987509 0.370172 0.683938 0.140905
H26   H     H_    0.865517 0.369729 0.709666 0.105107
H27   H     H_    0.022174 0.687436 0.591650 0.123125
H28   H     H_    0.786594 0.676983 0.793825 0.175998
H29   H     H_    0.151487 0.800516 0.607227 0.135620
H30   H     H_    0.142819 0.824140 0.483315 0.137429
H31   H     H_    0.874882 0.618275 0.325926 0.150002
H32   H     H_    0.884270 0.596289 0.450777 0.136962
H33   H     H_    0.998205 0.618295 0.257294 0.154250
H34   H     H_    0.323101 0.644159 0.479284 0.159806
H35   H     H_    0.998690 0.879192 0.241926 0.145486
H36   H     H_    0.119413 0.904731 0.195314 0.123391
H37   H     H_    0.128823 0.931967 0.077828 0.137307
H38   H     H_    0.021091 0.820244 0.923745 0.137905
H39   H     H_    0.903170 0.681729 0.887777 0.130233
H40   H     H_    0.888587 0.655440 0.004017 0.108240
H41   H     H_    0.307426 0.607632 0.963532 0.152019
H42   H     H_    0.204519 0.317302 0.944948 0.172344
H43   H     H_    0.350853 0.439008 0.061868 0.166045
H44   H     H_    0.138303 0.256602 0.758128 0.161327
H45   H     H_    0.446206 0.715532 0.337154 0.161728
H46   H     H_    0.810360 0.199439 0.556951 0.141207
H47   H     H_    0.618880 0.625056 0.362659 0.163880
H48   H     H_    0.613867 0.929653 0.394199 0.141889
H49   H     H_    0.836275 0.009197 0.630111 0.200616
H50   H     H_    0.604424 0.752087 0.315195 0.177843
H51   H     H_    0.571004 0.743410 0.172782 0.210172
H52   H     H_    0.785850 0.805276 0.888573 0.189667
H53   H     H_    0.254452 0.636762 0.258061 0.157289
H54   H     H_    0.228556 0.438448 0.623710 0.120315
H55   H     H_    0.410277 0.051813 0.610572 0.142733
H56   H     H_    0.540163 0.865680 0.461389 0.190058
H57   H     H_    0.779290 0.656229 0.654102 0.142925
H58   H     H_    0.086595 0.498089 0.685761 0.118262
H59   H     H_    0.160727 0.486607 0.846473 0.162874
H60   H     H_    0.862732 0.243507 0.741661 0.163783
H61   H     H_    0.670579 0.082736 0.424720 0.162423
H62   H     H_    0.243949 0.362001 0.241614 0.168433
H63   H     H_    0.953847 0.141187 0.079126 0.183942
H64   H     H_    0.914794 0.096630 0.925695 0.226544
O1    O     O_R   0.408360 0.551710 0.460090 -0.616608
O2    O     O_R   0.948290 0.356630 0.908390 -0.613664
O3    O     O_R   0.143340 0.551690 0.091580 -0.619252
O4    O     O_R   0.408400 0.448280 0.356670 -0.625223
O5    O     O_R   0.039900 0.448270 0.091610 -0.609466
O6    O     O_R   0.051710 0.643320 0.091560 -0.618409
O7    O     O_R   0.948270 0.539900 0.091590 -0.612974
O8    O     O_R   0.960100 0.551680 0.908340 -0.611542
O9    O     O_R   0.856660 0.448270 0.908370 -0.619441
O10   O     O_R   0.591600 0.643340 0.551710 -0.596725
O11   O     O_R   0.591630 0.539900 0.448290 -0.634081
O12   O     O_R   0.948280 0.908380 0.356650 -0.609733
O13   O     O_R   0.591600 0.551720 0.643330 -0.603199
O14   O     O_R   0.591640 0.448290 0.539910 -0.628914
O15   O     O_R   0.408370 0.460100 0.551710 -0.607208
O16   O     O_R   0.408400 0.356660 0.448290 -0.624771
O17   O     O_R   0.051730 0.908360 0.460060 -0.630822
O18   O     O_R   0.960110 0.908350 0.551690 -0.570742
O19   O     O_R   0.856660 0.908370 0.448270 -0.620606
O20   O     O_R   0.051720 0.091580 0.643310 -0.607882
O21   O     O_R   0.948270 0.091600 0.539890 -0.621654
O22   O     O_R   0.143340 0.091590 0.551680 -0.618073
O23   O     O_R   0.039890 0.091610 0.448270 -0.620576
O24   O     O_R   0.051730 0.460050 0.908360 -0.617489
Zn1   Zn    Zn3+2 0.499980 0.569060 0.569060 1.025825
Zn2   Zn    Zn3+2 0.500020 0.430940 0.430940 0.953680
Zn3   Zn    Zn3+2 0.069070 0.999960 0.569030 1.000995
Zn4   Zn    Zn3+2 0.930930 0.999990 0.430930 0.984120
Zn5   Zn    Zn3+2 0.069070 0.569030 0.999960 0.974448
Zn6   Zn    Zn3+2 0.930930 0.430930 0.000000 0.992518

loop_
_geom_bond_atom_site_label_1
_geom_bond_atom_site_label_2
_ccdc_geom_bond_type
C111  H22   S    
C16   C21   A    
C4    O24   A    
C41   C42   A    
C108  C120  A    
C105  C116  S    
C35   C36   A    
C24   C27   A    
C60   O14   A    
C67   F4    S    
C14   C33   A    
C97   C98   A    
C57   C58   A    
C11   H31   S    
C72   O16   A    
C54   C65   S    
C85   C86   A    
O14   Zn2   S    
C84   F3    S    
O1    Zn1   S    
O19   Zn4   S    
C48   O11   A    
O13   Zn1   S    
C119  O20   A    
C93   C94   A    
O12   Zn4   S    
C80   H4    S    
C35   H48   S    
C55   H40   S    
O10   Zn1   S    
C36   C37   A    
C76   C78   A    
C18   C19   A    
O22   Zn3   S    
C84   C96   A    
C30   C31   A    
C50   H12   S    
C53   H34   S    
C106  C107  A    
C45   C51   A    
C3    O23   A    
C115  C116  A    
C74   H5    S    
C48   O10   A    
C70   H2    S    
C56   C57   A    
C69   H64   S    
C34   C35   A    
C26   F6    S    
C32   C39   A    
C7    O8    A    
C59   H53   S    
C2    C13   A    
O24   Zn5   S    
C22   C66   A    
C23   H37   S    
C52   F2    S    
C88   H59   S    
C2    C110  A    
C62   C63   A    
C111  C112  A    
C77   C88   A    
C100  H18   S    
C8    C9    A    
C103  H20   S    
C112  H24   S    
C62   C73   S    
C70   C71   A    
C67   C73   A    
C31   C99   S    
C117  O12   A    
C9    C10   A    
C114  H25   S    
C15   H27   S    
C61   C62   A    
C95   C102  A    
C2    H43   S    
C5    O3    A    
C103  C109  A    
C41   H47   S    
C95   H16   S    
C106  H21   S    
C74   C80   A    
C120  H57   S    
C33   H52   S    
C107  C109  A    
C36   F8    S    
O9    Zn6   S    
C24   H44   S    
C8    H29   S    
C25   C44   A    
C104  C105  A    
O21   Zn4   S    
C26   C43   A    
C114  C115  A    
C72   O15   A    
C13   C77   A    
C10   C21   S    
O16   Zn2   S    
C37   C39   A    
C54   C56   A    
C59   C61   A    
O15   Zn1   S    
C74   C75   A    
C67   C68   A    
O17   Zn3   S    
C101  C102  A    
C1    O4    A    
C47   C49   A    
O5    Zn6   S    
C91   C92   A    
C6    O6    A    
C86   C87   A    
C16   C17   A    
C5    O5    A    
C68   H63   S    
C50   C51   A    
C53   C54   A    
C99   C110  A    
C32   H46   S    
C82   C83   A    
C81   C82   A    
O18   Zn3   S    
C79   C80   A    
C118  O19   A    
C3    O22   A    
C44   H39   S    
C32   C34   A    
C42   C48   S    
C1    O1    A    
C75   C76   A    
C29   C30   A    
C22   H36   S    
O4    Zn2   S    
C12   C15   A    
C49   F1    S    
O6    Zn5   S    
C3    C82   S    
C17   C18   A    
C5    C61   S    
O7    Zn6   S    
C19   H35   S    
C52   C53   A    
C12   H32   S    
C92   H13   S    
C78   H6    S    
C76   C87   S    
C81   C87   A    
C60   C107  S    
C52   C58   A    
C45   H50   S    
C91   H11   S    
C110  H42   S    
C40   C41   A    
C83   C85   A    
C47   H1    S    
C49   C50   A    
C8    C15   A    
C98   C100  A    
C7    C104  S    
C115  H26   S    
C25   H38   S    
C102  H15   S    
C4    O2    A    
C63   H62   S    
C1    C64   S    
C85   H9    S    
C103  C104  A    
C55   C66   A    
C79   H7    S    
C58   H23   S    
C81   H8    S    
C71   C73   A    
C113  C114  A    
C6    C17   S    
C46   C47   A    
C28   C29   A    
O11   Zn2   S    
C14   H28   S    
C20   C21   A    
C78   C79   A    
C97   H17   S    
C46   H51   S    
C68   C69   A    
C34   H61   S    
C26   C38   A    
C89   C94   A    
C72   C86   S    
C11   C12   A    
C95   C97   A    
C119  O21   A    
O20   Zn3   S    
C27   C119  S    
C16   H33   S    
C18   C66   S    
C40   C51   S    
C37   H49   S    
C105  C106  A    
C14   C120  A    
C28   C39   S    
C29   H60   S    
O2    Zn6   S    
C56   H45   S    
C118  O18   A    
C111  C116  A    
C64   C65   A    
C19   C20   A    
C117  O17   A    
C24   C31   A    
O3    Zn5   S    
C7    O9    A    
O8    Zn5   S    
O23   Zn4   S    
C59   C65   A    
C38   C40   A    
C83   C94   S    
C44   C55   A    
C101  H19   S    
C90   C91   A    
C6    O7    A    
C9    H30   S    
C113  H58   S    
C92   C93   A    
C96   F5    S    
C112  C113  A    
C43   C108  S    
C23   C25   A    
C96   C108  A    
C69   C70   A    
C60   O13   A    
C33   C84   A    
C88   C99   A    
C10   C11   A    
C71   H3    S    
C63   C64   A    
C13   F7    S    
C45   C46   A    
C90   H55   S    
C77   H41   S    
C89   H10   S    
C42   C43   A    
C27   C28   A    
C98   C109  S    
C22   C23   A    
C38   C118  S    
C100  C101  A    
C89   C90   A    
C75   H54   S    
C20   C117  S    
C57   H56   S    
C4    C30   S    
C93   H14   S    
