data_mof_unit_29985.cif
_audit_creation_date              2012-12-11T14:01:19-0500
_audit_creation_method            fapswitch 2.2
_symmetry_space_group_name_H-M    P1
_symmetry_Int_Tables_number       1
_space_group_crystal_system       triclinic
_cell_length_a                    19.020344
_cell_length_b                    11.066635
_cell_length_c                    18.733296
_cell_angle_alpha                 90.256342
_cell_angle_beta                  90.6697
_cell_angle_gamma                 90.008039
_cell_volume                      3942.88514901

loop_
_atom_site_label
_atom_site_type_symbol
_atom_type_description
_atom_site_fract_x
_atom_site_fract_y
_atom_site_fract_z
_atom_type_partial_charge
C1    C     C_R   0.272627 0.043460 0.853051 0.571960
C2    C     C_R   0.036866 0.645448 0.960626 0.264475
C3    C     C_R   0.461937 0.144862 0.041941 0.263575
C4    C     C_R   0.487161 0.160572 0.972632 0.270599
C5    C     C_2   0.278788 0.693996 0.935812 0.150005
C6    C     C_2   0.718850 0.672759 0.067451 0.210660
C7    C     C_2   0.780754 0.172617 0.932780 0.211950
C8    C     C_2   0.220853 0.194338 0.064450 0.147106
C9    C     C_2   0.245493 0.585385 0.075973 0.020154
C10   C     C_2   0.753147 0.588892 0.922074 -0.006586
C11   C     C_2   0.746972 0.088638 0.078114 -0.005459
C12   C     C_R   0.727148 0.041966 0.146860 0.573184
C13   C     C_2   0.254481 0.085788 0.924124 0.019526
C14   C     C_2   0.310927 0.599235 0.051360 0.283225
C15   C     C_2   0.713774 0.527605 0.968692 0.312656
C16   C     C_2   0.786126 0.027344 0.030999 0.312661
C17   C     C_2   0.188938 0.099491 0.948567 0.282906
C18   C     C_2   0.321172 0.620212 0.974057 -0.077155
C19   C     C_2   0.721247 0.558624 0.043779 -0.012963
C20   C     C_2   0.778547 0.058453 0.955981 -0.012885
C21   C     C_2   0.178467 0.120552 0.025879 -0.076793
C22   C     C_2   0.509845 0.835948 0.584427 -0.097696
C23   C     C_R   0.772887 0.542181 0.853162 0.569774
C24   C     C_2   0.512789 0.828052 0.427950 -0.102414
C25   C     C_2   0.986844 0.324488 0.572380 -0.102313
C26   C     C_2   0.986181 0.341269 0.414208 -0.110403
C27   C     C_2   0.543415 0.746492 0.471798 -0.144348
C28   C     C_2   0.529049 0.738970 0.547419 -0.139108
C29   C     C_2   0.964443 0.247440 0.452176 -0.142156
C30   C     C_2   0.944330 0.265482 0.526055 -0.126161
C31   C     C_2   0.250081 0.584491 0.574603 0.226175
C32   C     C_2   0.752022 0.597585 0.428700 0.210790
C33   C     C_2   0.752175 0.089915 0.572096 0.212998
C34   C     C_R   0.227410 0.543292 0.146987 0.576533
C35   C     C_2   0.252823 0.096812 0.428351 0.219424
C36   C     C_2   0.259082 0.610171 0.412129 -0.080816
C37   C     C_2   0.739838 0.611390 0.589798 -0.093876
C38   C     C_2   0.763535 0.112484 0.409106 -0.097741
C39   C     C_2   0.239930 0.109551 0.589114 -0.089358
C40   C     C_R   0.473384 0.823217 0.851691 0.569268
C41   C     C_R   0.531631 0.819438 0.144353 0.629813
C42   C     C_R   0.968248 0.319705 0.855730 0.627437
C43   C     C_R   0.026506 0.322967 0.148454 0.571317
C44   C     C_2   0.214315 0.667436 0.454533 -0.057132
C45   C     C_R   0.461344 0.029521 0.072663 0.217483
C46   C     C_2   0.783852 0.676544 0.551423 -0.077839
C47   C     C_2   0.723744 0.179541 0.451021 -0.070767
C48   C     C_2   0.283649 0.175840 0.551268 -0.083024
C49   C     C_2   0.201903 0.634568 0.529939 0.021053
C50   C     C_2   0.796237 0.661302 0.474029 0.017043
C51   C     C_2   0.707530 0.146043 0.525798 0.025998
C52   C     C_2   0.296074 0.162140 0.473872 0.011212
C53   C     C_R   0.277060 0.694385 0.857290 0.593794
C54   C     C_R   0.722429 0.693817 0.143245 0.603464
C55   C     C_R   0.777437 0.193714 0.856976 0.601715
C56   C     C_R   0.508919 0.060060 0.932574 0.236357
C57   C     C_R   0.222841 0.194386 0.142900 0.596658
C58   C     C_R   0.269463 0.050861 0.651620 0.557470
C59   C     C_R   0.730620 0.050875 0.348605 0.545047
C60   C     C_R   0.769441 0.551218 0.651807 0.550267
C61   C     C_R   0.230124 0.550774 0.349022 0.546984
C62   C     C_R   0.471834 0.823763 0.649708 0.567000
C63   C     C_R   0.532223 0.823157 0.353630 0.563986
C64   C     C_R   0.968228 0.322556 0.646743 0.559675
C65   C     C_R   0.028088 0.324660 0.350717 0.558259
C66   C     C_R   0.260229 0.637046 0.645478 0.596631
C67   C     C_R   0.989967 0.559698 0.069327 0.236725
C68   C     C_R   0.739754 0.640560 0.355807 0.588014
C69   C     C_R   0.760639 0.138395 0.644592 0.580309
C70   C     C_R   0.239867 0.140377 0.355701 0.599833
C71   C     C_R   0.508096 0.819280 0.068879 0.030290
C72   C     C_R   0.511829 0.836090 0.919817 0.023866
C73   C     C_R   0.987839 0.335588 0.080525 0.023898
C74   C     C_R   0.991313 0.319735 0.931355 0.030200
C75   C     C_R   0.490334 0.929897 0.035256 -0.107540
C76   C     C_R   0.503835 0.942324 0.961643 -0.097016
C77   C     C_R   0.995295 0.442173 0.039401 -0.096194
C78   C     C_R   0.037624 0.530315 0.929033 0.217741
C79   C     C_R   0.008784 0.430309 0.965701 -0.107693
C80   C     C_R   0.530898 0.728340 0.952447 0.268178
C81   C     C_R   0.525931 0.716465 0.025777 0.273798
C82   C     C_R   0.973694 0.216514 0.973831 0.274050
C83   C     C_R   0.969012 0.227879 0.047261 0.267216
C84   C     C_3   0.126639 0.649738 0.554214 -0.269766
C85   C     C_3   0.078072 0.574768 0.506287 -0.461141
C86   C     C_3   0.862698 0.724371 0.445937 -0.247009
C87   C     C_3   0.924514 0.734965 0.498477 -0.446701
C88   C     C_3   0.631755 0.166805 0.546321 -0.269379
C89   C     C_R   0.011592 0.660576 0.030041 0.270305
C90   C     C_3   0.583864 0.098678 0.494188 -0.448088
C91   C     C_3   0.361599 0.228361 0.446116 -0.245263
C92   C     C_3   0.423024 0.241123 0.498871 -0.444924
Cl1   Cl    Cl    0.564113 0.608433 0.899640 -0.398763
Cl2   Cl    Cl    0.554774 0.085329 0.852212 -0.468795
Cl3   Cl    Cl    0.944264 0.584104 0.150000 -0.468179
Cl4   Cl    Cl    0.085624 0.510169 0.849316 -0.489055
Cl5   Cl    Cl    0.010322 0.805913 0.069189 -0.307361
Cl6   Cl    Cl    0.063057 0.772430 0.910947 -0.311853
Cl7   Cl    Cl    0.435786 0.271425 0.092656 -0.314613
Cl8   Cl    Cl    0.488431 0.306256 0.934678 -0.305697
Cl9   Cl    Cl    0.384343 0.578850 0.107579 -0.425314
Cl10  Cl    Cl    0.664120 0.396397 0.948371 -0.375359
Cl11  Cl    Cl    0.835573 0.895963 0.050625 -0.378024
Cl12  Cl    Cl    0.545523 0.569449 0.059113 -0.341710
Cl13  Cl    Cl    0.115651 0.079127 0.892035 -0.428673
Cl14  Cl    Cl    0.227358 0.805422 0.978542 -0.567253
Cl15  Cl    Cl    0.686056 0.791834 0.014210 -0.672043
Cl16  Cl    Cl    0.813293 0.291884 0.986679 -0.672660
Cl17  Cl    Cl    0.272410 0.305620 0.022282 -0.568984
Cl18  Cl    Cl    0.954221 0.069369 0.939724 -0.342464
Cl19  Cl    Cl    0.936444 0.107399 0.099405 -0.395549
Cl20  Cl    Cl    0.315833 0.483425 0.547839 -0.719080
Cl21  Cl    Cl    0.697512 0.476431 0.453779 -0.715465
Cl22  Cl    Cl    0.817407 0.986389 0.546424 -0.736777
Cl23  Cl    Cl    0.202302 0.969935 0.452568 -0.674674
Cl24  Cl    Cl    0.413660 0.008652 0.152406 -0.482673
Cr1   Cr    Cr6+3 0.230530 0.836340 0.748870 1.149273
Cr2   Cr    Cr6+3 0.614360 0.677860 0.250770 1.139870
Cr3   Cr    Cr6+3 0.885640 0.177860 0.749230 1.142340
Cr4   Cr    Cr6+3 0.114360 0.177860 0.250770 1.126203
Cr5   Cr    Cr6+3 0.769470 0.836340 0.251130 1.126865
Cr6   Cr    Cr6+3 0.730530 0.336340 0.748870 1.136618
Cr7   Cr    Cr6+3 0.269470 0.336340 0.251130 1.138054
Cr8   Cr    Cr6+3 0.387420 0.989430 0.750820 1.100640
Cr9   Cr    Cr6+3 0.612580 0.989430 0.249180 1.096635
Cr10  Cr    Cr6+3 0.887420 0.489430 0.750820 1.098388
Cr11  Cr    Cr6+3 0.112580 0.489430 0.249180 1.098618
Cr12  Cr    Cr6+3 0.385640 0.677860 0.749230 1.125951
H1    H     H_    0.170138 0.712587 0.428840 0.194898
H2    H     H_    0.729282 0.484569 0.080983 0.173074
H3    H     H_    0.770726 0.984335 0.918386 0.171680
H4    H     H_    0.139559 0.065040 0.052212 0.201055
H5    H     H_    0.200835 0.595325 0.039781 0.137589
H6    H     H_    0.784876 0.664513 0.941136 0.149848
H7    H     H_    0.715297 0.164344 0.059518 0.149549
H8    H     H_    0.299068 0.095613 0.960469 0.137415
H9    H     H_    0.577735 0.676466 0.450995 0.194702
H10   H     H_    0.529945 0.649744 0.571416 0.178005
H11   H     H_    0.966397 0.155727 0.431383 0.180321
H12   H     H_    0.823506 0.725494 0.581563 0.195953
H13   H     H_    0.897123 0.220344 0.544259 0.188603
H14   H     H_    0.478552 0.899515 0.446816 0.102762
H15   H     H_    0.511732 0.924253 0.561657 0.095455
H16   H     H_    0.979723 0.432431 0.434835 0.110704
H17   H     H_    0.037422 0.358948 0.557001 0.095668
H18   H     H_    0.066132 0.621966 0.455519 0.162117
H19   H     H_    0.102733 0.486577 0.493062 0.168449
H20   H     H_    0.028635 0.557984 0.534644 0.135964
H21   H     H_    0.119054 0.615973 0.609362 0.185189
H22   H     H_    0.111107 0.746507 0.552368 0.189155
H23   H     H_    0.682536 0.230430 0.424221 0.201173
H24   H     H_    0.918134 0.812030 0.535660 0.219798
H25   H     H_    0.929300 0.650552 0.529575 0.156630
H26   H     H_    0.973441 0.752342 0.468641 0.152656
H27   H     H_    0.884086 0.669715 0.401184 0.177101
H28   H     H_    0.849336 0.816496 0.426725 0.217600
H29   H     H_    0.578816 0.145269 0.442126 0.175124
H30   H     H_    0.603506 0.005313 0.485482 0.176954
H31   H     H_    0.531498 0.093974 0.516934 0.122228
H32   H     H_    0.620115 0.130999 0.600210 0.180388
H33   H     H_    0.619273 0.264896 0.545393 0.194766
H34   H     H_    0.322531 0.225964 0.581795 0.197340
H35   H     H_    0.416367 0.318553 0.535563 0.222765
H36   H     H_    0.427722 0.157607 0.530966 0.152844
H37   H     H_    0.471944 0.258810 0.469010 0.153208
H38   H     H_    0.384014 0.174710 0.401471 0.179249
H39   H     H_    0.346996 0.319921 0.426900 0.218757
H40   H     H_    0.310257 0.580798 0.429858 0.179668
H41   H     H_    0.689521 0.580695 0.569953 0.171567
H42   H     H_    0.813959 0.078695 0.426464 0.171083
H43   H     H_    0.190441 0.076509 0.568345 0.181001
H44   H     H_    0.360102 0.564788 0.947420 0.200475
O1    O     O_R   0.215090 0.709860 0.828130 -0.381886
O2    O     O_R   0.543740 0.718170 0.330000 -0.493193
O3    O     O_R   0.956260 0.218170 0.670000 -0.484219
O4    O     O_R   0.043740 0.218170 0.330000 -0.491622
O5    O     O_R   0.320940 0.626760 0.674370 -0.442832
O6    O     O_R   0.679060 0.626760 0.325630 -0.460133
O7    O     O_R   0.820940 0.126760 0.674370 -0.456999
O8    O     O_R   0.179060 0.126760 0.325630 -0.446270
O9    O     O_3   0.334530 0.834540 0.749640 -0.333593
O10   O     O_3   0.665470 0.834540 0.250360 -0.331025
O11   O     O_3   0.834530 0.334540 0.749640 -0.332007
O12   O     O_R   0.784910 0.709860 0.171870 -0.416078
O13   O     O_3   0.165470 0.334540 0.250360 -0.334355
O14   O     O_R   0.236990 0.958390 0.823710 -0.446296
O15   O     O_R   0.763010 0.958390 0.176290 -0.445454
O16   O     O_R   0.736990 0.458390 0.823710 -0.447134
O17   O     O_R   0.263010 0.458390 0.176290 -0.443110
O18   O     O_R   0.332380 0.074750 0.830850 -0.497947
O19   O     O_R   0.667620 0.074750 0.169150 -0.504274
O20   O     O_R   0.832380 0.574750 0.830850 -0.505384
O21   O     O_R   0.167620 0.574750 0.169150 -0.496294
O22   O     O_R   0.445800 0.917770 0.825070 -0.474689
O23   O     O_R   0.715090 0.209860 0.828130 -0.418466
O24   O     O_R   0.554200 0.917770 0.174930 -0.465285
O25   O     O_R   0.945800 0.417770 0.825070 -0.465670
O26   O     O_R   0.054200 0.417770 0.174930 -0.474338
O27   O     O_R   0.456410 0.716580 0.829970 -0.472406
O28   O     O_R   0.543590 0.716580 0.170030 -0.437270
O29   O     O_R   0.956410 0.216580 0.829970 -0.438643
O30   O     O_R   0.043590 0.216580 0.170030 -0.471210
O31   O     O_R   0.321080 0.625290 0.822650 -0.505770
O32   O     O_R   0.678920 0.625290 0.177350 -0.496195
O33   O     O_R   0.821080 0.125290 0.822650 -0.498070
O34   O     O_R   0.284910 0.209860 0.171870 -0.377410
O35   O     O_R   0.178920 0.125290 0.177350 -0.501273
O36   O     O_R   0.214930 0.711450 0.668160 -0.534120
O37   O     O_R   0.785070 0.711450 0.331840 -0.550715
O38   O     O_R   0.714930 0.211450 0.668160 -0.532904
O39   O     O_R   0.285070 0.211450 0.331840 -0.552155
O40   O     O_R   0.236850 0.959870 0.675420 -0.485985
O41   O     O_R   0.763150 0.959870 0.324580 -0.505197
O42   O     O_R   0.736850 0.459870 0.675420 -0.491217
O43   O     O_R   0.263150 0.459870 0.324580 -0.502761
O44   O     O_R   0.332230 0.076350 0.670880 -0.510501
O45   O     O_R   0.445660 0.919250 0.676780 -0.489520
O46   O     O_R   0.667770 0.076350 0.329120 -0.513663
O47   O     O_R   0.832230 0.576350 0.670880 -0.514783
O48   O     O_R   0.167770 0.576350 0.329120 -0.507554
O49   O     O_R   0.554340 0.919250 0.323220 -0.488395
O50   O     O_R   0.945660 0.419250 0.676780 -0.485767
O51   O     O_R   0.054340 0.419250 0.323220 -0.491973
O52   O     O_R   0.456260 0.718170 0.670000 -0.489939

loop_
_geom_bond_atom_site_label_1
_geom_bond_atom_site_label_2
_ccdc_geom_bond_type
C44   C49   S    
C43   C73   S    
C31   C66   S    
C55   O23   A    
Cr10  O25   S    
C75   C76   A    
C90   H30   S    
C74   C79   A    
C56   C76   A    
Cr7   O43   S    
Cr4   O30   S    
C63   O49   A    
C91   H38   S    
C67   C77   A    
C61   O48   A    
C7    C55   S    
Cr6   O23   S    
C72   C76   A    
Cr1   O36   S    
Cr2   O28   S    
Cr4   O13   S    
Cr12  O52   S    
Cr8   O18   S    
C31   C49   D    
C53   O1    A    
C40   O22   A    
C1    O14   A    
C15   C19   S    
C6    C19   D    
C33   Cl22  S    
C27   H9    S    
C30   H13   S    
C82   Cl18  S    
C49   C84   S    
C91   H39   S    
C6    C54   S    
C41   O24   A    
C11   H7    S    
C10   C15   D    
Cr11  O21   S    
C37   H41   S    
C23   O16   A    
Cr1   O9    S    
C22   C62   S    
C88   H33   S    
Cr10  O50   S    
C36   H40   S    
C90   H31   S    
C86   H28   S    
C39   H43   S    
Cr3   O29   S    
Cr3   O3    S    
C92   H37   S    
Cr4   O4    S    
C35   C70   S    
C24   H14   S    
Cr7   O39   S    
C22   H15   S    
C6    Cl15  S    
C24   C27   D    
C35   Cl23  S    
Cr3   O33   S    
Cr5   O37   S    
C32   Cl21  S    
Cr7   O17   S    
C37   C46   D    
C33   C69   S    
C41   C71   S    
C27   C28   S    
C84   H21   S    
C92   H36   S    
C19   H2    S    
C77   C79   A    
C22   C28   D    
C4    C56   A    
C67   Cl3   S    
C70   O39   A    
Cr4   O35   S    
Cr10  O11   S    
Cr3   O7    S    
C74   C82   A    
C41   O28   A    
C26   H16   S    
C68   O37   A    
C55   O33   A    
C23   O20   A    
Cr11  O48   S    
C38   H42   S    
C5    Cl14  S    
Cr2   O10   S    
C29   H11   S    
C66   O5    A    
C18   H44   S    
C42   C74   S    
Cr1   O14   S    
C62   O45   A    
C10   H6    S    
C28   H10   S    
C85   H18   S    
Cr9   O46   S    
C78   Cl4   S    
C91   C92   S    
C86   C87   S    
C14   Cl9   S    
C47   C51   S    
C5    C18   D    
Cr9   O24   S    
C44   H1    S    
C39   C58   S    
C57   O34   A    
C3    C45   A    
C17   C21   S    
Cr6   O42   S    
Cr7   O34   S    
C89   Cl5   S    
C25   C64   S    
Cr5   O41   S    
Cr7   O13   S    
C2    C89   A    
C56   Cl2   S    
C9    C14   D    
C21   H4    S    
C29   C30   S    
C2    C78   A    
Cr2   O2    S    
C17   Cl13  S    
C8    C57   S    
Cr5   O15   S    
C66   O36   A    
C11   C16   D    
C16   Cl11  S    
Cr6   O16   S    
C53   O31   A    
C16   C20   S    
C43   O30   A    
C87   H25   S    
C8    C21   D    
C87   H26   S    
C64   O50   A    
Cr9   O19   S    
C86   H27   S    
Cr3   O11   S    
C84   C85   S    
C64   O3    A    
Cr10  O20   S    
C32   C50   D    
C38   C47   D    
Cr6   O38   S    
Cr2   O6    S    
C92   H35   S    
Cr6   O11   S    
C88   C90   S    
C7    C20   D    
C24   C63   S    
C62   O52   A    
C87   H24   S    
Cr5   O12   S    
C65   O4    A    
C9    C34   S    
C13   H8    S    
C83   Cl19  S    
C60   O47   A    
C1    C13   S    
C20   H3    S    
C3    C4    A    
C34   O17   A    
Cr11  O26   S    
C65   O51   A    
C85   H20   S    
Cr10  O47   S    
C34   O21   A    
C63   O2    A    
C46   H12   S    
C9    H5    S    
Cr8   O44   S    
Cr1   O1    S    
C25   C30   D    
C12   O19   A    
C57   O35   A    
Cr8   O45   S    
C73   C77   A    
C40   C72   S    
Cr9   O10   S    
C78   C79   A    
C26   C65   S    
C14   C18   S    
C42   O25   A    
Cr2   O32   S    
Cr12  O9    S    
C85   H19   S    
C47   H23   S    
C80   C81   A    
C52   C91   S    
C59   O46   A    
C51   C88   S    
C31   Cl20  S    
C25   H17   S    
C11   C12   S    
C59   O41   A    
C69   O38   A    
C40   O27   A    
Cr11  O51   S    
C10   C23   S    
C33   C51   D    
C46   C50   S    
C13   C17   D    
C45   C75   A    
C90   H29   S    
C4    Cl8   S    
C5    C53   S    
Cr12  O27   S    
Cr8   O9    S    
Cr1   O40   S    
C8    Cl17  S    
C1    O18   A    
Cr9   O49   S    
C71   C75   A    
C12   O15   A    
C45   Cl24  S    
C70   O8    A    
C54   O32   A    
C68   O6    A    
Cr11  O13   S    
C73   C83   A    
C43   O26   A    
C54   O12   A    
C88   H32   S    
C15   Cl10  S    
Cr4   O8    S    
C32   C68   S    
C37   C60   S    
C36   C44   D    
C50   C86   S    
C38   C59   S    
C3    Cl7   S    
C48   C52   S    
C48   H34   S    
C2    Cl6   S    
C26   C29   D    
C72   C80   A    
C82   C83   A    
Cr8   O22   S    
C35   C52   D    
C67   C89   A    
C58   O40   A    
C7    Cl16  S    
Cr5   O10   S    
C42   O29   A    
C60   O42   A    
Cr12  O5    S    
C61   O43   A    
C80   Cl1   S    
Cr12  O31   S    
C69   O7    A    
C36   C61   S    
C84   H22   S    
C39   C48   D    
C71   C81   A    
C81   Cl12  S    
C58   O44   A    
