data_mof_unit_19548.cif
_audit_creation_date              2012-12-10T18:45:11-0500
_audit_creation_method            fapswitch 2.2
_symmetry_space_group_name_H-M    P1
_symmetry_Int_Tables_number       1
_space_group_crystal_system       triclinic
_cell_length_a                    10.702941
_cell_length_b                    9.940352
_cell_length_c                    10.579226
_cell_angle_alpha                 90.108019
_cell_angle_beta                  89.417182
_cell_angle_gamma                 90.50665
_cell_volume                      1125.43039753

loop_
_atom_site_label
_atom_site_type_symbol
_atom_type_description
_atom_site_fract_x
_atom_site_fract_y
_atom_site_fract_z
_atom_type_partial_charge
C1    C     C_R   0.260373 0.499313 0.501443 0.873242
C2    C     C_R   0.739474 0.500481 0.502105 0.907379
C3    C     C_R   0.937211 0.589670 0.430772 -0.158230
C4    C     C_R   0.065255 0.587725 0.428836 -0.132680
C5    C     C_R   0.598535 0.072508 0.547145 -0.078306
C6    C     C_R   0.402148 0.070570 0.451360 0.029501
C7    C     C_R   0.598356 0.929392 0.547601 -0.013141
C8    C     C_R   0.402184 0.927428 0.451284 -0.033741
C9    C     C_R   0.523224 0.501141 0.262631 0.914138
C10   C     C_R   0.492209 0.501405 0.742270 0.960103
C11   C     C_R   0.602708 0.749974 0.124236 -0.170475
C12   C     C_R   0.481897 0.758935 0.894200 -0.183583
C13   C     C_R   0.577971 0.874362 0.070386 -0.059630
C14   C     C_R   0.521390 0.878529 0.950762 -0.062931
C15   C     C_R   0.513598 0.632746 0.944472 0.060861
C16   C     C_R   0.561767 0.630094 0.066613 0.064319
C17   C     C_R   0.561352 0.507001 0.130821 -0.254016
C18   C     C_R   0.493930 0.508221 0.880534 -0.213692
C19   C     C_R   0.562181 0.388591 0.063350 0.315002
C20   C     C_R   0.504347 0.387441 0.947199 0.242206
C21   C     C_R   0.063007 0.410359 0.589103 -0.102329
C22   C     C_R   0.932924 0.412129 0.591551 -0.101173
C23   C     C_R   0.871812 0.501379 0.509914 -0.086352
C24   C     C_R   0.127581 0.497710 0.506224 -0.104561
H1    H     H_    0.650613 0.747148 0.213932 0.187510
H2    H     H_    0.422830 0.767495 0.812771 0.215625
H3    H     H_    0.888924 0.657661 0.368245 0.163445
H4    H     H_    0.115865 0.655090 0.365699 0.161091
H5    H     H_    0.677180 0.126593 0.585935 0.185233
H6    H     H_    0.323540 0.123163 0.412089 0.174085
H7    H     H_    0.677070 0.876824 0.586691 0.156192
H8    H     H_    0.323617 0.873246 0.411850 0.142149
N1    N     N_R   0.500000 0.857200 0.500000 -0.101867
N2    N     N_R   0.500000 0.142810 0.500000 -0.116069
O1    O     O_R   0.316770 0.614620 0.499990 -0.622157
O2    O     O_R   0.683230 0.614620 0.500010 -0.632193
O3    O     O_R   0.316800 0.385290 0.500000 -0.600551
O4    O     O_R   0.683200 0.385290 0.500000 -0.624826
O5    O     O_R   0.500010 0.614690 0.316770 -0.635451
O6    O     O_R   0.499990 0.614690 0.683230 -0.632492
O7    O     O_R   0.500040 0.385360 0.316770 -0.568247
O8    O     O_R   0.499960 0.385360 0.683230 -0.585877
Zn1   Zn    Zn3+2 0.500000 0.653120 0.500000 0.966737
Zn2   Zn    Zn3+2 0.500000 0.346880 0.500000 1.014471
Br1   Br    Br    0.714767 0.292265 0.079877 -0.397409
Br2   Br    Br    0.360716 0.273559 0.942933 -0.387142
C25   C     C_2   0.593164 0.994398 0.151121 0.991582
O9    O     O_2   0.513808 0.082054 0.150555 -0.585623
O10   O     O_R   0.692869 0.002396 0.235340 -0.788694
H9    H     H_    0.690560 0.086719 0.289271 0.362717
C26   C     C_2   0.514027 0.002116 0.874719 0.989733
O11   O     O_2   0.594922 0.088924 0.883525 -0.597646
O12   O     O_R   0.419395 0.014840 0.785571 -0.806866
H10   H     H_    0.426054 0.102002 0.736703 0.363457
C27   C     C_2   0.129614 0.328170 0.682361 0.981286
O13   O     O_2   0.137540 0.368135 0.791214 -0.569236
O14   O     O_R   0.174899 0.201925 0.647629 -0.761175
H11   H     H_    0.208741 0.150545 0.722151 0.382868
C28   C     C_2   0.861951 0.325756 0.682536 0.952478
O15   O     O_2   0.888385 0.207020 0.694590 -0.587314
O16   O     O_R   0.765136 0.380888 0.754437 -0.789692
H12   H     H_    0.720342 0.310535 0.807342 0.387960

loop_
_geom_bond_atom_site_label_1
_geom_bond_atom_site_label_2
_ccdc_geom_bond_type
C15   C18   A    
O5    Zn1   S    
C27   O13   D    
C19   Br1   S    
O4    Zn2   S    
C22   C28   S    
C13   C14   A    
C10   O8    A    
O1    Zn1   S    
C11   C16   A    
C2    O4    A    
C9    O7    A    
C19   C20   A    
C1    C24   S    
C12   C15   A    
C1    O3    A    
C5    N2    A    
O6    Zn1   S    
O3    Zn2   S    
C3    H3    S    
N2    Zn2   S    
C28   O15   D    
C25   O10   S    
O12   H10   S    
C7    N1    A    
O14   H11   S    
O8    Zn2   S    
C10   C18   S    
C9    C17   S    
C17   C19   A    
C12   C14   A    
C5    H5    S    
C8    N1    A    
C27   O14   S    
O16   H12   S    
C4    C24   A    
O7    Zn2   S    
C28   O16   S    
C7    H7    S    
C11   H1    S    
C26   O12   S    
C15   C16   A    
N1    Zn1   S    
C25   O9    D    
C6    N2    A    
C11   C13   A    
C26   O11   D    
C1    O1    A    
C18   C20   A    
C5    C7    A    
O10   H9    S    
C21   C24   A    
C2    O2    A    
C2    C23   S    
C21   C27   S    
C22   C23   A    
C10   O6    A    
C6    C8    A    
C4    H4    S    
C3    C23   A    
C21   C22   A    
C13   C25   S    
C6    H6    S    
C9    O5    A    
C20   Br2   S    
C3    C4    A    
C14   C26   S    
C12   H2    S    
C16   C17   A    
O2    Zn1   S    
C8    H8    S    
