data_mof_unit_34991.cif
_audit_creation_date              2013-03-05T16:12:08-0500
_audit_creation_method            fapswitch 2.2
_symmetry_space_group_name_H-M    P1
_symmetry_Int_Tables_number       1
_space_group_crystal_system       triclinic
_cell_length_a                    10.721306
_cell_length_b                    9.506565
_cell_length_c                    27.7723
_cell_angle_alpha                 90.652103
_cell_angle_beta                  89.199211
_cell_angle_gamma                 90.398933
_cell_volume                      2830.10506624

loop_
_atom_site_label
_atom_site_type_symbol
_atom_site_description
_atom_site_fract_x
_atom_site_fract_y
_atom_site_fract_z
_atom_type_partial_charge
O1    O     O_R   0.317570 0.620260 0.500030 -0.608638
O2    O     O_R   0.317570 0.379740 0.500030 -0.557324
C1    C     C_R   0.259888 0.499973 0.499642 0.754844
O3    O     O_R   0.499900 0.620250 0.430280 -0.592990
O4    O     O_R   0.499900 0.379750 0.430280 -0.593183
C2    C     C_R   0.500137 0.499267 0.407574 0.811724
Cu1   Cu    Cu3+1 0.499860 0.642410 0.500020 0.903035
Cu2   Cu    Cu3+1 0.499860 0.357590 0.500020 0.916907
O5    O     O_R   0.682190 0.620260 0.500010 -0.594403
O6    O     O_R   0.682190 0.379740 0.500010 -0.597586
O7    O     O_R   0.499860 0.620280 0.569750 -0.572294
O8    O     O_R   0.499860 0.379720 0.569750 -0.569342
C3    C     C_R   0.739748 0.500516 0.499213 0.754060
C4    C     C_R   0.498893 0.500256 0.592180 0.790864
C5    C     C_R   0.399147 0.445883 0.178300 0.578496
O9    O     O_2   0.299316 0.399598 0.203852 -0.537909
N1    N     N_R   0.502434 0.494719 0.201725 -0.455880
C6    C     C_R   0.603808 0.545636 0.176879 0.511256
C7    C     C_R   0.506856 0.366157 0.278621 0.308399
C8    C     C_R   0.504201 0.368875 0.329058 -0.297053
C9    C     C_R   0.499632 0.623859 0.328974 -0.233624
C10   C     C_R   0.500795 0.621940 0.278840 -0.163357
C11   C     C_R   0.504128 0.493939 0.253402 0.338559
C12   C     C_R   0.499785 0.495589 0.101409 -0.044584
C13   C     C_R   0.396277 0.444436 0.127786 -0.029262
C14   C     C_R   0.291976 0.393989 0.103341 -0.147297
C15   C     C_R   0.604299 0.547188 0.126358 -0.018573
C16   C     C_R   0.501136 0.497365 0.354546 -0.068877
H1    H     H_    0.497097 0.724462 0.347641 0.153770
H2    H     H_    0.498332 0.720296 0.259586 0.152568
H3    H     H_    0.210418 0.355964 0.122801 0.186443
C17   C     C_R   0.497354 0.498868 0.644684 -0.039764
C18   C     C_R   0.395520 0.432785 0.974460 0.041500
C19   C     C_R   0.599025 0.556444 0.973154 0.041662
C20   C     C_R   0.496843 0.494284 0.948528 0.067353
C21   C     C_R   0.299362 0.366038 0.948049 -0.206655
C22   C     C_R   0.300474 0.364400 0.898038 -0.147583
C23   C     C_R   0.397457 0.428727 0.872264 -0.017982
C24   C     C_R   0.495987 0.493628 0.897330 -0.044750
C25   C     C_R   0.593670 0.557900 0.871064 -0.018568
C26   C     C_R   0.590792 0.556677 0.820559 0.532831
N2    N     N_R   0.494441 0.492311 0.796975 -0.467792
C27   C     C_R   0.398758 0.428662 0.821702 0.531697
C28   C     C_R   0.402100 0.566476 0.720924 -0.091023
C29   C     C_R   0.403341 0.568948 0.670746 -0.265462
C30   C     C_R   0.587058 0.421340 0.668978 -0.239790
C31   C     C_R   0.585670 0.418540 0.719145 -0.094008
C32   C     C_R   0.493806 0.492077 0.745327 0.352881
O10   O     O_2   0.305689 0.364646 0.797419 -0.547314
C33   C     C_R   0.393970 0.438906 0.025632 0.041932
C34   C     C_R   0.498729 0.495301 0.050217 0.068696
C35   C     C_R   0.602462 0.551393 0.024246 0.042230
C36   C     C_R   0.290502 0.391342 0.053351 -0.205191
H4    H     H_    0.330495 0.624202 0.652267 0.140735
H5    H     H_    0.330240 0.622584 0.740884 0.144899
H6    H     H_    0.224459 0.312034 0.879616 0.186261
H7    H     H_    0.222415 0.311225 0.964835 0.140184
H8    H     H_    0.205243 0.353521 0.037630 0.139270
O11   O     O_2   0.704312 0.593235 0.201030 -0.547781
C37   C     C_R   0.707399 0.597780 0.100498 -0.149264
H9    H     H_    0.505946 0.270250 0.348174 0.145284
H10   H     H_    0.789679 0.636173 0.118821 0.186907
C38   C     C_R   0.694193 0.622661 0.945570 -0.206533
C39   C     C_R   0.691418 0.623007 0.895612 -0.146963
O12   O     O_2   0.683047 0.620271 0.795188 -0.545847
C40   C     C_R   0.706875 0.599706 0.050525 -0.207838
H11   H     H_    0.771643 0.677991 0.961392 0.140209
H12   H     H_    0.658726 0.364492 0.649101 0.131617
H13   H     H_    0.766775 0.674974 0.876260 0.186545
H14   H     H_    0.656045 0.359675 0.737739 0.143250
H15   H     H_    0.791433 0.637504 0.033638 0.139559
C41   C     C_3   0.072603 0.650533 0.487891 -0.376478
C42   C     C_3   0.068889 0.457256 0.549063 -0.382632
H16   H     H_    0.108364 0.684994 0.452056 0.161797
H17   H     H_    0.102650 0.351542 0.558708 0.166768
H18   H     H_    0.106051 0.728041 0.515233 0.156312
H19   H     H_    0.101806 0.532236 0.577309 0.147530
C43   C     C_3   0.929620 0.651216 0.488256 -0.374093
C44   C     C_3   0.925036 0.455056 0.548602 -0.380694
H20   H     H_    0.896077 0.727358 0.516239 0.161371
H21   H     H_    0.888223 0.526563 0.577385 0.154127
H22   H     H_    0.896004 0.687802 0.452802 0.160394
H23   H     H_    0.890551 0.347035 0.556727 0.156569
H24   H     H_    0.110338 0.427157 0.424078 0.156946
H25   H     H_    0.104486 0.288678 0.467473 0.162963
H26   H     H_    0.896681 0.431950 0.423391 0.157761
H27   H     H_    0.892815 0.290604 0.465676 0.162735
C45   C     C_3   0.072578 0.397429 0.460116 -0.375530
C46   C     C_3   0.121645 0.500952 0.499165 0.162112
C47   C     C_3   0.877745 0.501583 0.498841 0.166060
C48   C     C_3   0.928787 0.399125 0.459486 -0.379438
C49   C     C_3   0.600586 0.084788 0.531439 -0.215503
C50   C     C_3   0.608285 0.918507 0.527386 -0.185961
H28   H     H_    0.590392 0.121257 0.569055 0.136667
H29   H     H_    0.620311 0.869348 0.562788 0.161958
H30   H     H_    0.692503 0.128336 0.519866 0.144245
H31   H     H_    0.696555 0.891444 0.507915 0.130870
C51   C     C_3   0.375869 0.079719 0.516154 0.305396
C52   C     C_3   0.382353 0.915008 0.522962 0.266141
C53   C     C_3   0.525916 0.082138 0.451998 -0.285983
C54   C     C_3   0.512583 0.915477 0.451438 -0.297834
N3    N     N_3   0.500250 0.143650 0.501060 -0.133006
N4    N     N_3   0.500250 0.856350 0.501060 -0.139678
H32   H     H_    0.460323 0.125292 0.425384 0.154565
H33   H     H_    0.430113 0.884483 0.429750 0.140857
H34   H     H_    0.620941 0.113205 0.439154 0.159735
H35   H     H_    0.595277 0.869570 0.432589 0.173634
H36   H     H_    0.316394 0.089384 0.483500 0.021049
H37   H     H_    0.304509 0.873562 0.500623 0.048493
N5    N     N_2   0.510033 0.235003 0.253420 -0.415611
H38   H     H_    0.466837 0.153965 0.271765 0.248944
C55   C     C_3   0.632283 0.195638 0.235445 -0.664736
H39   H     H_    0.625283 0.095102 0.214878 0.232403
H40   H     H_    0.696979 0.181158 0.265899 0.220433
H41   H     H_    0.670645 0.277005 0.210929 0.250666
N6    N     N_2   0.299464 0.158075 0.551460 -0.387419
H42   H     H_    0.205163 0.144778 0.545680 0.201349
C56   C     C_3   0.322831 0.183522 0.601977 -0.558842
H43   H     H_    0.284968 0.288270 0.612128 0.202862
H44   H     H_    0.422221 0.185396 0.610721 0.232383
H45   H     H_    0.270786 0.106343 0.624201 0.206963
N7    N     N_2   0.352914 0.864230 0.571828 -0.405801
H46   H     H_    0.292931 0.779220 0.573847 0.248324
C57   C     C_3   0.424339 0.889095 0.615399 -0.653782
H47   H     H_    0.359492 0.902909 0.646533 0.209374
H48   H     H_    0.486587 0.979653 0.613218 0.204676
H49   H     H_    0.484161 0.800143 0.624212 0.243444

loop_
_geom_bond_atom_site_label_1
_geom_bond_atom_site_label_2
_geom_bond_distance
_ccdc_geom_bond_type
C54   H35   1.112537 S    
C52   N4    1.503087 S    
H27   C48   1.113217 S    
C3    C47   1.479367 S    
C17   C29   1.400598 A    
C20   C24   1.421984 A    
C7    C8    1.400577 A    
C12   C15   1.408041 A    
C49   H30   1.111008 S    
C41   H18   1.113259 S    
C50   N4    1.493199 S    
C55   H40   1.111654 S    
Cu1   Cu2   2.707659 S    
C43   C47   1.553435 S    
Cu1   O7    1.950335 S    
N1    C11   1.435662 S    
C49   C50   1.586127 S    
C21   C22   1.388713 A    
C15   C37   1.395418 A    
C23   C24   1.408158 A    
O7    C4    1.306102 A    
C43   H20   1.113685 S    
C7    N5    1.423247 S    
C5    O9    1.349838 S    
C52   H37   1.113997 S    
C53   H32   1.111116 S    
C18   C21   1.415948 A    
C51   H36   1.120880 S    
N6    H42   1.032575 S    
C37   H10   1.083607 S    
C19   C20   1.421215 A    
C26   N2    1.368043 A    
C8    H9    1.083109 S    
O5    C3    1.298456 A    
N5    H38   1.031943 S    
C53   C54   1.589736 S    
C44   C47   1.548945 S    
C41   C43   1.532904 S    
C19   C35   1.421304 A    
C56   H43   1.109910 S    
C22   H6    1.083503 S    
C2    C16   1.472494 S    
C31   C32   1.401954 A    
C49   N3    1.492202 S    
C12   C34   1.421911 A    
C37   C40   1.388290 A    
C14   H3    1.083599 S    
C54   N4    1.498054 S    
Cu1   N4    2.033687 S    
C9    C10   1.392131 A    
C42   H17   1.107541 S    
O3    Cu1   1.945873 S    
C53   N3    1.499299 S    
C55   H39   1.110451 S    
C33   C34   1.421200 A    
C56   H44   1.096195 S    
C54   H33   1.112918 S    
C50   H29   1.102974 S    
C38   H11   1.076153 S    
C33   C36   1.415877 A    
C34   C35   1.421093 A    
C12   C13   1.408015 A    
C41   H16   1.113469 S    
C21   H7    1.076209 S    
C24   C25   1.407875 A    
C44   H21   1.113286 S    
C27   O10   1.349749 S    
C26   O12   1.349888 S    
C8    C16   1.405152 A    
C18   C33   1.421577 A    
C51   N3    1.517331 S    
C9    H1    1.082982 S    
O1    C1    1.296246 A    
C56   H45   1.107062 S    
C7    C11   1.409787 A    
C31   H14   1.082807 S    
C30   H12   1.083664 S    
C22   C23   1.395635 A    
C43   H22   1.113470 S    
C51   N6    1.468584 S    
C40   H15   1.076258 S    
C45   C48   1.542174 S    
Cu2   O8    1.945574 S    
C49   H28   1.101172 S    
N1    C6    1.367856 A    
C42   C44   1.542516 S    
N2    C32   1.434463 S    
C39   H13   1.083514 S    
C57   H49   1.096805 S    
O3    C2    1.305352 A    
C25   C26   1.403324 A    
C9    C16   1.403835 A    
O8    C4    1.298058 A    
C29   H4    1.082741 S    
C51   C52   1.581470 S    
C52   N7    1.474871 S    
N2    C27   1.367924 A    
N7    C57   1.457209 S    
C14   C36   1.388582 A    
C50   H31   1.113617 S    
C35   C40   1.415907 A    
C28   C29   1.393881 A    
C57   H48   1.087326 S    
H25   C45   1.113235 S    
Cu1   O5    1.967577 S    
C30   C31   1.393677 A    
C10   H2    1.083058 S    
O1    Cu1   1.964237 S    
C17   C30   1.400971 A    
O2    Cu2   1.967152 S    
C6    C15   1.403285 A    
H24   C45   1.113114 S    
C4    C17   1.458226 S    
O6    C3    1.299964 A    
O4    Cu2   1.950639 S    
C36   H8    1.076313 S    
C5    N1    1.367908 A    
C53   H34   1.113754 S    
C25   C39   1.395521 A    
C1    C46   1.482492 S    
O2    C1    1.303583 A    
C13   C14   1.395603 A    
C42   C46   1.549451 S    
C23   C27   1.404085 A    
C44   H23   1.113463 S    
C41   C46   1.556188 S    
C28   H5    1.082780 S    
C47   C48   1.552172 S    
O4    C2    1.305688 A    
C19   C38   1.415769 A    
C18   C20   1.421076 A    
N6    C56   1.445979 S    
N5    C55   1.446182 S    
C5    C13   1.403574 A    
C38   C39   1.388219 A    
C6    O11   1.349890 S    
C45   C46   1.551053 S    
Cu2   O6    1.964662 S    
H26   C48   1.113120 S    
C42   H19   1.113348 S    
C10   C11   1.400509 A    
N7    H46   1.030834 S    
Cu2   N3    2.034402 S    
C55   H41   1.109410 S    
C28   C32   1.401960 A    
C57   H47   1.109106 S    
