data_mof_unit_24864.cif
_audit_creation_date              2012-12-10T20:30:12-0500
_audit_creation_method            fapswitch 2.2
_symmetry_space_group_name_H-M    P1
_symmetry_Int_Tables_number       1
_space_group_crystal_system       triclinic
_cell_length_a                    9.895535
_cell_length_b                    10.669703
_cell_length_c                    13.095071
_cell_angle_alpha                 89.962907
_cell_angle_beta                  69.754238
_cell_angle_gamma                 89.8573
_cell_volume                      1297.18338276

loop_
_atom_site_label
_atom_site_type_symbol
_atom_type_description
_atom_site_fract_x
_atom_site_fract_y
_atom_site_fract_z
_atom_type_partial_charge
C1    C     C_R   0.498100 0.739796 0.503506 0.914706
C2    C     C_R   0.367126 0.500696 0.822686 -0.124130
C3    C     C_R   0.375201 0.936746 0.506154 0.134934
C4    C     C_R   0.419697 0.497338 0.704323 0.843423
C5    C     C_R   0.488379 0.870986 0.520715 -0.185138
C6    C     C_R   0.586963 0.932873 0.558114 -0.325559
C7    C     C_R   0.590156 0.063503 0.557555 0.512434
C8    C     C_R   0.489370 0.128446 0.522513 -0.237846
C9    C     C_R   0.375713 0.064196 0.507057 0.080147
C10   C     C_3   0.315663 0.072869 0.416947 -0.454409
C11   C     C_3   0.315218 0.930736 0.416046 -0.476604
C12   C     C_R   0.430185 0.491191 0.985596 0.093071
C13   C     C_R   0.885496 0.489540 0.594764 0.199204
C14   C     C_R   0.971412 0.502807 0.405112 -0.154965
C15   C     C_R   0.114907 0.503752 0.405095 -0.131523
C16   C     C_R   0.498148 0.260106 0.504776 0.904452
C17   C     C_R   0.027705 0.484659 0.594758 0.104237
C18   C     C_3   0.989786 0.566355 0.693659 0.187067
C19   C     C_3   0.840037 0.579471 0.687717 -0.442175
C20   C     C_R   0.580216 0.498562 0.295743 0.862464
C21   C     C_R   0.751307 0.344259 0.026619 -0.135328
C22   C     C_R   0.628489 0.478018 0.179271 -0.057611
C23   C     C_R   0.450063 0.447337 0.879961 0.066531
C24   C     C_R   0.248672 0.577242 0.876727 -0.175763
C25   C     C_R   0.214529 0.603579 0.986483 -0.127265
C26   C     C_R   0.305561 0.563401 0.040473 -0.203690
C27   C     C_3   0.828306 0.107481 0.522090 -0.282835
C28   C     C_R   0.536665 0.462289 0.031305 0.072844
C29   C     C_R   0.648085 0.375250 0.979268 0.175568
C30   C     C_R   0.653108 0.318969 0.882007 -0.214485
C31   C     C_R   0.555370 0.354666 0.832646 -0.224391
C32   C     C_R   0.536456 0.519224 0.126927 -0.251211
C33   C     C_R   0.739758 0.393705 0.127905 -0.210102
H1    H     H_    0.811239 0.360365 0.168754 0.145997
H2    H     H_    0.734992 0.249890 0.842509 0.169404
H3    H     H_    0.818014 0.674644 0.662373 0.150402
H4    H     H_    0.836278 0.277457 0.987928 0.137841
H5    H     H_    0.459665 0.591395 0.166560 0.135088
H6    H     H_    0.186454 0.621449 0.833063 0.174589
H7    H     H_    0.274793 0.588949 0.125130 0.119594
H8    H     H_    0.121430 0.660902 0.028488 0.146470
H9    H     H_    0.563893 0.310209 0.756408 0.206238
H10   H     H_    0.664776 0.880730 0.582571 0.177794
H11   H     H_    0.900323 0.175248 0.542103 0.184499
H12   H     H_    0.205710 0.114409 0.444725 0.200812
H13   H     H_    0.838316 0.124150 0.435755 0.156980
H14   H     H_    0.866676 0.011826 0.531950 0.147088
H15   H     H_    0.074194 0.449927 0.769443 0.352501
H16   H     H_    0.392809 0.114599 0.341431 0.199731
H17   H     H_    0.205033 0.890174 0.443381 0.200137
H18   H     H_    0.392167 0.889535 0.340074 0.196172
H19   H     H_    0.952536 0.506677 0.328614 0.148847
H20   H     H_    0.202583 0.508914 0.328196 0.155588
H21   H     H_    0.052034 0.655091 0.682306 0.126988
H22   H     H_    0.753575 0.542195 0.760018 0.243490
N1    N     N_R   0.856940 0.500860 0.500710 -0.103544
N2    N     N_R   0.142580 0.500820 0.500710 -0.124508
O1    O     O_R   0.385310 0.683210 0.499990 -0.616695
O2    O     O_3   0.983991 0.499219 0.787420 -0.757722
O3    O     O_R   0.614650 0.683240 0.500000 -0.616921
O4    O     O_R   0.328390 0.499940 0.653610 -0.633353
O5    O     O_R   0.557730 0.499980 0.653620 -0.606559
O6    O     O_R   0.385350 0.316760 0.500000 -0.611645
O7    O     O_R   0.614690 0.316790 0.500010 -0.573021
O8    O     O_R   0.442270 0.500020 0.346380 -0.619347
O9    O     O_R   0.671610 0.500060 0.346390 -0.622725
O10   O     O_3   0.686299 0.127548 0.594248 -0.604775
Zn1   Zn    Zn3+2 0.346870 0.499980 0.499990 0.927610
Zn2   Zn    Zn3+2 0.653130 0.500020 0.500010 0.950902

loop_
_geom_bond_atom_site_label_1
_geom_bond_atom_site_label_2
_ccdc_geom_bond_type
C14   N1    A    
C4    O4    A    
C21   C29   A    
C6    C7    A    
C3    C9    A    
C16   O6    A    
C32   H5    S    
C9    C10   S    
C20   O8    A    
C2    C4    S    
C27   H14   S    
C12   C23   A    
C13   C17   A    
C30   C31   A    
O1    Zn1   S    
O8    Zn1   S    
C13   N1    A    
C10   H12   S    
C17   N2    A    
C33   H1    S    
C25   C26   A    
C7    C8    A    
C8    C16   S    
C11   H17   S    
O7    Zn2   S    
C15   N2    A    
O4    Zn1   S    
C26   H7    S    
C4    O5    A    
C29   C30   A    
C22   C32   A    
C30   H2    S    
C12   C28   A    
C1    C5    S    
O3    Zn2   S    
C27   H13   S    
C20   O9    A    
C28   C29   A    
C31   H9    S    
C20   C22   S    
C17   C18   S    
C2    C23   A    
C6    H10   S    
C11   H18   S    
C2    C24   A    
C5    C6    A    
O9    Zn2   S    
C3    C11   S    
C10   C11   S    
C13   C19   S    
N2    Zn1   S    
C25   H8    S    
C15   H20   S    
C18   O2    S    
C28   C32   A    
C24   H6    S    
C21   H4    S    
C24   C25   A    
H15   O2    S    
C18   C19   S    
C1    O3    A    
C19   H22   S    
C27   O10   S    
N1    Zn2   S    
C22   C33   A    
C18   H21   S    
C14   C15   A    
C21   C33   A    
O6    Zn1   S    
C16   O7    A    
C19   H3    S    
C1    O1    A    
C10   H16   S    
C7    O10   S    
C27   H11   S    
C14   H19   S    
O5    Zn2   S    
C12   C26   A    
C8    C9    A    
C3    C5    A    
C23   C31   A    
