data_mof_unit_61639.cif
_audit_creation_date              2012-12-10T21:05:43-0500
_audit_creation_method            fapswitch 2.2
_symmetry_space_group_name_H-M    P1
_symmetry_Int_Tables_number       1
_space_group_crystal_system       triclinic
_cell_length_a                    15.863863
_cell_length_b                    15.077415
_cell_length_c                    17.573078
_cell_angle_alpha                 89.924171
_cell_angle_beta                  89.979893
_cell_angle_gamma                 89.99734
_cell_volume                      4203.23109769

loop_
_atom_site_label
_atom_site_type_symbol
_atom_type_description
_atom_site_fract_x
_atom_site_fract_y
_atom_site_fract_z
_atom_type_partial_charge
Br1   Br    Br    0.485258 0.688569 0.901446 -0.376740
Br2   Br    Br    0.484581 0.311500 0.098559 -0.376670
Br3   Br    Br    0.574019 0.686187 0.105087 -0.370238
Br4   Br    Br    0.573628 0.313591 0.894851 -0.371013
Br5   Br    Br    0.105419 0.691825 0.498651 -0.355542
Br6   Br    Br    0.894564 0.308178 0.501400 -0.354135
Br7   Br    Br    0.894534 0.691814 0.498632 -0.356074
Br8   Br    Br    0.105449 0.308184 0.501356 -0.357449
C1    C     C_R   0.338941 0.500002 0.500026 0.901446
C2    C     C_R   0.485413 0.046922 0.431929 0.033313
C3    C     C_R   0.500081 0.905032 0.500160 -0.025261
C4    C     C_R   0.500014 0.094971 0.499840 -0.025066
C5    C     C_1   0.500030 0.807042 0.500044 0.139739
C6    C     C_1   0.500013 0.192959 0.499958 0.139854
C7    C     C_R   0.500814 0.500060 0.353127 0.912678
C8    C     C_R   0.500838 0.499939 0.646872 0.912779
C9    C     C_R   0.505288 0.579435 0.848246 0.280993
C10   C     C_R   0.504941 0.420564 0.151747 0.281160
C11   C     C_R   0.541591 0.577721 0.154404 0.281561
C12   C     C_R   0.661058 0.499998 0.499974 0.898997
C13   C     C_R   0.541497 0.422162 0.845561 0.281606
C14   C     C_R   0.495560 0.578580 0.769837 -0.210812
C15   C     C_R   0.495229 0.421451 0.230165 -0.210686
C16   C     C_R   0.530972 0.578129 0.232723 -0.206607
C17   C     C_R   0.530869 0.421791 0.767249 -0.206849
C18   C     C_R   0.507946 0.499843 0.729196 -0.145259
C19   C     C_R   0.507862 0.500145 0.270796 -0.145117
C20   C     C_R   0.528352 0.501069 0.885938 -0.044176
C21   C     C_R   0.528239 0.498851 0.114039 -0.044287
C22   C     C_1   0.532940 0.500328 0.966192 0.139742
C23   C     C_1   0.824046 0.499994 0.499991 0.136867
C24   C     C_1   0.532902 0.499561 0.033785 0.139715
C25   C     C_R   0.956031 0.581269 0.499426 0.228029
C26   C     C_R   0.043957 0.418731 0.500588 0.227703
C27   C     C_R   0.043944 0.581273 0.499433 0.227996
C28   C     C_R   0.956043 0.418728 0.500592 0.228322
C29   C     C_R   0.913019 0.499996 0.500005 -0.135443
C30   C     C_R   0.086971 0.500004 0.500012 -0.135227
C31   C     C_1   0.175946 0.500007 0.500020 0.136716
C32   C     C_1   0.250702 0.500006 0.500025 -0.104643
C33   C     C_1   0.749292 0.499994 0.499980 -0.103257
C34   C     C_R   0.485490 0.952673 0.432247 0.120914
C35   C     C_R   0.514644 0.047332 0.567747 0.120396
C36   C     C_R   0.514702 0.953081 0.568068 0.032944
H1    H     H_    0.477932 0.639290 0.740882 0.193299
H2    H     H_    0.588532 0.076604 0.658065 0.231575
H3    H     H_    0.411702 0.923418 0.341863 0.229812
H4    H     H_    0.516503 0.923427 0.323483 0.230486
H5    H     H_    0.477428 0.360802 0.259137 0.192908
H6    H     H_    0.541846 0.639110 0.263741 0.199920
H7    H     H_    0.541571 0.360773 0.736225 0.200157
H8    H     H_    0.522219 0.133309 0.350143 0.211460
H9    H     H_    0.417350 0.133257 0.368560 0.212047
H10   H     H_    0.582764 0.866738 0.631423 0.213647
H11   H     H_    0.477899 0.866702 0.649861 0.210180
H12   H     H_    0.483755 0.076567 0.676544 0.229606
N1    N     N_1   0.500000 0.270550 0.500000 -0.082227
N2    N     N_1   0.500000 0.729450 0.500000 -0.082220
N3    N     N_3   0.470291 0.092746 0.361661 -0.435870
N4    N     N_3   0.529830 0.907257 0.638334 -0.435167
N5    N     N_3   0.529564 0.095290 0.636865 -0.424450
N6    N     N_3   0.470640 0.904716 0.363118 -0.424441
O1    O     O_R   0.378020 0.573650 0.500020 -0.596674
O2    O     O_R   0.621980 0.426350 0.499980 -0.597576
O3    O     O_R   0.621980 0.573650 0.499980 -0.599622
O4    O     O_R   0.378020 0.426350 0.500020 -0.598711
O5    O     O_R   0.500000 0.573690 0.389120 -0.611147
O6    O     O_R   0.500000 0.426310 0.610880 -0.611179
O7    O     O_R   0.500000 0.573690 0.610880 -0.620127
O8    O     O_R   0.500000 0.426310 0.389120 -0.620027
Zn1   Zn    Zn3+2 0.500000 0.598370 0.500000 1.020692
Zn2   Zn    Zn3+2 0.500000 0.401630 0.500000 1.020733

loop_
_geom_bond_atom_site_label_1
_geom_bond_atom_site_label_2
_ccdc_geom_bond_type
C12   O2    A    
O8    Zn2   S    
C35   C36   A    
C17   H7    S    
H4    N6    S    
Br3   C11   S    
C8    O6    A    
H8    N3    S    
C15   C19   A    
C2    C34   A    
C3    C5    S    
C34   N6    S    
C7    C19   S    
C9    C14   A    
C16   C19   A    
C4    C6    S    
O6    Zn2   S    
C7    O5    A    
C27   C30   A    
H3    N6    S    
C20   C22   S    
C12   C33   S    
H9    N3    S    
C3    C36   A    
C10   C21   A    
O3    Zn1   S    
H11   N4    S    
C1    O4    A    
C22   C24   T    
Br4   C13   S    
Br7   C25   S    
C35   N5    S    
C2    C4    A    
C36   N4    S    
Br5   C27   S    
C28   C29   A    
C25   C27   A    
C13   C20   A    
Br6   C28   S    
C7    O8    A    
C11   C16   A    
C21   C24   S    
O5    Zn1   S    
O2    Zn2   S    
N1    Zn2   S    
C16   H6    S    
C30   C31   S    
C25   C29   A    
N2    Zn1   S    
C15   H5    S    
Br2   C10   S    
H2    N5    S    
C10   C15   A    
C11   C21   A    
C12   O3    A    
C14   H1    S    
Br1   C9    S    
C26   C28   A    
C3    C34   A    
C14   C18   A    
Br8   C26   S    
C31   C32   T    
O7    Zn1   S    
C6    N1    T    
C13   C17   A    
H12   N5    S    
H10   N4    S    
C5    N2    T    
C23   C33   T    
C17   C18   A    
C1    O1    A    
C9    C20   A    
C2    N3    S    
C4    C35   A    
C1    C32   S    
O4    Zn2   S    
C8    O7    A    
C23   C29   S    
O1    Zn1   S    
C8    C18   S    
C26   C30   A    
