data_mof_unit_54818.cif
_audit_creation_date              2012-12-10T17:14:41-0500
_audit_creation_method            fapswitch 2.2
_symmetry_space_group_name_H-M    P1
_symmetry_Int_Tables_number       1
_space_group_crystal_system       triclinic
_cell_length_a                    10.647859
_cell_length_b                    13.110926
_cell_length_c                    11.826011
_cell_angle_alpha                 98.711591
_cell_angle_beta                  93.885031
_cell_angle_gamma                 93.214148
_cell_volume                      1624.46653148

loop_
_atom_site_label
_atom_site_type_symbol
_atom_type_description
_atom_site_fract_x
_atom_site_fract_y
_atom_site_fract_z
_atom_type_partial_charge
C1    C     C_R   0.507106 0.300219 0.479789 0.827145
C2    C     C_R   0.493200 0.700014 0.520658 0.800017
C3    C     C_R   0.518297 0.138575 0.568813 -0.026842
C4    C     C_R   0.478734 0.862973 0.434748 -0.069389
C5    C     C_R   0.493284 0.030639 0.556259 0.072694
C6    C     C_R   0.504970 0.970609 0.447955 0.061594
C7    C     C_R   0.377730 0.397094 0.025279 -0.177856
C8    C     C_R   0.649632 0.568707 0.971324 -0.114961
C9    C     C_R   0.389230 0.409809 0.146835 0.164601
C10   C     C_R   0.626631 0.572800 0.852459 0.138333
C11   C     C_R   0.556339 0.539140 0.154245 0.102596
C12   C     C_R   0.439858 0.462301 0.844531 0.116214
C13   C     C_R   0.555455 0.522602 0.031034 -0.015463
C14   C     C_R   0.456492 0.459658 0.965966 -0.073605
C15   C     C_R   0.260274 0.502471 0.500295 0.830952
C16   C     C_R   0.739723 0.497666 0.499660 0.759882
C17   C     C_3   0.036921 0.403485 0.483851 -0.118453
C18   C     C_3   0.962853 0.597056 0.515693 -0.040911
C19   C     C_3   0.949640 0.449947 0.398582 -0.134695
C20   C     C_3   0.050369 0.550803 0.601186 -0.057474
C21   C     C_3   0.875994 0.497210 0.499243 -0.155331
C22   C     C_3   0.123980 0.503259 0.500494 -0.161826
C23   C     C_3   0.963061 0.450871 0.584875 -0.022496
C24   C     C_3   0.036919 0.549618 0.415003 -0.043863
C25   C     C_R   0.479554 0.813211 0.532523 -0.130465
C26   C     C_R   0.521048 0.187485 0.470162 -0.153541
C27   C     C_R   0.542578 0.019730 0.355542 -0.092729
C28   C     C_R   0.457457 0.980790 0.648962 -0.056327
C29   C     C_R   0.541325 0.127419 0.363870 -0.090408
C30   C     C_R   0.463284 0.873110 0.640429 -0.106311
Cu1   Cu    Cu3+1 0.509400 0.507730 0.615930 0.991101
Cu2   Cu    Cu3+1 0.490600 0.492270 0.384070 0.972129
N1    N     N_R   0.523540 0.519360 0.790140 -0.245016
N2    N     N_R   0.476460 0.480640 0.209860 -0.254041
O1    O     O_R   0.506670 0.354460 0.582000 -0.540420
O2    O     O_R   0.493330 0.645540 0.418000 -0.593079
O3    O     O_R   0.490800 0.341410 0.386200 -0.568295
O4    O     O_R   0.509200 0.658590 0.613800 -0.612260
O5    O     O_R   0.324790 0.506500 0.597880 -0.579663
O6    O     O_R   0.675210 0.493500 0.402120 -0.612471
O7    O     O_R   0.308910 0.493440 0.402080 -0.617761
O8    O     O_R   0.691090 0.506560 0.597920 -0.594589
C31   C     C_1   0.894763 0.394910 0.287218 0.227037
N3    N     N_1   0.851949 0.351892 0.199217 -0.223483
C32   C     C_1   0.106358 0.608729 0.710765 0.361409
N4    N     N_1   0.150219 0.654417 0.797118 -0.206350
C33   C     C_2   0.082795 0.296629 0.463088 0.425113
H1    H     H_    0.134246 0.273216 0.388499 0.092832
O9    O     O_2   0.063132 0.235902 0.529510 -0.477764
C34   C     C_2   0.915937 0.703632 0.535879 0.394583
H2    H     H_    0.865702 0.727477 0.611119 0.084815
O10   O     O_2   0.932981 0.763560 0.468086 -0.461322
C35   C     C_2   0.918148 0.393275 0.676511 0.548488
H3    H     H_    0.850869 0.326918 0.653334 0.062999
O11   O     O_2   0.956616 0.420248 0.776709 -0.497343
C36   C     C_2   0.079673 0.603736 0.320131 0.482747
H4    H     H_    0.047846 0.573769 0.231677 0.061134
O12   O     O_2   0.150563 0.681632 0.342114 -0.492120
C37   C     C_1   0.424508 0.809006 0.324452 0.406257
N5    N     N_1   0.379508 0.766880 0.236719 -0.184208
C38   C     C_1   0.562916 0.195352 0.681018 0.340088
N6    N     N_1   0.599083 0.240325 0.770266 -0.259858
C39   C     C_1   0.439560 0.825034 0.740551 0.262057
N7    N     N_1   0.420739 0.787166 0.820624 -0.243961
C40   C     C_1   0.575712 0.175322 0.266264 0.338463
N8    N     N_1   0.603119 0.212877 0.188120 -0.226327
C41   C     C_2   0.600182 0.961730 0.256773 0.428761
H5    H     H_    0.569200 0.970155 0.169534 0.085791
O13   O     O_2   0.688563 0.909256 0.273671 -0.433681
C42   C     C_2   0.399909 0.037635 0.749199 0.390918
H6    H     H_    0.420852 0.019925 0.834907 0.079664
O14   O     O_2   0.323453 0.101449 0.735206 -0.475978
C43   C     C_2   0.322409 0.415118 0.780141 0.446094
H7    H     H_    0.233553 0.447394 0.800120 0.096281
O15   O     O_2   0.321996 0.336417 0.710423 -0.483567
C44   C     C_2   0.628404 0.630935 0.221145 0.387599
H8    H     H_    0.679601 0.629023 0.302137 0.127111
O16   O     O_2   0.630390 0.713011 0.184606 -0.494710
C45   C     C_2   0.713138 0.637548 0.796156 0.515844
H9    H     H_    0.679338 0.702533 0.759523 0.060118
O17   O     O_2   0.823933 0.619290 0.791148 -0.535906
C46   C     C_2   0.302598 0.346863 0.205195 0.528796
H10   H     H_    0.218495 0.379138 0.238180 0.039076
O18   O     O_2   0.318126 0.255593 0.206888 -0.547604
C47   C     C_2   0.293243 0.309667 0.962803 0.411218
H11   H     H_    0.330876 0.253239 0.899749 0.157816
O19   O     O_2   0.181631 0.301324 0.980148 -0.487462
C48   C     C_2   0.777532 0.599996 0.030062 0.535271
H12   H     H_    0.818730 0.552129 0.088146 0.030643
O20   O     O_2   0.834322 0.681150 0.019603 -0.454095

loop_
_geom_bond_atom_site_label_1
_geom_bond_atom_site_label_2
_ccdc_geom_bond_type
C16   C21   S    
Cu1   O8    S    
C27   C29   A    
C18   C21   S    
C43   H7    S    
C48   O20   D    
C35   O11   D    
C4    C25   A    
C33   O9    D    
C35   H3    S    
C1    O1    A    
C17   C23   S    
C18   C24   S    
Cu2   O2    S    
C19   C21   S    
C44   O16   D    
C11   C44   S    
C5    C6    A    
C3    C38   S    
C36   H4    S    
C15   C22   S    
C6    C27   A    
C36   O12   D    
C34   O10   D    
Cu2   O7    S    
Cu1   N1    S    
C42   H6    S    
C7    C14   A    
C18   C20   S    
C20   C32   S    
C1    O3    A    
C9    C46   S    
C47   O19   D    
C37   N5    T    
C13   C14   A    
C43   O15   D    
C12   C43   S    
C19   C31   S    
C23   C35   S    
C11   N2    A    
C1    C26   S    
C41   H5    S    
C33   H1    S    
C44   H8    S    
C15   O7    A    
C4    C6    A    
C45   O17   D    
C47   H11   S    
C45   H9    S    
C41   O13   D    
Cu2   N2    S    
C31   N3    T    
C5    C28   A    
C2    O4    A    
Cu1   Cu2   S    
C20   C23   S    
C34   H2    S    
Cu2   O3    S    
C15   O5    A    
C16   O6    A    
C29   C40   S    
C12   C14   A    
C40   N8    T    
C46   O18   D    
C21   C23   S    
C9    N2    A    
C22   C24   S    
C16   O8    A    
C18   C34   S    
C10   N1    A    
C2    O2    A    
C25   C30   A    
C7    C9    A    
C3    C26   A    
C28   C42   S    
C17   C33   S    
C20   C22   S    
C3    C5    A    
C10   C45   S    
C24   C36   S    
C17   C22   S    
Cu1   O4    S    
C28   C30   A    
C19   C24   S    
C11   C13   A    
C7    C47   S    
C4    C37   S    
C17   C19   S    
Cu1   O5    S    
C2    C25   S    
Cu1   O1    S    
Cu2   O6    S    
C38   N6    T    
C27   C41   S    
C39   N7    T    
C8    C13   A    
C32   N4    T    
C48   H12   S    
C26   C29   A    
C8    C10   A    
C46   H10   S    
C42   O14   D    
C8    C48   S    
C12   N1    A    
C30   C39   S    
