data_mof_unit_29247.cif
_audit_creation_date              2012-12-10T18:31:52-0500
_audit_creation_method            fapswitch 2.2
_symmetry_space_group_name_H-M    P1
_symmetry_Int_Tables_number       1
_space_group_crystal_system       triclinic
_cell_length_a                    10.640328
_cell_length_b                    14.973714
_cell_length_c                    15.437187
_cell_angle_alpha                 82.283771
_cell_angle_beta                  89.553962
_cell_angle_gamma                 104.445575
_cell_volume                      2358.0241498

loop_
_atom_site_label
_atom_site_type_symbol
_atom_type_description
_atom_site_fract_x
_atom_site_fract_y
_atom_site_fract_z
_atom_type_partial_charge
C1    C     C_R   0.484969 0.441834 0.662271 0.864468
C2    C     C_3   0.122892 0.502064 0.490623 0.097051
C3    C     C_3   0.108655 0.600771 0.453143 -0.402039
C4    C     C_3   0.066037 0.477035 0.586083 -0.472102
C5    C     C_R   0.497698 0.407535 0.754227 -0.068623
C6    C     C_R   0.558813 0.594837 0.244438 -0.085631
C7    C     C_R   0.494424 0.283802 0.873223 -0.204048
C8    C     C_R   0.476124 0.312383 0.785400 -0.202563
C9    C     C_R   0.542244 0.473208 0.810228 -0.263826
C10   C     C_R   0.565857 0.446465 0.897304 0.090731
C11   C     C_R   0.535965 0.350244 0.929924 0.177186
C12   C     C_R   0.742377 0.501815 0.496679 0.861435
C13   C     C_R   0.607532 0.513604 0.954132 0.068754
C14   C     C_R   0.593079 0.484310 0.045246 0.081870
C15   C     C_R   0.569469 0.387944 0.076420 -0.235115
C16   C     C_R   0.544296 0.322081 0.019016 -0.242833
C17   C     C_R   0.659798 0.609159 0.922978 -0.229285
C18   C     C_R   0.679748 0.675273 0.979753 -0.226117
C19   C     C_R   0.644029 0.648263 0.068214 0.128606
C20   C     C_R   0.599856 0.552613 0.101508 0.090668
C21   C     C_R   0.648784 0.716090 0.123079 -0.205161
C22   C     C_R   0.606845 0.690877 0.211288 0.193614
C23   C     C_R   0.522605 0.558734 0.337375 0.856452
C24   C     C_R   0.554204 0.528094 0.188464 -0.314667
C25   C     C_R   0.694625 0.843065 0.636205 -0.321494
C26   C     C_R   0.661642 0.753534 0.614548 0.011855
C27   C     C_R   0.515488 0.793938 0.509990 -0.067161
C28   C     C_R   0.544647 0.886242 0.528717 -0.001653
C29   C     C_R   0.636419 0.909832 0.593452 0.183753
C30   C     C_R   0.486203 0.954991 0.486074 0.082237
C31   C     C_R   0.520097 0.046652 0.509846 0.080944
C32   C     C_R   0.612862 0.066965 0.574231 -0.245223
C33   C     C_R   0.669578 0.999657 0.615048 -0.214010
C34   C     C_R   0.259187 0.501509 0.494386 0.861443
C35   C     C_R   0.395127 0.935117 0.420602 -0.241733
C36   C     C_R   0.337923 0.002288 0.380104 -0.214425
C37   C     C_R   0.368735 0.091491 0.403209 0.181786
C38   C     C_R   0.459953 0.114956 0.468293 -0.003506
C39   C     C_R   0.308721 0.157757 0.361612 -0.320825
C40   C     C_R   0.339180 0.246624 0.384850 0.010316
C41   C     C_R   0.486153 0.206501 0.488900 -0.070794
C42   C     C_3   0.902787 0.428666 0.437228 -0.359440
C43   C     C_3   0.046875 0.428392 0.434215 0.037359
C44   C     C_3   0.964013 0.601636 0.453419 -0.014145
C45   C     C_3   0.922591 0.480319 0.589330 -0.033903
C46   C     C_3   0.879605 0.502745 0.493753 0.111307
H1    H     H_    0.866656 0.441896 0.370512 0.185387
H2    H     H_    0.121703 0.526970 0.627922 0.171121
H3    H     H_    0.951277 0.652781 0.496866 0.163477
H4    H     H_    0.160033 0.653166 0.494185 0.163260
H5    H     H_    0.524931 0.248804 0.044982 0.146199
H6    H     H_    0.510157 0.456146 0.213037 0.173073
H7    H     H_    0.717576 0.748129 0.953598 0.141742
H8    H     H_    0.473766 0.209989 0.897157 0.134437
H9    H     H_    0.444095 0.260390 0.742399 0.158257
H10   H     H_    0.553198 0.545723 0.785782 0.161430
H11   H     H_    0.845323 0.357540 0.464520 0.163455
H12   H     H_    0.687822 0.634323 0.854953 0.139475
H13   H     H_    0.740057 0.018167 0.664180 0.142076
H14   H     H_    0.268498 0.984050 0.330295 0.141887
H15   H     H_    0.764905 0.859984 0.685752 0.139838
H16   H     H_    0.705991 0.701064 0.646745 0.124607
H17   H     H_    0.447474 0.768667 0.462329 0.124191
H18   H     H_    0.053828 0.357998 0.464596 0.167716
H19   H     H_    0.644697 0.134517 0.594921 0.136262
H20   H     H_    0.365401 0.868134 0.398532 0.133547
H21   H     H_    0.239044 0.140978 0.311684 0.143281
H22   H     H_    0.915085 0.538437 0.625645 0.154835
H23   H     H_    0.077220 0.406840 0.613599 0.185957
N1    N     N_R   0.573860 0.731700 0.552730 -0.097406
N2    N     N_R   0.426060 0.268290 0.447230 -0.099003
O1    O     O_R   0.462770 0.383110 0.605620 -0.615543
O2    O     O_R   0.510160 0.531900 0.639510 -0.615771
O3    O     O_R   0.661510 0.425600 0.483070 -0.622716
O4    O     O_R   0.708900 0.574390 0.516960 -0.636397
O5    O     O_R   0.489840 0.468100 0.360490 -0.626121
O6    O     O_R   0.537230 0.616890 0.394380 -0.613387
O7    O     O_R   0.291100 0.425610 0.483040 -0.625599
O8    O     O_R   0.338490 0.574400 0.516930 -0.624703
Zn1   Zn    Zn3+2 0.468350 0.400660 0.477370 0.925457
Zn2   Zn    Zn3+2 0.531650 0.599340 0.522630 0.923519
C47   C     C_3   0.613291 0.767694 0.266480 -0.878991
H24   H     H_    0.515386 0.762513 0.295346 0.238582
H25   H     H_    0.683182 0.763367 0.318924 0.255441
H26   H     H_    0.646683 0.837807 0.227327 0.223452
H27   H     H_    0.572273 0.361804 0.144855 0.150820
H28   H     H_    0.683851 0.789117 0.096543 0.134916
H29   H     H_    0.552950 0.231443 0.537365 0.129250
H30   H     H_    0.293927 0.298770 0.353189 0.133300
C48   C     C_3   0.100027 0.441541 0.338561 -0.950179
H31   H     H_    0.088658 0.507211 0.300965 0.251580
H32   H     H_    0.204166 0.441931 0.334975 0.253131
H33   H     H_    0.046052 0.382913 0.305515 0.242399
C49   C     C_3   0.925084 0.638374 0.361838 -0.918455
H34   H     H_    0.938835 0.594423 0.312152 0.249025
H35   H     H_    0.822270 0.641955 0.362869 0.251175
H36   H     H_    0.985825 0.710085 0.340617 0.242910
H37   H     H_    0.156246 0.622939 0.386656 0.183765
C50   C     C_3   0.837928 0.390542 0.642842 -0.906830
H38   H     H_    0.735743 0.394427 0.649668 0.244627
H39   H     H_    0.840687 0.327852 0.612661 0.242155
H40   H     H_    0.874274 0.381914 0.709936 0.248570

loop_
_geom_bond_atom_site_label_1
_geom_bond_atom_site_label_2
_ccdc_geom_bond_type
C44   H3    S    
C24   H6    S    
C21   H28   S    
C40   N2    A    
C12   O3    A    
C19   C20   A    
C16   H5    S    
C23   O5    A    
C7    C8    A    
C45   C46   S    
C7    C11   A    
C30   C35   A    
C1    C5    S    
C22   C47   S    
C36   C37   A    
C19   C21   A    
C30   C31   A    
O7    Zn1   S    
C15   C16   A    
C6    C22   A    
C29   C33   A    
C42   H11   S    
C18   C19   A    
C42   C46   S    
N1    Zn2   S    
C20   C24   A    
N2    Zn1   S    
C18   H7    S    
C31   C32   A    
C40   H30   S    
C9    C10   A    
C17   H12   S    
C41   N2    A    
C2    C34   S    
C33   H13   S    
O3    Zn1   S    
C21   C22   A    
C8    H9    S    
O2    Zn2   S    
C4    H23   S    
C3    H4    S    
C44   C46   S    
C43   H18   S    
C4    C45   S    
C25   C29   A    
C3    C44   S    
C1    O1    A    
C43   C48   S    
C14   C20   A    
C38   C41   A    
C12   C46   S    
C45   C50   S    
C39   C40   A    
O8    Zn2   S    
O4    Zn2   S    
C35   H20   S    
C25   C26   A    
C35   C36   A    
C2    C4    S    
C5    C9    A    
C37   C38   A    
C34   O8    A    
C11   C16   A    
C48   H32   S    
C50   H38   S    
O6    Zn2   S    
C2    C43   S    
C6    C24   A    
C45   H22   S    
C17   C18   A    
C9    H10   S    
C25   H15   S    
C23   O6    A    
C49   H35   S    
C27   N1    A    
C27   H17   S    
C15   H27   S    
C50   H39   S    
C47   H25   S    
C26   N1    A    
C42   C43   S    
C48   H33   S    
C4    H2    S    
C41   H29   S    
C28   C29   A    
C39   H21   S    
O5    Zn1   S    
C36   H14   S    
C10   C13   A    
C5    C8    A    
C47   H26   S    
C49   H36   S    
C31   C38   A    
C13   C17   A    
C1    O2    A    
C32   C33   A    
C28   C30   A    
C2    C3    S    
C26   H16   S    
O1    Zn1   S    
C34   O7    A    
C3    H37   S    
C48   H31   S    
C6    C23   S    
C42   H1    S    
C49   H34   S    
C44   C49   S    
C10   C11   A    
C50   H40   S    
C37   C39   A    
C47   H24   S    
C12   O4    A    
C27   C28   A    
C14   C15   A    
C7    H8    S    
C13   C14   A    
C32   H19   S    
