data_mof_unit_62152.cif
_audit_creation_date              2012-12-10T18:19:51-0500
_audit_creation_method            fapswitch 2.2
_symmetry_space_group_name_H-M    P1
_symmetry_Int_Tables_number       1
_space_group_crystal_system       monoclinic
_cell_length_a                    15.03069
_cell_length_b                    14.187332
_cell_length_c                    14.138807
_cell_angle_alpha                 90.0
_cell_angle_beta                  87.449191
_cell_angle_gamma                 90.0
_cell_volume                      3012.04794728

loop_
_atom_site_label
_atom_site_type_symbol
_atom_type_description
_atom_site_fract_x
_atom_site_fract_y
_atom_site_fract_z
_atom_type_partial_charge
C1    C     C_R   0.326734 0.500000 0.499698 0.900858
C2    C     C_R   0.953319 0.673951 0.500245 0.122843
C3    C     C_R   0.557509 0.798860 0.438879 0.213161
C4    C     C_R   0.442491 0.201140 0.561121 0.213161
C5    C     C_R   0.442491 0.798860 0.561121 0.213161
C6    C     C_R   0.557509 0.201140 0.438879 0.213161
C7    C     C_R   0.440820 0.899162 0.561215 -0.027621
C8    C     C_R   0.559180 0.100838 0.438785 -0.027621
C9    C     C_R   0.559180 0.899162 0.438785 -0.027621
C10   C     C_R   0.440820 0.100838 0.561215 -0.027621
C11   C     C_R   0.500000 0.949472 0.500000 0.059243
C12   C     C_R   0.673266 0.500000 0.500302 0.900859
C13   C     C_R   0.500000 0.050528 0.500000 0.059243
C14   C     C_R   0.381519 0.950897 0.621028 -0.132405
C15   C     C_R   0.618480 0.049103 0.378972 -0.132405
C16   C     C_R   0.618480 0.950897 0.378972 -0.132405
C17   C     C_R   0.381519 0.049103 0.621028 -0.132405
C18   C     C_R   0.500094 0.500000 0.329329 0.909969
C19   C     C_R   0.499906 0.500000 0.670671 0.909968
C20   C     C_1   0.500128 0.500000 0.227834 -0.145883
C21   C     C_1   0.499872 0.500000 0.772166 -0.145883
C22   C     C_1   0.500124 0.500000 0.142550 0.027537
C23   C     C_R   0.953719 0.500000 0.500342 0.008273
C24   C     C_1   0.499876 0.500000 0.857450 0.027537
C25   C     C_1   0.500045 0.500000 0.042643 0.039282
C26   C     C_1   0.499955 0.500000 0.957357 0.039281
C27   C     C_R   0.814851 0.585217 0.501351 -0.171049
C28   C     C_R   0.185149 0.414783 0.498649 -0.171049
C29   C     C_R   0.769286 0.500000 0.501027 -0.097470
C30   C     C_R   0.230714 0.500000 0.498973 -0.097470
C31   C     C_R   0.814851 0.414783 0.501351 -0.171048
C32   C     C_R   0.185149 0.585217 0.498649 -0.171049
C33   C     C_R   0.907214 0.412897 0.500687 0.029587
C34   C     C_R   0.046281 0.500000 0.499658 0.008274
C35   C     C_R   0.092786 0.587102 0.499313 0.029587
C36   C     C_R   0.907214 0.587102 0.500687 0.029588
C37   C     C_R   0.092786 0.412897 0.499313 0.029587
C38   C     C_R   0.953319 0.326049 0.500245 0.122843
C39   C     C_R   0.046680 0.673951 0.499755 0.122844
C40   C     C_R   0.046680 0.326049 0.499755 0.122843
H1    H     H_    0.777016 0.649703 0.502192 0.203703
H2    H     H_    0.222984 0.350296 0.497808 0.203703
H3    H     H_    0.777016 0.350296 0.502192 0.203703
H4    H     H_    0.222984 0.649703 0.497808 0.203703
H5    H     H_    0.333629 0.917104 0.668891 0.188185
H6    H     H_    0.666371 0.082896 0.331108 0.188185
H7    H     H_    0.666371 0.917104 0.331108 0.188185
H8    H     H_    0.333629 0.082896 0.668891 0.188185
I1    I     I_    0.882811 0.193681 0.499772 -0.230757
I2    I     I_    0.117189 0.806319 0.500228 -0.230757
I3    I     I_    0.117189 0.193681 0.500228 -0.230757
I4    I     I_    0.882811 0.806319 0.499772 -0.230757
I5    I     I_    0.644957 0.725115 0.340559 -0.303856
I6    I     I_    0.355043 0.274884 0.659441 -0.303856
I7    I     I_    0.355043 0.725115 0.659441 -0.303856
I8    I     I_    0.644956 0.274885 0.340559 -0.303856
N1    N     N_R   0.500000 0.750030 0.500000 -0.134995
N2    N     N_R   0.500000 0.249970 0.500000 -0.134995
O1    O     O_R   0.367850 0.580280 0.500020 -0.602160
O2    O     O_R   0.632150 0.419720 0.499980 -0.602159
O3    O     O_R   0.632150 0.580280 0.499980 -0.602160
O4    O     O_R   0.367850 0.419720 0.500020 -0.602160
O5    O     O_R   0.500000 0.580290 0.373720 -0.578388
O6    O     O_R   0.500000 0.419710 0.626280 -0.578388
O7    O     O_R   0.500000 0.580290 0.626280 -0.578388
O8    O     O_R   0.500000 0.419710 0.373720 -0.578388
Zn1   Zn    Zn3+2 0.500000 0.607200 0.500000 1.010695
Zn2   Zn    Zn3+2 0.500000 0.392800 0.500000 1.010695

loop_
_geom_bond_atom_site_label_1
_geom_bond_atom_site_label_2
_ccdc_geom_bond_type
O8    Zn2   S    
C31   C33   A    
C8    C13   A    
C3    C9    A    
C5    N1    A    
C12   C29   S    
C8    C15   A    
C40   I3    S    
C3    I5    S    
C27   H1    S    
C35   C39   A    
C33   C38   A    
C17   H8    S    
O4    Zn2   S    
C19   O6    A    
C23   C34   A    
O1    Zn1   S    
C1    O4    A    
C28   C30   A    
C32   H4    S    
C29   C31   A    
C38   I1    S    
C30   C32   A    
C12   O3    A    
C9    C11   A    
C14   C17   A    
C2    I4    S    
C31   H3    S    
C28   C37   A    
N1    Zn1   S    
C34   C35   A    
C3    N1    A    
C16   H7    S    
N2    Zn2   S    
C1    C30   S    
C38   C40   A    
C9    C16   A    
C24   C26   S    
C19   O7    A    
C37   C40   A    
C18   C20   S    
C1    O1    A    
C14   H5    S    
C27   C36   A    
O5    Zn1   S    
C18   O5    A    
C27   C29   A    
C20   C22   T    
C10   C17   A    
C4    C10   A    
C15   C16   A    
C34   C37   A    
C32   C35   A    
O6    Zn2   S    
C11   C13   A    
C39   I2    S    
C2    C36   A    
O3    Zn1   S    
O2    Zn2   S    
C23   C36   A    
C21   C24   T    
C4    N2    A    
C5    C7    A    
C6    N2    A    
C18   O8    A    
C7    C11   A    
C6    C8    A    
C28   H2    S    
C15   H6    S    
C4    I6    S    
C25   C26   T    
C19   C21   S    
C22   C25   S    
C2    C39   A    
C5    I7    S    
C7    C14   A    
O7    Zn1   S    
C6    I8    S    
C23   C33   A    
C10   C13   A    
C12   O2    A    
