data_mof_unit_41868.cif
_audit_creation_date              2012-12-10T20:52:12-0500
_audit_creation_method            fapswitch 2.2
_symmetry_space_group_name_H-M    P1
_symmetry_Int_Tables_number       1
_space_group_crystal_system       triclinic
_cell_length_a                    10.793908
_cell_length_b                    8.909803
_cell_length_c                    8.212277
_cell_angle_alpha                 90.018029
_cell_angle_beta                  91.310867
_cell_angle_gamma                 90.169166
_cell_volume                      789.577572615

loop_
_atom_site_label
_atom_site_type_symbol
_atom_type_description
_atom_site_fract_x
_atom_site_fract_y
_atom_site_fract_z
_atom_type_partial_charge
C1    C     C_R   0.499809 0.218467 0.499943 0.940719
C2    C     C_R   0.740755 0.508935 0.501676 0.871635
C3    C     C_R   0.202322 0.915839 0.162150 -0.115311
C4    C     C_R   0.771453 0.488588 0.028380 -0.115399
C5    C     C_R   0.147761 0.822765 0.277005 -0.220116
C6    C     C_R   0.849865 0.439738 0.908689 -0.152451
C7    C     C_R   0.122946 0.671338 0.240845 0.027887
C8    C     C_R   0.899857 0.543942 0.802333 0.051030
C9    C     C_R   0.154565 0.612696 0.086786 0.503088
C10   C     C_R   0.882557 0.700505 0.827368 0.476980
C11   C     C_R   0.208277 0.708433 0.972688 -0.142726
C12   C     C_R   0.499708 0.781514 0.500021 0.931639
C13   C     C_R   0.802761 0.747391 0.947612 -0.153618
C14   C     C_R   0.232063 0.858851 0.009859 -0.173388
C15   C     C_R   0.743851 0.641998 0.043468 -0.222966
C16   C     C_R   0.934892 0.578518 0.370153 -0.232724
C17   C     C_R   0.068350 0.464701 0.635210 -0.262746
C18   C     C_R   0.874649 0.521832 0.504914 -0.068939
C19   C     C_R   0.128479 0.509863 0.495242 -0.106587
C20   C     C_R   0.943911 0.490329 0.646536 0.002898
C21   C     C_R   0.062569 0.579206 0.366308 -0.019206
C22   C     C_1   0.499532 0.065309 0.499904 -0.200282
C23   C     C_1   0.499492 0.934625 0.499975 -0.189630
C24   C     C_R   0.260142 0.502365 0.498107 0.870870
H1    H     H_    0.273933 0.931167 0.920496 0.159646
H2    H     H_    0.119818 0.427536 0.742206 0.229059
H3    H     H_    0.099447 0.408455 0.134509 0.340370
H4    H     H_    0.004535 0.765190 0.671028 0.332830
H5    H     H_    0.680906 0.681372 0.134297 0.194414
H6    H     H_    0.221159 0.032371 0.191091 0.156417
H7    H     H_    0.728197 0.404876 0.103092 0.181643
H8    H     H_    0.124480 0.868753 0.394546 0.153491
H9    H     H_    0.862774 0.320461 0.889935 0.153763
H10   H     H_    0.232082 0.666230 0.854389 0.170141
H11   H     H_    0.784686 0.865736 0.964963 0.160543
H12   H     H_    0.883996 0.636318 0.277118 0.176097
N1    N     N_1   0.500020 0.500030 0.073640 -0.053416
N2    N     N_1   0.499980 0.499970 0.926360 -0.028774
O1    O     O_R   0.499990 0.285340 0.636850 -0.610128
O2    O     O_3   0.935740 0.809692 0.732030 -0.790846
O3    O     O_R   0.500010 0.714660 0.363150 -0.627936
O4    O     O_R   0.500010 0.285350 0.363100 -0.616947
O5    O     O_R   0.499990 0.714650 0.636900 -0.619261
O6    O     O_R   0.316750 0.500000 0.636870 -0.636118
O7    O     O_R   0.683250 0.500000 0.363130 -0.659228
O8    O     O_R   0.316770 0.500020 0.363120 -0.603503
O9    O     O_R   0.683230 0.499980 0.636880 -0.607936
O10   O     O_3   0.137481 0.464029 0.044100 -0.809580
Zn1   Zn    Zn3+2 0.499990 0.499990 0.682780 0.987434
Zn2   Zn    Zn3+2 0.500010 0.500010 0.317220 0.967167

loop_
_geom_bond_atom_site_label_1
_geom_bond_atom_site_label_2
_ccdc_geom_bond_type
H3    O10   S    
O6    Zn1   S    
C3    H6    S    
C16   C21   A    
C13   H11   S    
C12   O3    A    
C2    O9    A    
C2    C18   S    
C5    C7    A    
O8    Zn2   S    
C6    H9    S    
C5    H8    S    
C24   O8    A    
C16   C18   A    
C4    C15   A    
C19   C24   S    
C1    C22   S    
O9    Zn1   S    
N2    Zn1   S    
C8    C20   S    
C16   H12   S    
N1    Zn2   S    
C9    C11   A    
C12   C23   S    
N1    N2    T    
C3    C14   A    
O7    Zn2   S    
O4    Zn2   S    
C17   H2    S    
C4    C6    A    
C17   C19   A    
C15   H5    S    
C12   O5    A    
C18   C20   A    
C13   C15   A    
C14   H1    S    
C24   O6    A    
C11   C14   A    
C4    H7    S    
C19   C21   A    
C2    O7    A    
H4    O2    S    
C1    O4    A    
C17   C20   A    
C9    O10   S    
C8    C10   A    
C7    C9    A    
O3    Zn2   S    
C1    O1    A    
C22   C23   T    
O5    Zn1   S    
C10   O2    S    
C6    C8    A    
O1    Zn1   S    
C7    C21   S    
C11   H10   S    
C3    C5    A    
C10   C13   A    
