data_mof_unit_11130.cif
_audit_creation_date              2012-12-10T18:27:52-0500
_audit_creation_method            fapswitch 2.2
_symmetry_space_group_name_H-M    P1
_symmetry_Int_Tables_number       1
_space_group_crystal_system       triclinic
_cell_length_a                    18.174457
_cell_length_b                    18.149668
_cell_length_c                    18.161385
_cell_angle_alpha                 90.24948
_cell_angle_beta                  119.821236
_cell_angle_gamma                 119.788285
_cell_volume                      4251.80812352

loop_
_atom_site_label
_atom_site_type_symbol
_atom_type_description
_atom_site_fract_x
_atom_site_fract_y
_atom_site_fract_z
_atom_type_partial_charge
C1    C     C_R   0.782412 0.642318 0.641162 0.811159
C2    C     C_3   0.594407 0.822769 0.804828 0.548508
C3    C     C_3   0.531831 0.794665 0.701670 -0.275957
C4    C     C_3   0.435078 0.771466 0.697356 -0.200169
C5    C     C_3   0.403374 0.674251 0.694179 -0.139344
C6    C     C_3   0.500055 0.698234 0.699531 0.003193
C7    C     C_3   0.060827 0.333840 0.341958 0.278343
C8    C     C_3   0.940595 0.265443 0.286443 -0.169290
C9    C     C_3   0.064640 0.310655 0.205310 -0.045736
C10   C     C_3   0.060445 0.201608 0.293823 -0.572015
C11   C     C_3   0.102646 0.301937 0.300987 0.038599
C12   C     C_R   0.217770 0.358928 0.359982 0.823863
C13   C     C_3   0.898360 0.199958 0.196356 0.077644
C14   C     C_3   0.942085 0.253058 0.141606 0.175041
C15   C     C_3   0.941040 0.140493 0.229527 -0.084645
C16   C     C_3   0.566196 0.360508 0.800874 0.285761
C17   C     C_3   0.568748 0.299911 0.859984 -0.547392
C18   C     C_3   0.384490 0.230247 0.670967 0.386118
C19   C     C_3   0.543412 0.251822 0.691105 -0.490147
C20   C     C_3   0.497455 0.301386 0.699675 -0.005618
C21   C     C_3   0.498816 0.199265 0.801160 0.014303
C22   C     C_3   0.387182 0.173473 0.734539 -0.398781
C23   C     C_R   0.500008 0.641118 0.358704 0.771088
C24   C     C_3   0.540538 0.188474 0.747886 0.386624
C25   C     C_3   0.940388 0.772207 0.783217 -0.098393
C26   C     C_3   0.059924 0.825903 0.846027 -0.434168
C27   C     C_3   0.938719 0.637750 0.730919 0.417018
C28   C     C_3   0.940701 0.749762 0.644452 0.378092
C29   C     C_3   0.897973 0.699333 0.698861 0.017114
C30   C     C_3   0.101956 0.801281 0.800926 0.014447
C31   C     C_3   0.060858 0.699984 0.783420 -0.137581
C32   C     C_3   0.059924 0.815956 0.708127 -0.494576
C33   C     C_3   0.586599 0.361627 0.284245 0.376467
C34   C     C_R   0.498508 0.358835 0.641376 0.791451
C35   C     C_3   0.581085 0.299852 0.220672 -0.476077
C36   C     C_3   0.529977 0.240700 0.351701 -0.415135
C37   C     C_3   0.392921 0.240734 0.212219 -0.138410
C38   C     C_3   0.502893 0.302322 0.302585 0.084014
C39   C     C_3   0.502350 0.198864 0.201760 0.100459
C40   C     C_3   0.537069 0.183746 0.295446 -0.061932
C41   C     C_3   0.393525 0.180645 0.152254 -0.468697
C42   C     C_3   0.578710 0.718746 0.278043 -0.409050
C43   C     C_3   0.582159 0.781903 0.222317 -0.439600
C44   C     C_3   0.391101 0.648191 0.210987 -0.524500
C45   C     C_R   0.501131 0.358823 0.359318 0.813335
C46   C     C_3   0.525867 0.789324 0.348104 -0.046922
C47   C     C_3   0.500376 0.699069 0.301240 0.136375
C48   C     C_3   0.498386 0.799650 0.197776 0.156640
C49   C     C_3   0.387710 0.707056 0.148195 0.259940
C50   C     C_3   0.529526 0.850020 0.288530 -0.456915
C51   C     C_R   0.499484 0.141326 0.858800 0.785737
C52   C     C_R   0.499474 0.858237 0.140739 0.804205
C53   C     C_R   0.782493 0.141337 0.140529 0.801203
C54   C     C_R   0.217479 0.859861 0.858673 0.851504
C55   C     C_R   0.501432 0.141470 0.143077 0.775419
C56   C     C_R   0.499696 0.641202 0.641679 0.786181
C57   C     C_R   0.500165 0.858576 0.858340 0.813761
C58   C     C_3   0.564610 0.726924 0.803196 -0.249865
C59   C     C_3   0.467859 0.704474 0.798375 -0.240000
C60   C     C_3   0.499620 0.800866 0.800810 -0.003137
H1    H     H_    0.441172 0.668671 0.838536 0.146202
H2    H     H_    0.095902 0.383075 0.214201 0.188995
H3    H     H_    0.095218 0.178533 0.272276 0.219478
H4    H     H_    0.084772 0.195817 0.361830 0.164014
H5    H     H_    0.912012 0.106190 0.269377 0.146799
H6    H     H_    0.616434 0.706574 0.844472 0.140027
H7    H     H_    0.647281 0.408468 0.820923 0.089060
H8    H     H_    0.650187 0.321523 0.907845 0.151894
H9    H     H_    0.542560 0.308470 0.901281 0.227642
H10   H     H_    0.354256 0.267655 0.679986 0.076832
H11   H     H_    0.359313 0.184967 0.772885 0.108718
H12   H     H_    0.500871 0.213280 0.619300 0.250851
H13   H     H_    0.625009 0.302356 0.715133 0.100598
H14   H     H_    0.622248 0.210993 0.798287 0.019336
H15   H     H_    0.332868 0.100404 0.694493 0.231442
H16   H     H_    0.908879 0.739041 0.821691 0.143651
H17   H     H_    0.096166 0.899705 0.863853 0.180450
H18   H     H_    0.082911 0.811575 0.910442 0.172231
H19   H     H_    0.922048 0.698393 0.592001 0.089429
H20   H     H_    0.084032 0.886891 0.718211 0.213243
H21   H     H_    0.559478 0.830334 0.662034 0.137402
H22   H     H_    0.093597 0.805481 0.675439 0.155094
H23   H     H_    0.080036 0.684830 0.738327 0.187062
H24   H     H_    0.567252 0.406144 0.249283 0.064491
H25   H     H_    0.558075 0.314889 0.156430 0.144129
H26   H     H_    0.659243 0.314333 0.250884 0.202585
H27   H     H_    0.605180 0.281925 0.418942 0.189003
H28   H     H_    0.620104 0.208734 0.332217 0.151686
H29   H     H_    0.337448 0.195492 0.228149 0.181253
H30   H     H_    0.382031 0.790402 0.655079 0.158631
H31   H     H_    0.372566 0.193600 0.087203 0.163048
H32   H     H_    0.332730 0.108765 0.134206 0.175209
H33   H     H_    0.470365 0.196381 0.363774 0.188123
H34   H     H_    0.555239 0.654604 0.238909 0.178050
H35   H     H_    0.657742 0.749054 0.339733 0.170822
H36   H     H_    0.660748 0.846631 0.262126 0.181123
H37   H     H_    0.572038 0.752892 0.161295 0.188130
H38   H     H_    0.370513 0.582900 0.177559 0.157883
H39   H     H_    0.325125 0.610759 0.648085 0.122098
H40   H     H_    0.461985 0.772777 0.354581 0.159923
H41   H     H_    0.608812 0.913543 0.323696 0.172487
H42   H     H_    0.478425 0.871575 0.277767 0.166655
H43   H     H_    0.331948 0.629923 0.224660 0.171271
H44   H     H_    0.095042 0.331588 0.412259 0.014411
H45   H     H_    0.925889 0.222863 0.328234 0.094290
O1    O     O_3   0.500000 0.500000 0.500000 -0.474044
O2    O     O_R   0.438720 0.616970 0.383270 -0.649014
O3    O     O_R   0.561250 0.444520 0.678220 -0.657664
O4    O     O_R   0.733700 0.616750 0.555460 -0.661941
O5    O     O_R   0.266330 0.321760 0.383040 -0.657651
O6    O     O_3   0.499930 0.999970 0.999970 -0.480220
O7    O     O_R   0.438680 0.055440 0.821740 -0.622698
O8    O     O_R   0.561210 0.883000 0.116700 -0.658880
O9    O     O_R   0.733610 0.178210 0.116920 -0.642089
O10   O     O_R   0.266230 0.883210 0.944500 -0.634414
O11   O     O_R   0.561150 0.178510 0.117240 -0.648160
O12   O     O_R   0.733670 0.616970 0.678220 -0.665892
O13   O     O_R   0.438720 0.882700 0.821420 -0.659463
O14   O     O_R   0.438610 0.055960 0.117240 -0.661455
O15   O     O_R   0.561250 0.882700 0.943960 -0.618842
O16   O     O_R   0.733630 0.055440 0.116700 -0.626484
O17   O     O_R   0.266260 0.883000 0.821740 -0.656985
O18   O     O_R   0.561190 0.178210 0.944500 -0.663215
O19   O     O_R   0.438650 0.883210 0.116920 -0.628788
O20   O     O_R   0.266300 0.444520 0.383270 -0.616901
O21   O     O_R   0.561280 0.616750 0.383040 -0.661440
O22   O     O_R   0.438750 0.321760 0.555460 -0.622260
O23   O     O_R   0.561320 0.444010 0.382720 -0.654429
O24   O     O_R   0.561210 0.617270 0.678540 -0.660590
O25   O     O_R   0.438790 0.321460 0.382720 -0.651504
O26   O     O_R   0.438680 0.617270 0.556010 -0.644884
Zn1   Zn    Zn3+2 0.412450 0.543930 0.456390 0.961513
Zn2   Zn    Zn3+2 0.587550 0.543620 0.456070 0.930525
Zn3   Zn    Zn3+2 0.412480 0.368530 0.456070 0.954048
Zn4   Zn    Zn3+2 0.587520 0.543930 0.631470 0.924368
Zn5   Zn    Zn3+2 0.587490 0.956040 0.043570 0.975205
Zn6   Zn    Zn3+2 0.587450 0.131440 0.043900 0.931578
Zn7   Zn    Zn3+2 0.412380 0.956350 0.043900 0.954149
Zn8   Zn    Zn3+2 0.412420 0.956040 0.868500 0.958700
N1    N     N_3   0.884161 0.306221 0.274089 -0.420608
H46   H     H_    0.912841 0.365988 0.260443 0.226604
H47   H     H_    0.889760 0.321053 0.333116 0.161328
N2    N     N_3   0.911899 0.315070 0.112445 -0.502953
H48   H     H_    0.947447 0.370111 0.165738 0.211166
H49   H     H_    0.831810 0.282551 0.072268 0.208236
N3    N     N_3   0.903687 0.068358 0.155701 -0.394425
H50   H     H_    0.908226 0.017856 0.180709 0.176693
H51   H     H_    0.951299 0.091080 0.133141 0.199745
N4    N     N_3   0.111976 0.291093 0.168933 -0.478724
H52   H     H_    0.101179 0.313176 0.113638 0.175755
H53   H     H_    0.079146 0.222397 0.148087 0.206237
N5    N     N_3   0.901428 0.188381 0.059509 -0.453784
H54   H     H_    0.923082 0.223508 0.020527 0.183981
H55   H     H_    0.820411 0.149290 0.019226 0.179929
O27   O     O_3   0.524058 0.404532 0.812239 -0.655084
C61   C     C_3   0.600277 0.497303 0.863799 0.138926
H56   H     H_    0.559197 0.530339 0.848707 0.161019
H57   H     H_    0.655282 0.531439 0.844535 0.153303
C62   C     C_3   0.658891 0.511755 0.964928 -0.403090
H58   H     H_    0.602450 0.476234 0.982352 0.230623
H59   H     H_    0.705271 0.483646 0.982545 0.214682
C63   C     C_3   0.731780 0.611745 0.020351 -0.968288
H60   H     H_    0.687198 0.641324 0.005697 0.261174
H61   H     H_    0.789673 0.648437 0.004689 0.265452
H62   H     H_    0.773511 0.620194 0.093185 0.270255
O28   O     O_3   0.474522 0.098023 0.689159 -0.605865
C64   C     C_3   0.528812 0.058242 0.705144 0.142633
H63   H     H_    0.470340 0.984132 0.673293 0.174113
H64   H     H_    0.580723 0.070787 0.778249 0.106100
C65   C     C_3   0.589057 0.089444 0.662414 -0.403082
H65   H     H_    0.536172 0.079292 0.590544 0.243086
H66   H     H_    0.652862 0.162316 0.697537 0.212108
C66   C     C_3   0.635226 0.037056 0.668054 -0.946320
H67   H     H_    0.686680 0.044473 0.739231 0.271729
H68   H     H_    0.681413 0.063270 0.639656 0.266645
H69   H     H_    0.572335 0.964634 0.628584 0.263016
O29   O     O_3   0.322090 0.171564 0.581070 -0.611169
C67   C     C_3   0.229095 0.165678 0.526049 0.130459
H70   H     H_    0.198200 0.137595 0.454868 0.175673
H71   H     H_    0.242676 0.233106 0.534253 0.105899
C68   C     C_3   0.147892 0.102123 0.542639 -0.400602
H72   H     H_    0.136986 0.035990 0.534602 0.240029
H73   H     H_    0.175058 0.130538 0.612386 0.206159
C69   C     C_3   0.044069 0.088076 0.476962 -0.988818
H74   H     H_    0.053418 0.153583 0.483203 0.253722
H75   H     H_    0.987995 0.043929 0.492344 0.276150
H76   H     H_    0.012312 0.055370 0.406708 0.265069
O30   O     O_3   0.692688 0.904621 0.864218 -0.657233
C70   C     C_3   0.771160 0.900499 0.870291 0.071684
H77   H     H_    0.824732 0.965019 0.867725 0.155513
H78   H     H_    0.741992 0.846147 0.813415 0.120625
C71   C     C_3   0.832450 0.890690 0.960615 -0.311169
H79   H     H_    0.871561 0.951263 0.016179 0.224912
H80   H     H_    0.779078 0.831098 0.968677 0.219079
C72   C     C_3   0.913808 0.880134 0.967964 -1.017344
H81   H     H_    0.875919 0.818256 0.914561 0.264287
H82   H     H_    0.957432 0.874306 0.034543 0.270110
H83   H     H_    0.969314 0.939702 0.961584 0.260566
N6    N     N_3   0.909278 0.833780 0.756971 -0.379720
H84   H     H_    0.828811 0.797606 0.722318 0.185610
H85   H     H_    0.939940 0.880894 0.815219 0.171971
N7    N     N_3   0.907372 0.594143 0.788605 -0.481119
H86   H     H_    0.925273 0.547137 0.802075 0.184072
H87   H     H_    0.945107 0.640419 0.850285 0.148561
N8    N     N_3   0.117627 0.683378 0.865669 -0.463806
H88   H     H_    0.108810 0.698857 0.914867 0.196495
H89   H     H_    0.092095 0.616024 0.850052 0.183225
O31   O     O_3   0.898064 0.798907 0.606973 -0.620775
C73   C     C_3   0.859570 0.784646 0.514947 0.111429
H90   H     H_    0.806944 0.806633 0.487445 0.156463
H91   H     H_    0.811808 0.712225 0.474876 0.139577
C74   C     C_3   0.947186 0.841283 0.503306 -0.400550
H92   H     H_    0.998617 0.911678 0.549535 0.239983
H93   H     H_    0.993842 0.813511 0.520409 0.209428
C75   C     C_3   0.904170 0.841368 0.406621 -0.960645
H94   H     H_    0.850549 0.771460 0.358955 0.258639
H95   H     H_    0.968915 0.880110 0.399238 0.276152
H96   H     H_    0.861693 0.873262 0.389336 0.260673
O32   O     O_3   0.900889 0.572364 0.653659 -0.689579
C76   C     C_3   0.804871 0.488072 0.618166 0.114541
H97   H     H_    0.751403 0.475685 0.545813 0.169246
H98   H     H_    0.763423 0.484350 0.648386 0.146184
C77   C     C_3   0.822393 0.413310 0.624958 -0.334249
H99   H     H_    0.823403 0.394690 0.567212 0.222613
H100  H     H_    0.898858 0.437996 0.687949 0.227994
C78   C     C_3   0.738655 0.329927 0.625283 -1.012302
H101  H     H_    0.750390 0.344238 0.691063 0.259208
H102  H     H_    0.744513 0.272969 0.616152 0.272570
H103  H     H_    0.660085 0.310181 0.570555 0.259725
O33   O     O_3   0.687225 0.410954 0.367101 -0.660402
C79   C     C_3   0.751245 0.501353 0.374442 0.111873
H104  H     H_    0.811596 0.540537 0.447348 0.176352
H105  H     H_    0.709234 0.533745 0.348616 0.132587
C80   C     C_3   0.805588 0.508248 0.329239 -0.398000
H106  H     H_    0.845662 0.474416 0.355481 0.232654
H107  H     H_    0.747466 0.474239 0.255332 0.212187
C81   C     C_3   0.884910 0.606250 0.347256 -0.960199
H108  H     H_    0.845620 0.640116 0.317990 0.260925
H109  H     H_    0.924585 0.608971 0.315512 0.269765
H110  H     H_    0.944037 0.642623 0.420801 0.267031
N9    N     N_3   0.356416 0.293460 0.165243 -0.478275
H111  H     H_    0.277942 0.248951 0.112461 0.189367
H112  H     H_    0.395545 0.325976 0.136152 0.177464
N10   N     N_3   0.478734 0.089393 0.290101 -0.461410
H113  H     H_    0.503829 0.055571 0.273307 0.195482
H114  H     H_    0.399333 0.056739 0.241956 0.211698
N11   N     N_3   0.359630 0.659856 0.062564 -0.461714
H115  H     H_    0.405512 0.636563 0.074635 0.168660
H116  H     H_    0.283446 0.602168 0.026807 0.171848
N12   N     N_3   0.622848 0.838986 0.439007 -0.461534
H117  H     H_    0.617087 0.800334 0.480885 0.174798
H118  H     H_    0.684843 0.852761 0.437202 0.189424
N13   N     N_3   0.308508 0.723210 0.127358 -0.422327
H119  H     H_    0.234907 0.662273 0.088783 0.166243
H120  H     H_    0.318040 0.746466 0.186259 0.167766
O34   O     O_3   0.089909 0.422254 0.340614 -0.644241
C82   C     C_3   0.117933 0.475610 0.419026 0.094407
H121  H     H_    0.198149 0.500421 0.475594 0.152783
H122  H     H_    0.064455 0.437110 0.438928 0.116577
C83   C     C_3   0.113791 0.556049 0.400252 -0.318578
H123  H     H_    0.175025 0.600485 0.390130 0.228825
H124  H     H_    0.037282 0.531662 0.337537 0.213894
C84   C     C_3   0.128913 0.610335 0.477001 -0.982866
H125  H     H_    0.067011 0.567557 0.486862 0.268059
H126  H     H_    0.125190 0.667764 0.460571 0.270617
H127  H     H_    0.205600 0.637413 0.540275 0.265244

loop_
_geom_bond_atom_site_label_1
_geom_bond_atom_site_label_2
_ccdc_geom_bond_type
C44   C49   S    
C18   H10   S    
C84   H127  S    
C59   C60   S    
C27   O32   S    
C51   O7    A    
C7    O34   S    
C27   C29   S    
C27   N7    S    
C51   O18   A    
C6    C58   S    
C24   O28   S    
C77   H99   S    
O22   Zn3   S    
C9    C14   S    
C3    C6    S    
C24   H14   S    
C8    H45   S    
C76   H98   S    
C67   H70   S    
C77   C78   S    
O6    Zn8   S    
C7    C8    S    
C39   C41   S    
C55   O14   A    
C52   O8    A    
C69   H74   S    
O1    Zn1   S    
C30   C54   S    
C9    N4    S    
C26   H18   S    
N7    H87   S    
C5    C6    S    
C77   H100  S    
O19   Zn7   S    
C28   C29   S    
N1    H47   S    
O17   Zn8   S    
C31   N8    S    
C10   C15   S    
C75   H95   S    
N13   H119  S    
C33   C35   S    
C35   H26   S    
C2    C60   S    
O6    Zn5   S    
C66   H69   S    
N4    H52   S    
C55   O11   A    
C45   O23   A    
N12   H118  S    
N2    H48   S    
C15   H5    S    
C68   H72   S    
C73   C74   S    
C31   H23   S    
N10   H113  S    
C84   H126  S    
N9    H111  S    
O9    Zn6   S    
C42   C43   S    
C70   H78   S    
C28   H19   S    
C46   N12   S    
C38   C45   S    
C17   H9    S    
C1    O4    A    
C46   C47   S    
C44   H38   S    
C36   H33   S    
C58   H6    S    
O1    Zn2   S    
C39   C55   S    
C10   H3    S    
O21   Zn2   S    
N10   H114  S    
C16   C17   S    
O8    Zn5   S    
O32   C76   S    
C3    H21   S    
O18   Zn6   S    
O10   Zn7   S    
C78   H101  S    
C43   C48   S    
O6    Zn7   S    
N3    H51   S    
C56   O24   A    
C44   C47   S    
C52   O19   A    
C72   H83   S    
C20   C34   S    
C48   C50   S    
C54   O17   A    
C45   O25   A    
O24   Zn4   S    
C13   C14   S    
C54   O10   A    
O7    Zn8   S    
C42   H34   S    
C19   H12   S    
O25   Zn3   S    
C80   H107  S    
C22   H15   S    
C83   C84   S    
C28   C32   S    
C12   O5    A    
C76   H97   S    
C44   H43   S    
C7    C11   S    
C64   C65   S    
C13   C53   S    
N11   H116  S    
C36   H27   S    
C25   C29   S    
C10   H4    S    
C59   H1    S    
C26   H17   S    
C37   N9    S    
N7    H86   S    
C5    C59   S    
C27   C31   S    
C9    H2    S    
C67   C68   S    
C71   C72   S    
C5    H39   S    
C36   C40   S    
C23   C47   S    
N1    H46   S    
C18   O29   S    
O3    Zn4   S    
C64   H64   S    
C81   H110  S    
C68   H73   S    
C6    C56   S    
C64   H63   S    
N13   H120  S    
O31   C73   S    
C57   C60   S    
C12   O20   A    
C49   N11   S    
C58   C59   S    
N8    H88   S    
O4    Zn2   S    
C17   C21   S    
N3    H50   S    
C42   H35   S    
O30   C70   S    
O15   Zn5   S    
C80   C81   S    
C71   H80   S    
C70   C71   S    
C35   C39   S    
C75   H94   S    
C37   C38   S    
C25   N6    S    
C81   H108  S    
C32   H20   S    
C63   H62   S    
C49   N13   S    
O1    Zn3   S    
C62   H58   S    
C61   H57   S    
C74   C75   S    
C19   H13   S    
C16   C20   S    
C23   O2    A    
O34   C82   S    
C4    C60   S    
C16   O27   S    
C62   H59   S    
C73   H90   S    
C62   C63   S    
C79   H105  S    
C16   H7    S    
C1    O12   A    
C74   H92   S    
C82   H122  S    
C9    C11   S    
C40   N10   S    
C66   H68   S    
C23   O21   A    
C57   O15   A    
C83   H124  S    
O1    Zn4   S    
C41   H31   S    
C34   O22   A    
C50   H42   S    
C78   H102  S    
C7    H44   S    
C81   H109  S    
O28   C64   S    
C28   O31   S    
N4    H53   S    
C75   H96   S    
C80   H106  S    
C33   O33   S    
O12   Zn4   S    
C22   H11   S    
C21   C51   S    
C53   O9    A    
O6    Zn6   S    
O11   Zn6   S    
C68   C69   S    
C70   H77   S    
N2    H49   S    
C46   H40   S    
C14   N2    S    
C48   C49   S    
C17   H8    S    
C18   C22   S    
O14   Zn7   S    
C61   C62   S    
C82   H121  S    
C43   H37   S    
N5    H55   S    
O2    Zn1   S    
O26   Zn1   S    
C15   N3    S    
C67   H71   S    
C11   C12   S    
C2    C58   S    
C4    H30   S    
C26   C30   S    
C63   H60   S    
C78   H103  S    
C32   H22   S    
C46   C50   S    
C33   C38   S    
C69   H76   S    
C37   H29   S    
C8    N1    S    
C82   C83   S    
C34   O3    A    
C71   H79   S    
C25   H16   S    
C19   C20   S    
C13   C15   S    
C19   C24   S    
C25   C26   S    
C63   H61   S    
C53   O16   A    
O23   Zn2   S    
C83   H123  S    
C30   C32   S    
C35   H25   S    
O20   Zn1   S    
C40   H28   S    
C1    C29   S    
C30   C31   S    
C65   H66   S    
O27   C61   S    
C84   H125  S    
C4    C5    S    
C36   C38   S    
C73   H91   S    
C69   H75   S    
C2    C3    S    
C79   C80   S    
C18   C20   S    
C42   C47   S    
O16   Zn5   S    
C37   C41   S    
O33   C79   S    
C33   H24   S    
C2    O30   S    
N12   H117  S    
C56   O26   A    
O5    Zn3   S    
C10   C11   S    
C74   H93   S    
N6    H84   S    
C66   H67   S    
C72   H81   S    
C39   C40   S    
C8    C13   S    
C48   C52   S    
C41   H32   S    
C61   H56   S    
N5    H54   S    
O13   Zn8   S    
C50   H41   S    
O29   C67   S    
C65   H65   S    
C21   C24   S    
C14   N5    S    
C79   H104  S    
N6    H85   S    
C43   H36   S    
N9    H112  S    
C21   C22   S    
N8    H89   S    
C76   C77   S    
C3    C4    S    
N11   H115  S    
C57   O13   A    
C72   H82   S    
C65   C66   S    
