data_mof_unit_44723.cif
_audit_creation_date              2013-03-05T16:34:12-0500
_audit_creation_method            fapswitch 2.2
_symmetry_space_group_name_H-M    P1
_symmetry_Int_Tables_number       1
_space_group_crystal_system       triclinic
_cell_length_a                    11.082191
_cell_length_b                    10.737983
_cell_length_c                    9.783155
_cell_angle_alpha                 90.943036
_cell_angle_beta                  91.379529
_cell_angle_gamma                 89.786112
_cell_volume                      1163.69758515

loop_
_atom_site_label
_atom_site_type_symbol
_atom_site_description
_atom_site_fract_x
_atom_site_fract_y
_atom_site_fract_z
_atom_type_partial_charge
O1    O     O_R   0.500000 0.319640 0.618810 -0.606270
O2    O     O_R   0.500010 0.319680 0.381230 -0.516947
C1    C     C_R   0.500500 0.263240 0.499303 0.787585
O3    O     O_R   0.319640 0.499990 0.618790 -0.596449
O4    O     O_R   0.319650 0.500030 0.381210 -0.566238
C2    C     C_R   0.264033 0.498237 0.497661 0.828398
Cu1   Cu    Cu3+1 0.499990 0.499980 0.640670 0.942419
Cu2   Cu    Cu3+1 0.500010 0.500020 0.359330 1.067596
O5    O     O_R   0.499990 0.680320 0.618770 -0.599878
O6    O     O_R   0.500000 0.680360 0.381190 -0.543143
O7    O     O_R   0.680350 0.499970 0.618790 -0.584391
O8    O     O_R   0.680360 0.500010 0.381210 -0.504219
C3    C     C_R   0.500556 0.736676 0.500889 0.811542
C4    C     C_R   0.738610 0.499123 0.500934 0.790519
H1    H     H_    0.200963 0.603136 0.861002 0.170316
C5    C     C_R   0.137372 0.684684 0.047353 -0.124665
H2    H     H_    0.132326 0.776856 0.004402 0.173841
C6    C     C_R   0.107845 0.665673 0.184377 0.460033
C7    C     C_R   0.116114 0.543600 0.237560 0.011494
C8    C     C_R   0.153728 0.444744 0.152630 -0.087818
H3    H     H_    0.156615 0.350556 0.190572 0.179226
C9    C     C_R   0.184737 0.466178 0.017639 -0.132532
H4    H     H_    0.214386 0.389658 0.953207 0.159544
C10   C     C_R   0.176219 0.585933 0.965207 -0.231660
C11   C     C_R   0.937591 0.510055 0.376796 0.369030
C12   C     C_R   0.875909 0.495600 0.499522 -0.184371
C13   C     C_R   0.948732 0.479247 0.617477 -0.016864
C14   C     C_R   0.073241 0.470899 0.612539 -0.240700
H5    H     H_    0.124045 0.454501 0.706453 0.168822
C15   C     C_R   0.132353 0.492801 0.491919 -0.093171
C16   C     C_R   0.063378 0.513660 0.371529 -0.059664
C17   C     C_R   0.892255 0.617460 0.802483 -0.265178
H6    H     H_    0.939199 0.691083 0.751643 0.143761
C18   C     C_R   0.819406 0.641719 0.914758 0.521651
C19   C     C_R   0.757783 0.540929 0.968128 -0.029939
H7    H     H_    0.697992 0.556514 0.050357 0.176229
C20   C     C_R   0.776959 0.418408 0.922853 -0.120868
H8    H     H_    0.734988 0.340931 0.971748 0.193188
C21   C     C_R   0.849047 0.395421 0.813205 -0.141775
H9    H     H_    0.858209 0.301534 0.772325 0.134675
C22   C     C_R   0.900312 0.496024 0.749770 0.097199
C23   C     C_R   0.567807 0.062036 0.406764 0.271526
C24   C     C_R   0.496844 0.129517 0.497557 -0.102819
C25   C     C_R   0.419808 0.066679 0.584847 -0.184786
H10   H     H_    0.361124 0.117879 0.652864 0.165050
C26   C     C_R   0.420427 0.936853 0.586499 -0.156682
H11   H     H_    0.361627 0.888765 0.654852 0.158373
C27   C     C_R   0.498340 0.870298 0.501153 -0.087549
C28   C     C_R   0.567968 0.933522 0.408164 0.168331
C29   C     C_3   0.701344 0.925656 0.391555 -0.453793
C30   C     C_3   0.701902 0.066731 0.392504 -0.454392
H12   H     H_    0.749200 0.884855 0.481612 0.193741
H13   H     H_    0.725501 0.883793 0.291166 0.264817
H14   H     H_    0.748748 0.108203 0.484155 0.176690
H15   H     H_    0.729575 0.105743 0.293794 0.270153
C31   C     C_R   0.466895 0.603712 0.073213 0.143133
N1    N     N_R   0.500790 0.500930 0.147930 -0.264109
C32   C     C_R   0.504837 0.391444 0.069213 0.386113
C33   C     C_R   0.505554 0.392616 0.922775 -0.173022
H16   H     H_    0.512697 0.305037 0.867625 0.188741
N2    N     N_R   0.500790 0.500890 0.852020 -0.205928
C34   C     C_R   0.467004 0.602906 0.928222 0.141670
C35   C     C_3   0.510838 0.732637 0.920701 -0.491626
C36   C     C_3   0.515508 0.734788 0.077245 0.130447
H17   H     H_    0.599241 0.739268 0.871827 0.209704
H18   H     H_    0.440466 0.794469 0.875282 0.212690
H19   H     H_    0.607518 0.743456 0.123606 0.162671
N3    N     N_R   0.500082 0.271919 0.129087 0.149038
O9    O     O_R   0.394661 0.226317 0.155416 -0.333720
O10   O     O_R   0.589816 0.195419 0.111611 -0.386417
N4    N     N_R   0.431716 0.827828 0.131401 0.136664
O11   O     O_R   0.343714 0.796491 0.209083 -0.340801
O12   O     O_R   0.450140 0.945135 0.108703 -0.288451
N5    N     N_R   0.068751 0.770101 0.266777 0.152791
O13   O     O_R   0.088547 0.772778 0.398433 -0.373263
O14   O     O_R   0.022635 0.868276 0.208969 -0.322476
N6    N     N_R   0.872585 0.521924 0.253442 0.092427
O15   O     O_R   0.830495 0.420089 0.197357 -0.405644
O16   O     O_R   0.826278 0.630318 0.225743 -0.378754
O17   O     O_3   0.806818 0.757675 0.979604 -0.567679
C37   C     C_3   0.836267 0.858877 0.896718 -0.267056
H20   H     H_    0.790184 0.852488 0.794445 0.129970
H21   H     H_    0.935675 0.866691 0.887645 0.174287
H22   H     H_    0.804311 0.945818 0.947090 0.219612

loop_
_geom_bond_atom_site_label_1
_geom_bond_atom_site_label_2
_geom_bond_distance
_ccdc_geom_bond_type
C11   C16   1.396891 A    
C35   H17   1.103493 S    
C5    C10   1.393127 A    
C19   H7    1.065185 S    
C7    C16   1.488236 S    
C37   H20   1.113565 S    
Cu1   Cu2   2.752404 S    
C21   C22   1.385099 A    
N6    O15   1.298509 A    
Cu1   O7    2.015330 S    
C1    C24   1.436441 S    
C12   C13   1.405198 A    
C20   H8    1.078885 S    
N5    O14   1.301559 A    
C11   N6    1.397879 S    
C14   H5    1.082504 S    
C19   C20   1.398396 A    
C6    C7    1.420079 A    
O4    C2    1.308739 A    
O7    C4    1.334846 A    
C31   N1    1.379765 A    
C18   C19   1.397000 A    
C36   N4    1.463027 S    
O5    C3    1.311327 A    
Cu1   N2    2.067339 S    
C18   O17   1.396151 S    
C7    C8    1.405438 A    
N3    O9    1.301511 A    
C29   H12   1.112615 S    
C17   C22   1.397681 A    
C31   C36   1.508522 S    
C30   H15   1.109334 S    
C23   C30   1.497055 S    
C35   H18   1.111586 S    
C33   H16   1.080075 S    
C6    N5    1.441662 S    
O3    Cu1   2.004971 S    
C37   H21   1.110954 S    
C25   C26   1.394413 A    
N6    O16   1.300290 A    
C26   C27   1.401393 A    
C33   N2    1.363065 A    
C29   H13   1.111543 S    
N5    O13   1.301217 A    
C36   H19   1.109571 S    
O3    C2    1.322339 A    
C21   H9    1.083768 S    
N4    O12   1.300393 A    
C5    H2    1.082321 S    
C32   C33   1.433097 A    
O1    C1    1.307945 A    
C17   C18   1.399223 A    
C24   C25   1.404206 A    
C34   C35   1.480580 S    
Cu2   N1    2.068570 S    
O4    Cu2   2.015330 S    
C13   C22   1.421446 S    
Cu2   O8    2.004972 S    
C29   C30   1.514776 S    
C5    C6    1.405844 A    
C4    C12   1.522289 S    
C32   N3    1.421233 S    
H1    C10   1.081038 S    
C2    C15   1.460379 S    
C8    C9    1.395570 A    
C9    C10   1.394313 A    
C23   C24   1.393088 A    
C37   H22   1.109328 S    
C25   H10   1.083571 S    
Cu1   O5    1.951805 S    
C26   H11   1.083184 S    
C27   C28   1.393539 A    
O1    Cu1   1.944759 S    
O2    Cu2   1.951807 S    
O8    C4    1.323871 A    
O17   C37   1.410456 S    
O6    C3    1.308975 A    
C3    C27   1.434914 S    
C30   H14   1.112638 S    
C17   H6    1.082358 S    
C14   C15   1.387254 A    
O2    C1    1.313150 A    
C11   C12   1.406900 A    
N4    O11   1.299412 A    
C20   C21   1.371468 A    
N1    C32   1.395965 A    
C15   C16   1.409161 A    
C31   C34   1.418385 A    
N2    C34   1.370932 A    
C23   C28   1.380269 A    
C35   C36   1.530926 S    
C8    H3    1.083177 S    
Cu2   O6    1.944759 S    
C28   C29   1.492815 S    
C13   C14   1.384350 A    
N3    O10   1.300157 A    
C9    H4    1.082292 S    
