data_mof_unit_56749.cif
_audit_creation_date              2012-12-10T17:10:29-0500
_audit_creation_method            fapswitch 2.2
_symmetry_space_group_name_H-M    P1
_symmetry_Int_Tables_number       1
_space_group_crystal_system       triclinic
_cell_length_a                    10.712255
_cell_length_b                    13.010122
_cell_length_c                    11.706115
_cell_angle_alpha                 99.647465
_cell_angle_beta                  93.449202
_cell_angle_gamma                 91.576963
_cell_volume                      1604.29605312

loop_
_atom_site_label
_atom_site_type_symbol
_atom_type_description
_atom_site_fract_x
_atom_site_fract_y
_atom_site_fract_z
_atom_type_partial_charge
C1    C     C_R   0.498240 0.299253 0.478707 0.826865
C2    C     C_R   0.494850 0.860887 0.435959 -0.257067
C3    C     C_R   0.503213 0.031630 0.556999 0.069352
C4    C     C_R   0.493799 0.968874 0.444534 0.087679
C5    C     C_R   0.412950 0.382557 0.023811 -0.308200
C6    C     C_R   0.590597 0.618161 0.976099 -0.336371
C7    C     C_R   0.409756 0.399791 0.144224 0.013829
C8    C     C_R   0.583436 0.604341 0.854924 -0.022300
C9    C     C_R   0.551676 0.546681 0.159834 0.653369
C10   C     C_R   0.463579 0.446451 0.843670 0.648444
C11   C     C_R   0.538367 0.542780 0.035612 -0.071841
C12   C     C_R   0.500481 0.700804 0.521520 0.813153
C13   C     C_R   0.470347 0.457037 0.967326 -0.061473
C14   C     C_R   0.263398 0.515969 0.501537 0.804690
C15   C     C_R   0.737569 0.486909 0.498410 0.817800
C16   C     C_R   0.123483 0.595777 0.711622 -0.142636
C17   C     C_R   0.874601 0.425072 0.283611 -0.045911
C18   C     C_R   0.072274 0.585853 0.816000 -0.164578
C19   C     C_R   0.925886 0.438219 0.180303 -0.148330
C20   C     C_R   0.970680 0.516800 0.816175 -0.239344
C21   C     C_R   0.032620 0.502012 0.183027 -0.220226
C22   C     C_R   0.909564 0.466761 0.710922 -0.072819
C23   C     C_R   0.500389 0.814287 0.534689 -0.082535
C24   C     C_R   0.094894 0.546437 0.289557 0.013870
C25   C     C_R   0.948714 0.493058 0.604423 0.040520
C26   C     C_R   0.053665 0.518669 0.394423 0.003104
C27   C     C_R   0.067674 0.541880 0.605754 0.064694
C28   C     C_R   0.933096 0.471950 0.391907 0.038215
C29   C     C_R   0.874665 0.473157 0.497414 -0.180359
C30   C     C_R   0.127418 0.536042 0.501297 -0.152912
C31   C     C_2   0.822143 0.375355 0.712362 0.912646
C32   C     C_2   0.187008 0.634119 0.290550 0.877165
C33   C     C_2   0.471096 0.955560 0.223602 0.801641
C34   C     C_R   0.497323 0.185980 0.466343 -0.084026
C35   C     C_2   0.527850 0.044667 0.777842 0.823866
C36   C     C_3   0.275067 0.364798 0.770785 0.045474
C37   C     C_3   0.217553 0.288244 0.667034 -0.716537
C38   C     C_3   0.696124 0.689686 0.224792 0.038934
C39   C     C_3   0.770450 0.734171 0.338191 -0.709954
C40   C     C_R   0.486327 0.015894 0.343496 -0.005403
C41   C     C_R   0.511467 0.984399 0.657933 -0.015220
C42   C     C_R   0.491208 0.124341 0.356127 -0.230975
C43   C     C_R   0.507428 0.875800 0.645058 -0.213802
C44   C     C_R   0.501182 0.139705 0.565511 -0.172052
Cu1   Cu    Cu3+1 0.509250 0.507730 0.615930 0.985856
Cu2   Cu    Cu3+1 0.490750 0.492270 0.384070 0.994781
H1    H     H_    0.064063 0.519535 0.101937 0.159783
H2    H     H_    0.500992 0.188952 0.649311 0.235458
H3    H     H_    0.513390 0.839255 0.721824 0.175943
H4    H     H_    0.486473 0.160698 0.279199 0.181669
H5    H     H_    0.625239 0.663208 0.812487 0.162779
H6    H     H_    0.360030 0.344380 0.185931 0.149243
H7    H     H_    0.751814 0.432985 0.866705 0.280519
H8    H     H_    0.260573 0.772067 0.375241 0.353724
H9    H     H_    0.379628 0.839434 0.111085 0.350999
H10   H     H_    0.618297 0.162241 0.889154 0.356295
H11   H     H_    0.246516 0.443863 0.762535 0.169975
H12   H     H_    0.944100 0.499868 0.898905 0.131957
H13   H     H_    0.233871 0.345052 0.849158 0.134128
H14   H     H_    0.242083 0.207409 0.675774 0.241344
H15   H     H_    0.114103 0.293331 0.662773 0.215169
H16   H     H_    0.252339 0.306494 0.585108 0.236759
H17   H     H_    0.763119 0.693079 0.156717 0.160461
H18   H     H_    0.614112 0.738325 0.213312 0.138153
H19   H     H_    0.793499 0.818274 0.340569 0.208724
H20   H     H_    0.716625 0.725572 0.413863 0.240152
H21   H     H_    0.858950 0.692398 0.345094 0.247367
H22   H     H_    0.370405 0.310521 0.976581 0.186485
H23   H     H_    0.630172 0.692068 0.018537 0.153726
H24   H     H_    0.207947 0.644024 0.714009 0.159224
H25   H     H_    0.790249 0.376308 0.278095 0.155068
H26   H     H_    0.117831 0.624955 0.897365 0.164283
H27   H     H_    0.879057 0.403221 0.097853 0.153953
H28   H     H_    0.491372 0.811653 0.352255 0.192438
N1    N     N_R   0.523180 0.519350 0.790130 -0.215994
N2    N     N_R   0.476820 0.480650 0.209870 -0.199613
O1    O     O_R   0.506570 0.354460 0.582000 -0.510409
O2    O     O_R   0.750035 0.367372 0.806513 -0.708111
O3    O     O_2   0.245415 0.639860 0.205033 -0.605673
O4    O     O_R   0.202758 0.712804 0.387988 -0.778307
O5    O     O_2   0.534485 0.980006 0.148182 -0.567394
O6    O     O_R   0.380732 0.874131 0.195449 -0.760782
O7    O     O_2   0.467492 0.018660 0.854450 -0.567230
O8    O     O_R   0.616030 0.127866 0.804613 -0.713202
O9    O     O_3   0.406812 0.357582 0.776498 -0.571026
O10   O     O_3   0.661319 0.584771 0.225571 -0.569289
O11   O     O_R   0.493430 0.645540 0.418000 -0.557771
O12   O     O_R   0.490940 0.341410 0.386200 -0.615327
O13   O     O_R   0.509060 0.658590 0.613800 -0.608226
O14   O     O_R   0.327470 0.506520 0.597900 -0.594034
O15   O     O_R   0.672530 0.493480 0.402100 -0.533898
O16   O     O_R   0.311840 0.493460 0.402100 -0.586797
O17   O     O_R   0.688160 0.506540 0.597900 -0.589653
O18   O     O_2   0.814202 0.303905 0.629717 -0.564118

loop_
_geom_bond_atom_site_label_1
_geom_bond_atom_site_label_2
_ccdc_geom_bond_type
C6    H23   S    
C10   O9    S    
C1    O1    A    
C34   C42   A    
C36   H13   S    
Cu1   O17   S    
Cu2   N2    S    
C37   H16   S    
Cu1   Cu2   S    
C12   C23   S    
C38   O10   S    
C28   C29   A    
C19   C21   A    
C24   C26   A    
C7    H6    S    
C38   H17   S    
C38   C39   S    
Cu2   O16   S    
C23   C43   A    
C14   O14   A    
C3    C41   A    
C4    C40   A    
C22   C25   A    
C15   C29   S    
C9    N2    A    
Cu1   O13   S    
C33   O6    S    
C41   C43   A    
C5    C13   A    
C2    H28   S    
C1    O12   A    
C40   C42   A    
C27   C30   A    
C18   H26   S    
C39   H19   S    
C14   C30   S    
C5    H22   S    
C1    C34   S    
H10   O8    S    
Cu2   O12   S    
C25   C29   A    
C3    C44   A    
C33   C40   S    
C22   C31   S    
C12   O13   A    
C19   H27   S    
C16   H24   S    
C36   H11   S    
C6    C11   A    
C5    C7    A    
C35   O7    D    
C43   H3    S    
C6    C8    A    
Cu2   O15   S    
C8    N1    A    
C2    C4    A    
C24   C32   S    
C9    O10   S    
C32   O4    S    
C10   N1    A    
C34   C44   A    
H9    O6    S    
Cu1   O14   S    
C9    C11   A    
C8    H5    S    
C14   O16   A    
C42   H4    S    
C20   C22   A    
C17   H25   S    
H8    O4    S    
C39   H20   S    
C20   H12   S    
C3    C4    A    
C31   O2    S    
Cu2   O11   S    
C36   C37   S    
C12   O11   A    
C17   C28   A    
C39   H21   S    
C10   C13   A    
C15   O17   A    
C37   H15   S    
C35   O8    S    
C26   C30   A    
C7    N2    A    
C36   O9    S    
C25   C27   A    
C31   O18   D    
C26   C28   A    
Cu1   N1    S    
H7    O2    S    
C32   O3    D    
C11   C13   A    
C16   C27   A    
C17   C19   A    
C18   C20   A    
C35   C41   S    
C37   H14   S    
C15   O15   A    
C16   C18   A    
C21   C24   A    
C2    C23   A    
C38   H18   S    
Cu1   O1    S    
C33   O5    D    
C44   H2    S    
C21   H1    S    
