data_mof_unit_26998.cif
_audit_creation_date              2013-03-05T15:52:17-0500
_audit_creation_method            fapswitch 2.2
_symmetry_space_group_name_H-M    P1
_symmetry_Int_Tables_number       1
_space_group_crystal_system       triclinic
_cell_length_a                    21.360482
_cell_length_b                    7.268961
_cell_length_c                    14.794361
_cell_angle_alpha                 89.192624
_cell_angle_beta                  74.134027
_cell_angle_gamma                 90.081664
_cell_volume                      2209.33513632

loop_
_atom_site_label
_atom_site_type_symbol
_atom_site_description
_atom_site_fract_x
_atom_site_fract_y
_atom_site_fract_z
_atom_type_partial_charge
O1    O     O_R   0.464160 0.506670 0.130070 -0.584763
O2    O     O_R   0.535840 0.006670 0.869930 -0.585367
O3    O     O_R   0.589710 0.179080 0.006710 -0.597025
O4    O     O_R   0.410290 0.679080 0.993290 -0.595716
C1    C     C_R   0.616508 0.343726 0.000402 0.881823
C2    C     C_R   0.383885 0.844439 0.997468 0.880968
O5    O     O_R   0.467940 0.177220 0.138010 -0.598321
O6    O     O_R   0.532060 0.677220 0.861990 -0.598329
O7    O     O_R   0.413200 0.002810 0.002170 -0.592462
O8    O     O_R   0.586800 0.502810 0.997830 -0.594029
C3    C     C_R   0.457370 0.344568 0.174639 0.917968
C4    C     C_R   0.543038 0.847160 0.825713 0.920016
O9    O     O_3   0.482180 0.337850 0.955280 -0.287602
O10   O     O_3   0.517820 0.837850 0.044720 -0.290584
V1    V     V_3+5 0.503310 0.064600 0.008300 1.141825
V2    V     V_3+5 0.496690 0.564600 0.991700 1.140623
C5    C     C_R   0.571158 0.858369 0.724153 -0.107090
C6    C     C_R   0.430766 0.348727 0.276915 -0.109051
C7    C     C_R   0.927387 0.860973 0.276834 -0.162204
C8    C     C_R   0.072489 0.371947 0.723310 -0.138472
C9    C     C_R   0.556998 0.840736 0.566212 0.093834
C10   C     C_R   0.447026 0.333723 0.434292 0.096502
C11   C     C_R   0.531459 0.868536 0.663618 -0.242436
C12   C     C_R   0.471607 0.356492 0.335822 -0.233734
C13   C     C_R   0.638240 0.850744 0.688760 -0.241863
C14   C     C_R   0.363896 0.341612 0.314678 -0.240935
C15   C     C_R   0.667458 0.837295 0.591690 0.129012
C16   C     C_R   0.335732 0.338991 0.412607 0.133472
C17   C     C_R   0.625902 0.810114 0.532354 0.047069
C18   C     C_R   0.377579 0.312380 0.471690 0.039579
C19   C     C_R   0.736710 0.839155 0.552797 0.002060
C20   C     C_R   0.267075 0.358679 0.452627 0.000234
C21   C     C_R   0.763947 0.797268 0.456282 -0.101126
C22   C     C_R   0.239377 0.337078 0.551716 -0.100063
C23   C     C_R   0.721215 0.724477 0.406862 0.384257
C24   C     C_R   0.282839 0.303644 0.608415 0.397898
C25   C     C_R   0.653906 0.734117 0.444730 -0.358646
C26   C     C_R   0.348430 0.266538 0.565902 -0.345045
C27   C     C_R   0.779241 0.884364 0.607422 -0.294703
C28   C     C_R   0.226386 0.414577 0.396435 -0.291924
C29   C     C_R   0.846677 0.885901 0.570348 0.343878
C30   C     C_R   0.160310 0.446832 0.433794 0.343999
C31   C     C_R   0.873821 0.863440 0.473095 -0.023497
C32   C     C_R   0.131972 0.423856 0.530648 -0.035891
C33   C     C_R   0.832375 0.826801 0.414477 0.096847
C34   C     C_R   0.169959 0.356515 0.589538 0.103352
C35   C     C_R   0.941236 0.889518 0.432353 -0.057034
C36   C     C_R   0.066567 0.473803 0.570424 -0.053500
C37   C     C_R   0.967664 0.885648 0.335443 -0.115248
C38   C     C_R   0.038107 0.454118 0.666248 -0.106495
C39   C     C_R   0.860329 0.835702 0.315744 -0.063695
C40   C     C_R   0.136334 0.311624 0.684027 -0.063821
H1    H     H_    0.623445 0.668136 0.407100 0.188740
H2    H     H_    0.377376 0.214396 0.609836 0.193060
H3    H     H_    0.830615 0.834641 0.267438 0.184022
H4    H     H_    0.159328 0.236228 0.729420 0.164494
H5    H     H_    0.019462 0.908077 0.305915 0.140679
H6    H     H_    0.988915 0.502340 0.696128 0.161635
H7    H     H_    0.480344 0.893532 0.694725 0.112010
H8    H     H_    0.522847 0.379069 0.303028 0.107326
H9    H     H_    0.665983 0.844852 0.739630 0.103931
H10   H     H_    0.335191 0.332632 0.265201 0.104503
H11   H     H_    0.761547 0.919509 0.680382 0.162446
H12   H     H_    0.244969 0.442671 0.322290 0.161872
H13   H     H_    0.974028 0.920027 0.474379 0.174540
H14   H     H_    0.037681 0.536682 0.528776 0.181758
C41   C     C_3   0.229114 0.763842 0.908038 0.321393
C42   C     C_3   0.787146 0.153664 0.003730 0.278626
H15   H     H_    0.210758 0.619728 0.911416 0.095736
H16   H     H_    0.816314 0.080198 0.940534 0.093910
C43   C     C_3   0.302337 0.754106 0.909651 -0.439300
C44   C     C_3   0.715187 0.149567 0.000813 -0.442323
H17   H     H_    0.336534 0.814877 0.845836 0.189950
H18   H     H_    0.684655 0.071460 0.062471 0.200249
H19   H     H_    0.316321 0.606874 0.911332 0.167343
H20   H     H_    0.711802 0.074235 0.937256 0.144172
H21   H     H_    0.177597 0.618092 0.088338 0.180557
H22   H     H_    0.831225 0.365633 0.843118 0.187000
H23   H     H_    0.284264 0.610279 0.090005 0.158255
H24   H     H_    0.723194 0.375275 0.844432 0.155680
C45   C     C_3   0.196566 0.761300 0.085874 -0.366275
C46   C     C_3   0.803211 0.444404 0.904909 -0.404008
C47   C     C_3   0.216817 0.061939 0.997211 -0.311761
C48   C     C_3   0.770548 0.467273 0.079562 -0.185421
C49   C     C_3   0.187953 0.864833 0.997537 -0.143684
C50   C     C_3   0.813106 0.357420 0.996745 -0.147353
H25   H     H_    0.189689 0.136225 0.061241 0.164490
H26   H     H_    0.784920 0.614316 0.070962 0.218158
H27   H     H_    0.211344 0.142765 0.935420 0.207948
H28   H     H_    0.779391 0.418585 0.146177 0.240251
C51   C     C_3   0.312847 0.852343 0.996982 0.023470
C52   C     C_3   0.688008 0.348065 0.998229 0.027534
C53   C     C_3   0.269086 0.755963 0.086211 -0.331413
C54   C     C_3   0.729838 0.445487 0.907552 -0.346282
C55   C     C_3   0.289414 0.054508 0.994837 -0.324624
C56   C     C_3   0.697337 0.451658 0.084303 -0.322118
H29   H     H_    0.318855 0.126399 0.930221 0.200747
H30   H     H_    0.670923 0.377796 0.150119 0.183759
H31   H     H_    0.296565 0.130100 0.056227 0.152406
H32   H     H_    0.676288 0.592118 0.086926 0.178239
H33   H     H_    0.167645 0.831052 0.150208 0.202587
H34   H     H_    0.822268 0.588032 0.895381 0.198812
H35   H     H_    0.274915 0.825021 0.150113 0.162556
H36   H     H_    0.713426 0.590150 0.904558 0.164437
O11   O     O_R   0.913210 0.208550 0.002110 -0.557105
O12   O     O_R   0.086790 0.708550 0.997890 -0.591897
O13   O     O_R   0.032060 0.539960 0.861980 -0.565598
O14   O     O_R   0.967940 0.039960 0.138020 -0.575129
C57   C     C_R   0.044854 0.373804 0.825436 0.932330
C58   C     C_R   0.954926 0.871617 0.174539 0.982462
O15   O     O_R   0.910290 0.538020 0.993280 -0.573572
O16   O     O_R   0.089710 0.038020 0.006720 -0.602486
O17   O     O_R   0.964160 0.712340 0.130090 -0.571952
O18   O     O_R   0.035840 0.212340 0.869910 -0.578392
C59   C     C_R   0.884290 0.368919 0.996826 0.882690
C60   C     C_R   0.115971 0.870506 0.001569 0.935589
O19   O     O_3   0.017820 0.379210 0.044690 -0.295170
O20   O     O_3   0.982180 0.879210 0.955310 -0.250727
V3    V     V_3+5 0.996690 0.652500 0.991710 1.271068
V4    V     V_3+5 0.003310 0.152500 0.008290 1.252381
N1    N     N_R   0.220792 0.849203 0.820791 0.256024
O21   O     O_R   0.270524 0.898423 0.751837 -0.371143
O22   O     O_R   0.163689 0.847963 0.805286 -0.395534
N2    N     N_R   0.794462 0.054595 0.087760 0.231496
O23   O     O_R   0.757379 0.090510 0.171210 -0.414343
O24   O     O_R   0.834735 0.917673 0.078181 -0.425630
N3    N     N_R   0.886668 0.919296 0.632478 0.230349
O25   O     O_R   0.932747 0.804734 0.635811 -0.438910
O26   O     O_R   0.870012 0.043959 0.696829 -0.432311
N4    N     N_R   0.122431 0.501061 0.371268 0.225035
O27   O     O_R   0.071107 0.406335 0.369178 -0.412630
O28   O     O_R   0.144791 0.625470 0.306375 -0.452740
C61   C     C_R   0.510875 0.845152 0.503744 0.131264
C62   C     C_R   0.443340 0.810025 0.541243 -0.149139
C63   C     C_R   0.401000 0.810017 0.483976 -0.091339
C64   C     C_R   0.424382 0.848386 0.388202 -0.070845
C65   C     C_R   0.489992 0.889970 0.349807 -0.086083
C66   C     C_R   0.532474 0.891167 0.406844 -0.195461
H37   H     H_    0.422228 0.777186 0.614560 0.126941
H38   H     H_    0.349857 0.779294 0.514123 0.150788
H39   H     H_    0.391525 0.848272 0.343985 0.118475
H40   H     H_    0.507946 0.924355 0.275763 0.137726
H41   H     H_    0.582023 0.933260 0.374119 0.141852
C67   C     C_R   0.495030 0.341129 0.493686 0.130905
C68   C     C_R   0.560914 0.290245 0.455715 -0.151727
C69   C     C_R   0.605108 0.291038 0.510130 -0.099742
C70   C     C_R   0.585282 0.345936 0.603319 -0.066653
C71   C     C_R   0.521673 0.404798 0.641398 -0.084190
C72   C     C_R   0.477618 0.406777 0.586767 -0.189947
H42   H     H_    0.579133 0.246022 0.384130 0.119714
H43   H     H_    0.654881 0.248286 0.479812 0.147192
H44   H     H_    0.619485 0.346047 0.645460 0.116765
H45   H     H_    0.506660 0.452679 0.713010 0.139122
H46   H     H_    0.430319 0.463994 0.618202 0.137027
N5    N     N_R   0.743965 0.624536 0.321933 0.218449
O29   O     O_R   0.785897 0.492536 0.316373 -0.418590
O30   O     O_R   0.714648 0.645577 0.256269 -0.448528
N6    N     N_R   0.266261 0.348408 0.706432 0.219075
O31   O     O_R   0.295374 0.266871 0.762416 -0.429682
O32   O     O_R   0.236397 0.501998 0.733315 -0.406791

loop_
_geom_bond_atom_site_label_1
_geom_bond_atom_site_label_2
_geom_bond_distance
_ccdc_geom_bond_type
C47   H25   1.113490 S    
C65   H40   1.082509 S    
C3    C6    1.464423 S    
C46   C54   1.557075 S    
O12   V3    1.993336 S    
N5    O30   1.299238 A    
C21   C33   1.437390 A    
O14   V4    2.021078 S    
N4    O28   1.300470 A    
C70   C71   1.391559 A    
O1    C3    1.330244 A    
C44   H20   1.113910 S    
O2    C4    1.327716 A    
C42   N2    1.473030 S    
C2    O7    1.321435 A    
C68   C69   1.398180 A    
C63   C64   1.391545 A    
C27   C29   1.394166 A    
C45   H33   1.112474 S    
C36   C38   1.386578 A    
C11   H7    1.079405 S    
C5    C11   1.392910 A    
C48   H28   1.106505 S    
C6    C12   1.393086 A    
N2    O24   1.300170 A    
C23   C25   1.395304 A    
C48   C50   1.544611 S    
H23   C53   1.113079 S    
C66   H41   1.078387 S    
C44   C52   1.559930 S    
C55   H31   1.113460 S    
C15   C17   1.424083 A    
C33   C39   1.419387 A    
C2    C51   1.520559 S    
C34   C40   1.419148 A    
C52   C56   1.547135 S    
C37   H5    1.083875 S    
C18   C26   1.397584 A    
O15   V3    2.017598 S    
C48   C56   1.550036 S    
C9    C61   1.524091 S    
C29   N3    1.438222 S    
O20   V3    1.780308 S    
C8    C38   1.390993 A    
O17   V3    2.027655 S    
C19   C27   1.412268 A    
C56   H30   1.112975 S    
C4    C5    1.458737 S    
C19   C21   1.424272 A    
O11   V4    1.993930 S    
C22   C34   1.442544 A    
C41   C43   1.572454 S    
C68   H42   1.077491 S    
C42   C44   1.549685 S    
C25   H1    1.080747 S    
C28   C30   1.389461 A    
C54   H36   1.113034 S    
C61   C66   1.415730 A    
O6    V2    2.021057 S    
N6    O32   1.298986 A    
C29   C31   1.408455 A    
C53   H35   1.113010 S    
C30   C32   1.402220 A    
C41   N1    1.478468 S    
O13   V3    2.043715 S    
C32   C34   1.425740 A    
O13   C57   1.328262 A    
C63   H38   1.082740 S    
C47   H27   1.112672 S    
C41   C49   1.567738 S    
C15   C19   1.433112 A    
C38   H6    1.083434 S    
C16   C20   1.431798 A    
C71   C72   1.398077 A    
C44   H18   1.113040 S    
O19   V4    1.793489 S    
C62   H37   1.077882 S    
C43   H17   1.109177 S    
C67   C68   1.417031 A    
O3    C1    1.316969 A    
C46   C50   1.556792 S    
C9    C17   1.437934 A    
C8    C57   1.464360 S    
O12   C60   1.340034 A    
C50   C59   1.523025 S    
C41   H15   1.113670 S    
C20   C22   1.429241 A    
O4    V2    2.019965 S    
O5    C3    1.332980 A    
C72   H46   1.076924 S    
N3    O26   1.301592 A    
C64   H39   1.082390 S    
C51   C53   1.550667 S    
C45   C53   1.550968 S    
C7    C37   1.391412 A    
C26   H2    1.077904 S    
H21   C45   1.113007 S    
O6    C4    1.334407 A    
C47   C55   1.542511 S    
C6    C14   1.384820 A    
C52   C54   1.554210 S    
C46   H34   1.113021 S    
C30   N4    1.437224 S    
O1    V2    2.011929 S    
C13   H9    1.078154 S    
O2    V1    2.024382 S    
C31   C33   1.425624 A    
C58   O17   1.327767 A    
N1    O21   1.301241 A    
C57   O18   1.325075 A    
C42   C50   1.572839 S    
O4    C2    1.323508 A    
C47   C49   1.558399 S    
C9    C11   1.412006 A    
N6    O31   1.301087 A    
C10   C12   1.414239 A    
C13   C15   1.405520 A    
C71   H45   1.082282 S    
C17   C25   1.393062 A    
N3    O25   1.300922 A    
O16   C60   1.335793 A    
O3    V1    2.017521 S    
O16   V4    2.020036 S    
C69   C70   1.391434 A    
C7    C58   1.467028 S    
C10   C18   1.441832 A    
C67   C72   1.414690 A    
O11   C59   1.331356 A    
C49   C60   1.522971 S    
C48   H26   1.107590 S    
C23   N5    1.426709 S    
C64   C65   1.391683 A    
H22   C46   1.112756 S    
C55   H29   1.112974 S    
C62   C63   1.398104 A    
C24   N6    1.437678 S    
C35   C37   1.390558 A    
C27   H11   1.076201 S    
C65   C66   1.398005 A    
C14   C16   1.408517 A    
C28   H12   1.076066 S    
C5    C13   1.386105 A    
C24   C26   1.398327 A    
C70   H44   1.082382 S    
C14   H10   1.078262 S    
C16   C18   1.422458 A    
C8    C40   1.401925 A    
C32   C36   1.409927 A    
O8    V2    2.002883 S    
C43   H19   1.113302 S    
C61   C62   1.418224 A    
C31   C35   1.412201 A    
C56   H32   1.113100 S    
O5    V1    2.043707 S    
C21   C23   1.422009 A    
C22   C24   1.430119 A    
O14   C58   1.328473 A    
N4    O27   1.301509 A    
C39   H3    1.077863 S    
C20   C28   1.413540 A    
O7    V1    2.002230 S    
C45   C49   1.553173 S    
N1    O22   1.301346 A    
C1    C52   1.519066 S    
C51   C55   1.555813 S    
C69   H43   1.082690 S    
C7    C39   1.400830 A    
C1    O8    1.324916 A    
C43   C51   1.553623 S    
C42   H16   1.115338 S    
O9    V2    1.793865 S    
C10   C67   1.523240 S    
N5    O29   1.301553 A    
O10   V1    1.780674 S    
O15   C59   1.342536 A    
C12   H8    1.080357 S    
C36   H14   1.081664 S    
H24   C54   1.112795 S    
C35   H13   1.080715 S    
O18   V4    2.014813 S    
C40   H4    1.078570 S    
N2    O23   1.301831 A    
