data_mof_unit_34557.cif
_audit_creation_date              2012-12-10T20:45:32-0500
_audit_creation_method            fapswitch 2.2
_symmetry_space_group_name_H-M    P1
_symmetry_Int_Tables_number       1
_space_group_crystal_system       triclinic
_cell_length_a                    10.775748
_cell_length_b                    10.723521
_cell_length_c                    9.882516
_cell_angle_alpha                 88.884037
_cell_angle_beta                  90.550504
_cell_angle_gamma                 90.193977
_cell_volume                      1141.68871337

loop_
_atom_site_label
_atom_site_type_symbol
_atom_type_description
_atom_site_fract_x
_atom_site_fract_y
_atom_site_fract_z
_atom_type_partial_charge
C1    C     C_R   0.498707 0.259906 0.500664 0.931438
C2    C     C_R   0.829831 0.462078 0.967237 0.179676
C3    C     C_R   0.805439 0.335510 0.003966 0.357158
C4    C     C_R   0.260506 0.500683 0.499179 0.947446
C5    C     C_R   0.817646 0.242327 0.907633 -0.183240
C6    C     C_R   0.860520 0.269760 0.776917 0.144957
C7    C     C_R   0.883057 0.395337 0.739191 0.009345
C8    C     C_R   0.486692 0.059238 0.618427 0.020401
C9    C     C_R   0.509458 0.127797 0.500848 -0.185112
C10   C     C_R   0.559721 0.068799 0.388010 -0.181111
C11   C     C_R   0.571695 0.939959 0.388277 0.428176
C12   C     C_R   0.254199 0.844092 0.157911 -0.137978
C13   C     C_R   0.523371 0.871034 0.499508 -0.260506
C14   C     C_R   0.491211 0.932340 0.616480 0.001240
C15   C     C_3   0.379105 0.918335 0.704066 0.307229
C16   C     C_R   0.506342 0.739555 0.498907 0.867001
C17   C     C_3   0.377790 0.059400 0.710410 -0.513344
C18   C     C_R   0.473733 0.392890 0.073498 0.190563
C19   C     C_R   0.530715 0.603953 0.069707 -0.141196
C20   C     C_R   0.534456 0.602614 0.926313 -0.047977
C21   C     C_R   0.465324 0.396205 0.930525 0.053426
C22   C     C_3   0.337645 0.341113 0.932820 -0.554692
C23   C     C_R   0.934150 0.566036 0.404029 -0.288994
C24   C     C_3   0.356090 0.319059 0.083636 0.758900
C25   C     C_R   0.740255 0.498148 0.501395 0.876436
C26   C     C_R   0.239601 0.860824 0.296391 -0.116456
C27   C     C_R   0.175032 0.772278 0.373806 -0.241903
C28   C     C_R   0.123895 0.665832 0.313664 0.045748
C29   C     C_R   0.137400 0.649798 0.172118 0.531131
C30   C     C_R   0.203157 0.739398 0.096259 -0.152141
C31   C     C_3   0.794686 0.099354 0.636434 -0.752504
C32   C     C_3   0.838971 0.688526 0.026657 -0.769345
C33   C     C_R   0.873501 0.497070 0.504887 -0.114163
C34   C     C_R   0.940575 0.432873 0.608676 -0.084478
C35   C     C_R   0.069560 0.426538 0.598553 0.382073
C36   C     C_R   0.128295 0.498426 0.498064 -0.113925
C37   C     C_R   0.061890 0.572017 0.403182 -0.069624
C38   C     C_R   0.867232 0.489388 0.833894 -0.163974
H1    H     H_    0.304962 0.912457 0.098185 0.202910
H2    H     H_    0.266137 0.413077 0.908969 0.257658
H3    H     H_    0.325781 0.256231 0.874374 0.200444
H4    H     H_    0.165288 0.786040 0.481396 0.132578
H5    H     H_    0.214960 0.727453 0.988591 0.190831
H6    H     H_    0.881733 0.622507 0.331764 0.174200
H7    H     H_    0.888221 0.584168 0.802200 0.163434
H8    H     H_    0.809193 0.357431 0.198669 0.342708
H9    H     H_    0.962364 0.190537 0.621314 0.247524
H10   H     H_    0.744968 0.159100 0.561357 0.239593
H11   H     H_    0.730912 0.066411 0.717229 0.245084
H12   H     H_    0.802513 0.145982 0.938364 0.184811
H13   H     H_    0.831270 0.016596 0.584249 0.238774
H14   H     H_    0.669577 0.809249 0.310904 0.326498
H15   H     H_    0.481764 0.895176 0.868316 0.334372
H16   H     H_    0.191878 0.319398 0.158011 0.348485
H17   H     H_    0.442738 0.159036 0.065826 0.308710
H18   H     H_    0.045984 0.492694 0.167896 0.351972
H19   H     H_    0.094443 0.317703 0.760928 0.338962
H20   H     H_    0.756903 0.544348 0.140796 0.242370
H21   H     H_    0.829797 0.747626 0.116991 0.242379
H22   H     H_    0.768996 0.718827 0.950143 0.222891
H23   H     H_    0.590765 0.122250 0.300410 0.222939
H24   H     H_    0.933424 0.703470 0.985732 0.269454
H25   H     H_    0.297410 0.877773 0.651331 0.117832
H26   H     H_    0.293763 0.103293 0.664156 0.200563
H27   H     H_    0.406300 0.091760 0.811546 0.201846
H28   H     H_    0.555391 0.688271 0.121705 0.190973
H29   H     H_    0.278935 0.942171 0.344048 0.163876
H30   H     H_    0.564121 0.684814 0.870871 0.167658
N1    N     N_R   0.499160 0.499140 0.142800 -0.108060
N2    N     N_R   0.499160 0.499180 0.857150 -0.091568
N3    N     N_2   0.896037 0.169705 0.692667 -0.312796
N4    N     N_2   0.820304 0.558582 0.065132 -0.314389
O1    O     O_R   0.500020 0.316790 0.614690 -0.604181
O2    O     O_3   0.627445 0.886417 0.278825 -0.774816
O3    O     O_3   0.403983 0.859695 0.830020 -0.770768
O4    O     O_3   0.265571 0.375033 0.161892 -0.699630
O5    O     O_3   0.375697 0.193279 0.122433 -0.783539
O6    O     O_3   0.090287 0.548778 0.104051 -0.768528
O7    O     O_3   0.142655 0.354235 0.685746 -0.791876
O8    O     O_R   0.500000 0.316760 0.385350 -0.590046
O9    O     O_R   0.316770 0.500030 0.614670 -0.566326
O10   O     O_R   0.316750 0.499990 0.385330 -0.568711
O11   O     O_R   0.500000 0.683240 0.614650 -0.607040
O12   O     O_R   0.499980 0.683210 0.385310 -0.615913
O13   O     O_R   0.683250 0.500010 0.614670 -0.620590
O14   O     O_R   0.683230 0.499970 0.385330 -0.651873
O15   O     O_3   0.774502 0.297459 0.133545 -0.781965
Zn1   Zn    Zn3+2 0.500010 0.500020 0.653130 0.990087
Zn2   Zn    Zn3+2 0.499990 0.499980 0.346870 1.000524

loop_
_geom_bond_atom_site_label_1
_geom_bond_atom_site_label_2
_ccdc_geom_bond_type
C15   O3    S    
C4    C36   S    
C18   C21   A    
H19   O7    S    
C35   C36   A    
N2    Zn1   S    
C32   N4    S    
C26   C27   A    
O10   Zn2   S    
C18   C24   S    
C26   H29   S    
C36   C37   A    
H14   O2    S    
C17   H26   S    
C5    C6    A    
H17   O5    S    
C2    N4    S    
C22   H3    S    
C16   O12   A    
H18   O6    S    
C19   H28   S    
C34   C35   A    
O8    Zn2   S    
C38   H7    S    
C29   O6    S    
C19   C20   A    
C8    C9    A    
C23   C33   A    
C9    C10   A    
C18   N1    A    
C31   N3    S    
O11   Zn1   S    
C13   C14   A    
C20   N2    A    
H15   O3    S    
C31   H11   S    
N1    Zn2   S    
C6    N3    S    
C4    O9    A    
C3    O15   S    
C1    C9    S    
C24   O4    S    
C23   C37   A    
C11   O2    S    
C16   O11   A    
C23   H6    S    
C12   C26   A    
O1    Zn1   S    
C29   C30   A    
C2    C38   A    
C22   H2    S    
C25   O13   A    
C33   C34   A    
H9    N3    S    
H16   O4    S    
C31   H10   S    
C7    C34   S    
C22   C24   S    
C30   H5    S    
C19   N1    A    
C10   H23   S    
O12   Zn2   S    
C32   H22   S    
H8    O15   S    
O13   Zn1   S    
C15   C17   S    
C28   C29   A    
C8    C14   A    
C12   C30   A    
C20   H30   S    
C31   H13   S    
C3    C5    A    
O14   Zn2   S    
C6    C7    A    
C17   H27   S    
C8    C17   S    
C21   N2    A    
C1    O1    A    
C12   H1    S    
C2    C3    A    
C32   H24   S    
C11   C13   A    
C27   H4    S    
H20   N4    S    
C28   C37   S    
C35   O7    S    
C25   O14   A    
C7    C38   A    
C5    H12   S    
O9    Zn1   S    
C10   C11   A    
C24   O5    S    
C4    O10   A    
C13   C16   S    
C27   C28   A    
C1    O8    A    
C15   H25   S    
C14   C15   S    
C32   H21   S    
C21   C22   S    
C25   C33   S    
