data_mof_unit_32688.cif
_audit_creation_date              2012-12-10T18:09:50-0500
_audit_creation_method            fapswitch 2.2
_symmetry_space_group_name_H-M    P1
_symmetry_Int_Tables_number       1
_space_group_crystal_system       triclinic
_cell_length_a                    10.619282
_cell_length_b                    12.577133
_cell_length_c                    13.098043
_cell_angle_alpha                 82.298633
_cell_angle_beta                  90.841224
_cell_angle_gamma                 102.480745
_cell_volume                      1692.4453465

loop_
_atom_site_label
_atom_site_type_symbol
_atom_type_description
_atom_site_fract_x
_atom_site_fract_y
_atom_site_fract_z
_atom_type_partial_charge
C1    C     C_R   0.475770 0.439020 0.691041 0.874512
C2    C     C_R   0.440666 0.447796 0.972059 -0.008810
C3    C     C_R   0.421031 0.473269 0.866408 0.093696
C4    C     C_R   0.741694 0.499030 0.503598 0.865172
C5    C     C_R   0.453121 0.532349 0.034507 0.106073
C6    C     C_R   0.419068 0.633130 0.996513 0.180706
C7    C     C_R   0.377500 0.649763 0.895389 -0.268906
C8    C     C_R   0.379236 0.571062 0.830621 -0.173248
C9    C     C_R   0.502574 0.519964 0.133024 -0.266710
C10   C     C_R   0.463914 0.695816 0.163053 -0.203693
C11   C     C_R   0.445660 0.400365 0.800092 -0.180460
C12   C     C_3   0.120543 0.495113 0.506286 0.050543
C13   C     C_R   0.299230 0.082520 0.362225 0.384282
C14   C     C_R   0.653014 0.797764 0.630058 -0.047018
C15   C     C_R   0.674136 0.897068 0.668702 -0.265952
C16   C     C_R   0.512613 0.561114 0.308415 0.866260
C17   C     C_R   0.607668 0.977728 0.628508 0.218422
C18   C     C_R   0.527290 0.960262 0.540556 0.015983
C19   C     C_R   0.503718 0.854049 0.509004 0.202568
C20   C     C_R   0.466040 0.039925 0.484144 -0.070274
C21   C     C_R   0.367271 0.006867 0.412743 0.095806
C22   C     C_R   0.342265 0.899969 0.388625 -0.253349
C23   C     C_3   0.088139 0.568488 0.409051 -0.529276
C24   C     C_R   0.413980 0.826940 0.432386 -0.232987
C25   C     C_R   0.503072 0.152438 0.490856 -0.083879
C26   C     C_R   0.332593 0.190906 0.383135 -0.161595
C27   C     C_R   0.257806 0.497913 0.503282 0.853253
C28   C     C_3   0.897406 0.378884 0.498960 -0.378424
C29   C     C_3   0.040033 0.375071 0.507549 0.387535
C30   C     C_3   0.946334 0.575818 0.413527 -0.502825
C31   C     C_3   0.938918 0.534155 0.609299 0.362413
C32   C     C_3   0.878220 0.497107 0.507069 0.035886
C33   C     C_3   0.390802 0.067246 0.932587 0.076667
C34   C     C_3   0.085699 0.541935 0.603705 -0.375357
C35   C     C_3   0.249243 0.057834 0.900406 -0.380824
C36   C     C_3   0.207906 0.966717 0.832959 -0.972017
C37   C     C_3   0.198717 0.111638 0.205060 0.101118
C38   C     C_3   0.085207 0.169294 0.195205 -0.367358
C39   C     C_3   0.092570 0.246398 0.093961 -0.935223
C40   C     C_3   0.610928 0.069263 0.692755 -0.966028
C41   C     C_3   0.088637 0.208388 0.586457 0.112261
C42   C     C_3   0.965920 0.122532 0.571040 -0.407058
C43   C     C_3   0.997608 0.013139 0.555081 -0.926899
C44   C     C_3   0.807472 0.495762 0.759111 0.072307
C45   C     C_R   0.425737 0.714764 0.060977 -0.201237
C46   C     C_3   0.887850 0.557069 0.839684 -0.380192
C47   C     C_3   0.801457 0.593603 0.914123 -0.928369
C48   C     C_R   0.500165 0.596883 0.199246 -0.060115
C49   C     C_R   0.451895 0.292322 0.840302 -0.351745
C50   C     C_R   0.440330 0.257969 0.947365 0.576791
C51   C     C_R   0.444392 0.338301 0.011794 -0.283073
H1    H     H_    0.861403 0.353666 0.423562 0.128975
H2    H     H_    0.443366 0.311722 0.093627 0.148929
H3    H     H_    0.840204 0.318319 0.560073 0.215590
H4    H     H_    0.344775 0.586687 0.753148 0.170602
H5    H     H_    0.278978 0.250965 0.350794 0.142229
H6    H     H_    0.271288 0.873586 0.331760 0.190471
H7    H     H_    0.588081 0.187770 0.529898 0.165370
H8    H     H_    0.701042 0.734325 0.664018 0.143299
H9    H     H_    0.737851 0.908797 0.733558 0.162203
H10   H     H_    0.396733 0.748963 0.405032 0.210348
H11   H     H_    0.066370 0.342033 0.437521 0.044116
H12   H     H_    0.136585 0.629614 0.600692 0.136345
H13   H     H_    0.898767 0.554055 0.340522 0.191394
H14   H     H_    0.106777 0.533447 0.338473 0.180665
H15   H     H_    0.924773 0.618614 0.615709 0.053943
H16   H     H_    0.118944 0.497127 0.674579 0.206504
H17   H     H_    0.397806 0.988277 0.979148 0.162733
H18   H     H_    0.456407 0.075156 0.866171 0.139907
H19   H     H_    0.186219 0.039083 0.970134 0.217453
H20   H     H_    0.234532 0.136000 0.856762 0.224893
H21   H     H_    0.266709 0.985485 0.760704 0.267200
H22   H     H_    0.104859 0.960115 0.812727 0.265895
H23   H     H_    0.940129 0.661903 0.420142 0.203622
H24   H     H_    0.219462 0.886613 0.874825 0.260614
H25   H     H_    0.189503 0.055676 0.145492 0.168287
H26   H     H_    0.291502 0.172440 0.187848 0.144271
H27   H     H_    0.993386 0.106486 0.198693 0.234285
H28   H     H_    0.084620 0.217484 0.260261 0.210331
H29   H     H_    0.180210 0.313467 0.091626 0.268879
H30   H     H_    0.006573 0.283660 0.087439 0.266405
H31   H     H_    0.095017 0.200598 0.027424 0.265604
H32   H     H_    0.691353 0.139843 0.667462 0.239586
H33   H     H_    0.517073 0.094550 0.690525 0.238253
H34   H     H_    0.149829 0.652813 0.403482 0.205947
H35   H     H_    0.627704 0.041476 0.774974 0.241131
H36   H     H_    0.137043 0.178150 0.656813 0.170843
H37   H     H_    0.158229 0.216971 0.522037 0.150311
H38   H     H_    0.902351 0.109742 0.640087 0.242956
H39   H     H_    0.913449 0.151723 0.502644 0.213533
H40   H     H_    0.061104 0.023985 0.486289 0.293570
H41   H     H_    0.907397 0.953017 0.542685 0.272878
H42   H     H_    0.046524 0.979782 0.623663 0.257393
H43   H     H_    0.738333 0.423937 0.799694 0.175932
H44   H     H_    0.748626 0.548721 0.715120 0.140916
H45   H     H_    0.460670 0.756177 0.214078 0.154197
H46   H     H_    0.944702 0.502326 0.883843 0.242295
H47   H     H_    0.956117 0.630603 0.800837 0.207546
H48   H     H_    0.743479 0.648381 0.871539 0.264591
H49   H     H_    0.861937 0.639217 0.970754 0.264395
H50   H     H_    0.735370 0.521013 0.956611 0.270796
H51   H     H_    0.346831 0.724608 0.865595 0.147342
H52   H     H_    0.397713 0.791293 0.033436 0.127915
H53   H     H_    0.541410 0.448982 0.160776 0.157024
H54   H     H_    0.466638 0.237043 0.787655 0.167815
N1    N     N_R   0.433240 0.222190 0.444680 -0.123660
N2    N     N_R   0.566070 0.776970 0.554790 -0.125534
O1    O     O_R   0.468120 0.366740 0.627160 -0.604592
O2    O     O_3   0.193326 0.046316 0.302425 -0.669938
O3    O     O_3   0.059893 0.310044 0.601854 -0.621233
O4    O     O_3   0.886707 0.455220 0.694738 -0.625109
O5    O     O_R   0.510770 0.544830 0.662520 -0.631731
O6    O     O_R   0.663880 0.410950 0.482330 -0.620941
O7    O     O_R   0.706530 0.589040 0.517700 -0.639850
O8    O     O_R   0.489230 0.455170 0.337480 -0.609296
O9    O     O_R   0.531880 0.633260 0.372840 -0.627798
O10   O     O_R   0.293470 0.410960 0.482300 -0.631817
O11   O     O_R   0.336120 0.589050 0.517670 -0.646461
O12   O     O_3   0.433541 0.150782 0.995546 -0.667688
Zn1   Zn    Zn3+2 0.471520 0.381090 0.476390 0.924394
Zn2   Zn    Zn3+2 0.528480 0.618910 0.523610 0.913377

loop_
_geom_bond_atom_site_label_1
_geom_bond_atom_site_label_2
_ccdc_geom_bond_type
C31   H15   S    
C24   H10   S    
C47   H50   S    
C6    C45   A    
C30   H13   S    
C12   C29   S    
C15   H9    S    
O1    Zn1   S    
C35   C36   S    
C1    C11   S    
C16   C48   S    
C22   H6    S    
C7    C8    A    
C14   H8    S    
C12   C23   S    
C4    O7    A    
C28   C29   S    
C1    O5    A    
C38   C39   S    
C30   H23   S    
C38   H28   S    
C47   H48   S    
C18   C19   A    
C41   C42   S    
C40   H35   S    
C49   C50   A    
C40   H33   S    
C13   O2    S    
C45   H52   S    
C33   C35   S    
C46   C47   S    
O7    Zn2   S    
C35   H19   S    
C7    H51   S    
C37   O2    S    
C33   H18   S    
C46   H47   S    
C35   H20   S    
C21   C22   A    
C40   H32   S    
C26   N1    A    
C16   O9    A    
C8    H4    S    
C44   C46   S    
C25   N1    A    
C50   C51   A    
C27   O10   A    
C41   H36   S    
O9    Zn2   S    
C12   C27   S    
C50   O12   S    
C23   C30   S    
C29   O3    S    
C28   C32   S    
C3    C11   A    
C39   H30   S    
C3    C8    A    
C36   H22   S    
O10   Zn1   S    
C28   H3    S    
C49   H54   S    
C38   H27   S    
C20   C25   A    
C37   H26   S    
C43   H40   S    
C47   H49   S    
C42   H39   S    
C17   C40   S    
C5    C9    A    
C37   C38   S    
C11   C49   A    
C36   H24   S    
O6    Zn1   S    
C4    O6    A    
C31   C32   S    
C10   H45   S    
C10   C45   A    
C17   C18   A    
C31   C34   S    
C13   C21   A    
C4    C32   S    
C14   N2    A    
C46   H46   S    
C33   O12   S    
C41   O3    S    
C10   C48   A    
C22   C24   A    
C13   C26   A    
C2    C5    A    
C42   C43   S    
N2    Zn2   S    
C12   C34   S    
C16   O8    A    
C27   O11   A    
C15   C17   A    
C41   H37   S    
C29   H11   S    
N1    Zn1   S    
C37   H25   S    
C39   H31   S    
C26   H5    S    
C34   H16   S    
C6    C7    A    
C43   H41   S    
C42   H38   S    
C39   H29   S    
C23   H14   S    
C2    C3    A    
C23   H34   S    
O5    Zn2   S    
C44   H44   S    
C30   C32   S    
C28   H1    S    
C5    C6    A    
C9    H53   S    
C34   H12   S    
C43   H42   S    
C19   C24   A    
C18   C20   A    
C44   H43   S    
C2    C51   A    
C1    O1    A    
C44   O4    S    
C20   C21   A    
C9    C48   A    
O8    Zn1   S    
C25   H7    S    
C31   O4    S    
C14   C15   A    
C51   H2    S    
O11   Zn2   S    
C36   H21   S    
C33   H17   S    
C19   N2    A    
