data_mof_unit_39200.cif
_audit_creation_date              2012-12-10T20:38:16-0500
_audit_creation_method            fapswitch 2.2
_symmetry_space_group_name_H-M    P1
_symmetry_Int_Tables_number       1
_space_group_crystal_system       triclinic
_cell_length_a                    9.8532
_cell_length_b                    10.685449
_cell_length_c                    16.610739
_cell_angle_alpha                 90.209553
_cell_angle_beta                  84.859843
_cell_angle_gamma                 90.033435
_cell_volume                      1741.8312598

loop_
_atom_site_label
_atom_site_type_symbol
_atom_type_description
_atom_site_fract_x
_atom_site_fract_y
_atom_site_fract_z
_atom_type_partial_charge
C1    C     C_R   0.499628 0.740054 0.502089 0.882208
C2    C     C_R   0.347503 0.558188 0.782552 -0.195248
C3    C     C_R   0.447442 0.692511 0.164326 -0.031165
C4    C     C_R   0.433067 0.636757 0.240533 -0.237224
C5    C     C_R   0.649721 0.530167 0.213209 -0.165392
C6    C     C_R   0.663698 0.582039 0.136445 -0.187239
C7    C     C_R   0.561035 0.658931 0.110551 -0.022512
C8    C     C_2   0.455814 0.611584 0.989854 -0.236097
C9    C     C_2   0.557312 0.671240 0.022882 0.476035
C10   C     C_R   0.531833 0.553359 0.264192 -0.052657
C11   C     C_R   0.375203 0.936023 0.508677 0.179415
C12   C     C_R   0.480860 0.500883 0.653805 0.866363
C13   C     C_R   0.496802 0.871540 0.513681 -0.181122
C14   C     C_R   0.613900 0.935489 0.533119 -0.196900
C15   C     C_R   0.613866 0.064935 0.533166 -0.215120
C16   C     C_R   0.496759 0.128531 0.513724 -0.113313
C17   C     C_R   0.375246 0.063739 0.508619 0.075090
C18   C     C_3   0.275093 0.070852 0.446232 -0.536808
C19   C     C_3   0.275616 0.928789 0.445947 0.245683
C20   C     C_R   0.923863 0.598530 0.532302 0.217376
C21   C     C_R   0.933834 0.409052 0.460995 -0.133781
C22   C     C_R   0.077925 0.409234 0.460823 -0.135119
C23   C     C_R   0.499631 0.259938 0.502061 0.895957
C24   C     C_R   0.066416 0.598169 0.532615 0.303510
C25   C     C_3   0.058628 0.641537 0.618230 -0.497237
C26   C     C_3   0.904712 0.643225 0.617619 -0.504723
C27   C     C_R   0.519222 0.507231 0.346720 0.857163
C28   C     C_R   0.469612 0.516093 0.741344 -0.037752
C29   C     C_R   0.585498 0.499915 0.783314 -0.224097
C30   C     C_R   0.581318 0.531414 0.864431 -0.076188
C31   C     C_R   0.461487 0.580355 0.904249 0.217624
C32   C     C_R   0.343325 0.589407 0.864052 -0.166291
H1    H     H_    0.679954 0.464773 0.753239 0.151023
H2    H     H_    0.750296 0.555180 0.095157 0.151401
H3    H     H_    0.707124 0.886512 0.543073 0.175311
H4    H     H_    0.707060 0.114159 0.543201 0.174279
H5    H     H_    0.176630 0.112591 0.470933 0.224113
H6    H     H_    0.319593 0.111984 0.388358 0.170150
H7    H     H_    0.317626 0.884394 0.388190 0.103421
H8    H     H_    0.883978 0.334379 0.430826 0.151563
H9    H     H_    0.136883 0.335079 0.430222 0.151475
H10   H     H_    0.094627 0.569232 0.659127 0.197029
H11   H     H_    0.346350 0.660937 0.282527 0.185833
H12   H     H_    0.103721 0.736094 0.624296 0.241459
H13   H     H_    0.852703 0.573291 0.659011 0.215549
H14   H     H_    0.860791 0.739014 0.622415 0.210912
H15   H     H_    0.728853 0.469249 0.231926 0.150554
H16   H     H_    0.249178 0.623477 0.895227 0.145790
H17   H     H_    0.256894 0.571098 0.751462 0.150841
H18   H     H_    0.369854 0.574458 0.028128 0.105577
H19   H     H_    0.671427 0.516939 0.896084 0.158305
N1    N     N_R   0.857140 0.500860 0.500530 -0.111248
N2    N     N_R   0.142780 0.500820 0.500530 -0.117429
O1    O     O_R   0.385310 0.683210 0.499990 -0.596694
O2    O     O_R   0.614650 0.683240 0.500000 -0.615558
O3    O     O_R   0.371780 0.500000 0.615800 -0.619695
O4    O     O_R   0.601120 0.500040 0.615800 -0.618547
O5    O     O_R   0.385350 0.316760 0.500000 -0.612604
O6    O     O_R   0.614690 0.316790 0.500010 -0.627973
O7    O     O_R   0.398880 0.499960 0.384200 -0.615548
O8    O     O_R   0.628220 0.500000 0.384200 -0.608665
Zn1   Zn    Zn3+2 0.346870 0.499980 0.499990 0.960502
Zn2   Zn    Zn3+2 0.653130 0.500020 0.500010 0.949104
O9    O     O_3   0.151136 0.878596 0.478074 -0.755272
H20   H     H_    0.091916 0.876678 0.432836 0.339352
O10   O     O_3   0.664435 0.723584 0.975034 -0.757884
H21   H     H_    0.728174 0.761077 0.011300 0.338397
C33   C     C_2   0.342983 0.783621 0.141817 0.868948
O11   O     O_2   0.231678 0.788765 0.180765 -0.641868
O12   O     O_R   0.372431 0.865580 0.077130 -0.790792
H22   H     H_    0.293319 0.922949 0.068126 0.348449

loop_
_geom_bond_atom_site_label_1
_geom_bond_atom_site_label_2
_ccdc_geom_bond_type
C10   C27   S    
O5    Zn1   S    
C23   O5    A    
C30   H19   S    
C7    C9    S    
C29   C30   A    
C4    H11   S    
C29   H1    S    
C16   C23   S    
C5    H15   S    
N2    Zn1   S    
O6    Zn2   S    
C3    C33   S    
C19   O9    S    
C1    O1    A    
C6    H2    S    
O9    H20   S    
C17   C18   S    
C1    O2    A    
C5    C10   A    
C20   N1    A    
C12   O3    A    
C13   C14   A    
C9    O10   S    
C23   O6    A    
C32   H16   S    
C30   C31   A    
C11   C19   S    
C6    C7    A    
C21   H8    S    
C19   H7    S    
C12   C28   S    
C12   O4    A    
C25   H12   S    
O7    Zn1   S    
C28   C29   A    
C2    H17   S    
C18   H5    S    
C25   H10   S    
O4    Zn2   S    
C22   N2    A    
C3    C7    A    
C27   O7    A    
C18   H6    S    
C5    C6    A    
O3    Zn1   S    
C22   H9    S    
C1    C13   S    
C26   H14   S    
C4    C10   A    
C15   C16   A    
C8    H18   S    
C15   H4    S    
C11   C13   A    
O12   H22   S    
O10   H21   S    
C24   C25   S    
C24   N2    A    
C2    C32   A    
C18   C19   S    
C14   H3    S    
O8    Zn2   S    
C33   O12   S    
C20   C24   A    
C14   C15   A    
C11   C17   A    
C2    C28   A    
O1    Zn1   S    
C26   H13   S    
C25   C26   S    
C21   C22   A    
C8    C31   S    
C33   O11   D    
C21   N1    A    
C3    C4    A    
C31   C32   A    
C16   C17   A    
O2    Zn2   S    
C8    C9    D    
C20   C26   S    
N1    Zn2   S    
C27   O8    A    
