data_mof_unit_61842.cif
_audit_creation_date              2012-12-10T18:13:13-0500
_audit_creation_method            fapswitch 2.2
_symmetry_space_group_name_H-M    P1
_symmetry_Int_Tables_number       1
_space_group_crystal_system       triclinic
_cell_length_a                    18.33243
_cell_length_b                    18.325413
_cell_length_c                    25.978303
_cell_angle_alpha                 89.999898
_cell_angle_beta                  90.013536
_cell_angle_gamma                 90.000089
_cell_volume                      8727.39379049

loop_
_atom_site_label
_atom_site_type_symbol
_atom_type_description
_atom_site_fract_x
_atom_site_fract_y
_atom_site_fract_z
_atom_type_partial_charge
C1    C     C_R   0.860438 0.140644 0.249501 0.845434
C2    C     C_R   0.825997 0.271122 0.260000 0.406349
C3    C     C_R   0.228130 0.326345 0.258391 0.005058
C4    C     C_R   0.174008 0.271116 0.739984 0.406358
C5    C     C_R   0.174756 0.270930 0.261331 0.405257
C6    C     C_R   0.325215 0.770906 0.238580 0.404957
C7    C     C_R   0.325223 0.770907 0.761439 0.404510
C8    C     C_R   0.674775 0.770908 0.238565 0.404520
C9    C     C_R   0.674777 0.770914 0.761394 0.405032
C10   C     C_R   0.806127 0.198731 0.751839 -0.066864
C11   C     C_R   0.806182 0.198661 0.248149 -0.057280
C12   C     C_R   0.193816 0.198662 0.751851 -0.057269
C13   C     C_R   0.860396 0.140652 0.750450 0.843746
C14   C     C_R   0.193873 0.198731 0.248160 -0.066854
C15   C     C_R   0.306124 0.698730 0.251832 -0.066856
C16   C     C_R   0.306132 0.698741 0.748147 -0.067878
C17   C     C_R   0.693868 0.698741 0.251852 -0.067873
C18   C     C_R   0.693876 0.698730 0.748167 -0.066836
C19   C     C_R   0.734574 0.181353 0.765757 -0.279119
C20   C     C_R   0.734413 0.181105 0.234863 -0.280631
C21   C     C_R   0.265579 0.181113 0.765150 -0.280661
C22   C     C_R   0.265427 0.181352 0.234247 -0.279129
C23   C     C_R   0.234594 0.681373 0.265817 -0.279369
C24   C     C_R   0.139604 0.140652 0.249550 0.843748
C25   C     C_R   0.234605 0.681400 0.734121 -0.278045
C26   C     C_R   0.765396 0.681399 0.265875 -0.278049
C27   C     C_R   0.765413 0.681367 0.734202 -0.279381
C28   C     C_R   0.181128 0.734565 0.265126 -0.225000
C29   C     C_R   0.181139 0.734589 0.734827 -0.225643
C30   C     C_R   0.818862 0.734588 0.265169 -0.225641
C31   C     C_R   0.818879 0.734560 0.734894 -0.224965
C32   C     C_R   0.681109 0.234546 0.765064 -0.224704
C33   C     C_R   0.681125 0.234473 0.234911 -0.234538
C34   C     C_R   0.318867 0.234481 0.765101 -0.234565
C35   C     C_R   0.139562 0.140645 0.750500 0.845437
C36   C     C_R   0.318892 0.234545 0.234940 -0.224697
C37   C     C_R   0.198867 0.806468 0.252205 -0.054407
C38   C     C_R   0.198876 0.806477 0.747796 -0.054189
C39   C     C_R   0.801124 0.806477 0.252205 -0.054183
C40   C     C_R   0.801133 0.806469 0.747792 -0.054393
C41   C     C_R   0.698867 0.306467 0.752209 -0.054387
C42   C     C_R   0.698805 0.306256 0.248126 -0.029854
C43   C     C_R   0.301194 0.306256 0.751873 -0.029832
C44   C     C_R   0.301133 0.306468 0.247790 -0.054383
C45   C     C_R   0.066216 0.999967 0.026713 -0.185148
C46   C     C_R   0.360395 0.640656 0.749544 0.847829
C47   C     C_R   0.066222 0.999967 0.973311 -0.185176
C48   C     C_R   0.933778 0.999967 0.026689 -0.185175
C49   C     C_R   0.933784 0.999967 0.973287 -0.185144
C50   C     C_R   0.566216 0.499963 0.526713 -0.185577
C51   C     C_R   0.566222 0.499963 0.473311 -0.186785
C52   C     C_R   0.433778 0.499963 0.526689 -0.186787
C53   C     C_R   0.433784 0.499964 0.473287 -0.185577
C54   C     C_R   0.000006 0.999968 0.946298 0.004436
C55   C     C_R   0.999994 0.999968 0.053702 0.004437
C56   C     C_R   0.500006 0.499965 0.446298 0.005692
C57   C     C_R   0.360394 0.640651 0.250448 0.843497
C58   C     C_R   0.499994 0.499965 0.553702 0.005692
C59   C     C_R   0.140709 0.860566 0.250553 0.809985
C60   C     C_R   0.140715 0.860568 0.749450 0.810051
C61   C     C_R   0.859285 0.860568 0.250551 0.810043
C62   C     C_R   0.859291 0.860565 0.749447 0.809921
C63   C     C_R   0.640708 0.360565 0.750552 0.809255
C64   C     C_R   0.640738 0.360534 0.249503 0.830576
C65   C     C_R   0.359261 0.360534 0.750496 0.830580
C66   C     C_R   0.359292 0.360565 0.249447 0.809234
C67   C     C_R   0.999995 0.999975 0.109821 0.790549
C68   C     C_R   0.639606 0.640651 0.749552 0.843503
C69   C     C_R   0.000005 0.999975 0.890179 0.790553
C70   C     C_R   0.499995 0.499974 0.609821 0.789373
C71   C     C_R   0.500005 0.499974 0.390179 0.789375
C72   C     C_R   1.000000 0.999953 0.389878 0.794485
C73   C     C_R   0.000000 0.999953 0.610122 0.794483
C74   C     C_R   0.500001 0.499953 0.889878 0.796455
C75   C     C_R   0.499999 0.499954 0.110122 0.796454
C76   C     C_R   0.000000 0.063017 0.474052 0.125247
C77   C     C_R   1.000000 0.063017 0.525948 0.125250
C78   C     C_R   0.500000 0.563019 0.974052 0.125970
C79   C     C_R   0.639605 0.640656 0.250456 0.847829
C80   C     C_R   0.499999 0.563019 0.025948 0.125973
C81   C     C_R   1.000000 0.999066 0.445485 -0.076706
C82   C     C_R   1.000000 0.999066 0.554515 -0.076706
C83   C     C_R   0.500001 0.499067 0.945485 -0.077436
C84   C     C_R   0.499999 0.499067 0.054515 -0.077436
C85   C     C_R   0.999999 0.932539 0.472959 -0.221886
C86   C     C_R   1.000000 0.932539 0.527041 -0.221886
C87   C     C_R   0.500001 0.432541 0.972959 -0.220806
C88   C     C_R   0.500000 0.432541 0.027041 -0.220807
C89   C     C_3   0.000001 0.144119 0.529652 -0.464911
C90   C     C_R   0.825242 0.270928 0.738663 0.405231
C91   C     C_3   0.000001 0.144119 0.470348 -0.464895
C92   C     C_3   0.499999 0.644121 0.029652 -0.465556
C93   C     C_3   0.500000 0.644121 0.970348 -0.465542
C94   C     C_R   0.271849 0.826325 0.241520 0.004860
C95   C     C_R   0.271858 0.826327 0.758507 0.005084
C96   C     C_R   0.728141 0.826329 0.241499 0.005076
C97   C     C_R   0.728143 0.826332 0.758447 0.004806
C98   C     C_R   0.771868 0.326343 0.741600 0.005075
C99   C     C_R   0.771484 0.325696 0.259777 -0.018222
C100  C     C_R   0.228522 0.325689 0.740207 -0.018260
H1    H     H_    0.999999 0.880681 0.452969 0.181035
H2    H     H_    0.448725 0.665564 0.953227 0.211883
H3    H     H_    0.551273 0.665565 0.046772 0.211887
H4    H     H_    0.551274 0.665565 0.953245 0.211599
H5    H     H_    0.719459 0.125900 0.775563 0.182362
H6    H     H_    0.719178 0.125531 0.225493 0.182173
H7    H     H_    0.280809 0.125544 0.774531 0.182192
H8    H     H_    0.280543 0.125898 0.224445 0.182351
H9    H     H_    0.219493 0.625937 0.275678 0.182058
H10   H     H_    0.219505 0.625976 0.724221 0.181827
H11   H     H_    0.780497 0.625973 0.275771 0.181824
H12   H     H_    0.999999 0.880681 0.547031 0.181035
H13   H     H_    0.780518 0.625926 0.724359 0.182039
H14   H     H_    0.125496 0.719304 0.274219 0.173320
H15   H     H_    0.125508 0.719334 0.725705 0.173130
H16   H     H_    0.874494 0.719332 0.274287 0.173126
H17   H     H_    0.874516 0.719294 0.725820 0.173301
H18   H     H_    0.625462 0.219271 0.774102 0.173607
H19   H     H_    0.625542 0.219290 0.225589 0.173478
H20   H     H_    0.374445 0.219303 0.774434 0.173497
H21   H     H_    0.374540 0.219269 0.225907 0.173602
H22   H     H_    0.118013 0.999968 0.046778 0.166087
H23   H     H_    0.500001 0.380682 0.952969 0.181385
H24   H     H_    0.118021 0.999968 0.953266 0.166105
H25   H     H_    0.881979 0.999967 0.046734 0.166106
H26   H     H_    0.881987 0.999967 0.953222 0.166090
H27   H     H_    0.618013 0.499964 0.546778 0.165621
H28   H     H_    0.618021 0.499963 0.453266 0.164495
H29   H     H_    0.381979 0.499963 0.546734 0.164493
H30   H     H_    0.381987 0.499964 0.453222 0.165620
H31   H     H_    0.347386 0.910231 0.237852 0.192546
H32   H     H_    0.272378 0.929206 0.269645 0.174186
H33   H     H_    0.347400 0.910225 0.762167 0.192528
H34   H     H_    0.500000 0.380683 0.047031 0.181385
H35   H     H_    0.272323 0.929252 0.730455 0.174052
H36   H     H_    0.652599 0.910226 0.237864 0.192522
H37   H     H_    0.727692 0.929252 0.269553 0.174047
H38   H     H_    0.652599 0.910231 0.761953 0.192489
H39   H     H_    0.727732 0.929224 0.730332 0.174173
H40   H     H_    0.847406 0.410253 0.738156 0.190557
H41   H     H_    0.772245 0.429213 0.769753 0.174235
H42   H     H_    0.810798 0.405574 0.306538 0.187945
H43   H     H_    0.827557 0.418274 0.242370 0.177171
H44   H     H_    0.189257 0.405555 0.693429 0.187919
H45   H     H_    0.948726 0.165563 0.546755 0.211713
H46   H     H_    0.172427 0.418253 0.757579 0.177236
H47   H     H_    0.152587 0.410253 0.261786 0.190527
H48   H     H_    0.227790 0.429218 0.230239 0.174229
H49   H     H_    0.894874 0.322176 0.696113 0.331979
H50   H     H_    0.905337 0.338014 0.279512 0.330198
H51   H     H_    0.094691 0.337990 0.720395 0.330151
H52   H     H_    0.105119 0.322205 0.303863 0.331993
H53   H     H_    0.394752 0.822027 0.195887 0.332739
H54   H     H_    0.394760 0.822022 0.804165 0.332880
H55   H     H_    0.605235 0.822040 0.195851 0.332893
H56   H     H_    0.948726 0.165562 0.453228 0.212468
H57   H     H_    0.605215 0.822124 0.804023 0.332804
H58   H     H_    0.051275 0.165562 0.546772 0.212465
H59   H     H_    0.051276 0.165562 0.453245 0.211716
H60   H     H_    0.448724 0.665564 0.046754 0.211587
N1    N     N_3   0.291067 0.902451 0.236618 -0.429078
N2    N     N_3   0.291080 0.902448 0.763450 -0.429036
N3    N     N_3   0.708917 0.902450 0.236563 -0.429047
N4    N     N_3   0.708915 0.902460 0.763319 -0.429118
N5    N     N_3   0.791094 0.402476 0.736765 -0.429539
N6    N     N_3   0.789155 0.400819 0.269453 -0.442054
N7    N     N_3   0.210857 0.400806 0.730521 -0.442072
N8    N     N_3   0.208902 0.402479 0.263217 -0.429539
O1    O     O_3   0.000000 0.000010 0.249960 -0.496097
O2    O     O_R   0.414520 0.646190 0.219700 -0.579631
O3    O     O_R   0.585480 0.646190 0.780300 -0.579612
O4    O     O_R   0.585480 0.646190 0.219700 -0.579248
O5    O     O_R   0.085460 0.853840 0.280340 -0.651941
O6    O     O_R   0.085460 0.853840 0.719660 -0.652008
O7    O     O_R   0.914540 0.853840 0.280340 -0.652008
O8    O     O_R   0.914540 0.853840 0.719660 -0.651926
O9    O     O_R   0.585460 0.353840 0.780340 -0.652288
O10   O     O_R   0.585460 0.353840 0.219660 -0.655398
O11   O     O_R   0.414540 0.353840 0.780340 -0.655403
O12   O     O_3   1.000000 0.000010 0.750040 -0.496094
O13   O     O_R   0.414540 0.353840 0.219660 -0.652284
O14   O     O_R   0.853820 0.914550 0.219610 -0.622161
O15   O     O_R   0.853820 0.914550 0.780390 -0.622152
O16   O     O_R   0.146180 0.914550 0.219610 -0.622128
O17   O     O_R   0.146180 0.914550 0.780390 -0.622159
O18   O     O_R   0.353820 0.414550 0.719610 -0.620172
O19   O     O_R   0.353820 0.414550 0.280390 -0.622385
O20   O     O_R   0.646180 0.414550 0.719610 -0.622377
O21   O     O_R   0.646180 0.414550 0.280390 -0.620167
O22   O     O_R   0.146170 0.085440 0.219600 -0.659140
O23   O     O_3   0.500000 0.500010 0.749960 -0.496003
O24   O     O_R   0.146170 0.085440 0.780400 -0.660314
O25   O     O_R   0.853830 0.085440 0.219600 -0.660309
O26   O     O_R   0.853830 0.085440 0.780400 -0.659140
O27   O     O_R   0.646170 0.585440 0.719600 -0.659146
O28   O     O_R   0.646170 0.585440 0.280400 -0.657913
O29   O     O_R   0.353830 0.585440 0.719600 -0.657914
O30   O     O_R   0.353830 0.585440 0.280400 -0.659146
O31   O     O_R   0.939270 0.999980 0.134160 -0.644596
O32   O     O_R   0.939270 0.999980 0.865840 -0.644667
O33   O     O_R   0.060730 0.999980 0.134160 -0.644671
O34   O     O_3   0.500000 0.500010 0.250040 -0.496001
O35   O     O_R   0.060730 0.999980 0.865840 -0.644597
O36   O     O_R   0.439270 0.499980 0.634160 -0.647400
O37   O     O_R   0.439270 0.499980 0.365840 -0.644684
O38   O     O_R   0.560730 0.499980 0.634160 -0.644684
O39   O     O_R   0.560730 0.499980 0.365840 -0.647397
O40   O     O_R   0.000000 0.060760 0.365760 -0.645839
O41   O     O_R   1.000000 0.060760 0.634240 -0.645842
O42   O     O_R   0.500000 0.560760 0.865760 -0.645954
O43   O     O_R   0.500000 0.560760 0.134240 -0.645957
O44   O     O_R   1.000000 0.939310 0.365770 -0.648878
O45   O     O_R   0.914520 0.146190 0.280300 -0.576025
O46   O     O_R   0.000000 0.939310 0.634230 -0.648877
O47   O     O_R   0.500000 0.439310 0.865770 -0.648024
O48   O     O_R   0.500000 0.439310 0.134230 -0.648024
O49   O     O_3   0.896211 0.286028 0.724462 -0.734500
O50   O     O_3   0.898702 0.286332 0.269914 -0.733594
O51   O     O_3   0.101306 0.286323 0.730064 -0.733537
O52   O     O_3   0.103787 0.286028 0.275531 -0.734506
O53   O     O_3   0.396154 0.785989 0.224303 -0.732005
O54   O     O_3   0.396161 0.785976 0.775753 -0.732174
O55   O     O_3   0.603837 0.785977 0.224253 -0.732171
O56   O     O_R   0.914520 0.146190 0.719700 -0.578784
O57   O     O_3   0.603832 0.785998 0.775661 -0.732017
O58   O     O_R   0.085480 0.146190 0.280300 -0.578772
O59   O     O_R   0.085480 0.146190 0.719700 -0.576027
O60   O     O_R   0.414520 0.646190 0.780300 -0.579249
Zn1   Zn    Zn3+2 1.000000 0.913260 0.293350 0.951989
Zn2   Zn    Zn3+2 0.413230 0.500000 0.293420 0.973147
Zn3   Zn    Zn3+2 0.586770 0.500000 0.706580 0.973151
Zn4   Zn    Zn3+2 0.586770 0.500000 0.293420 0.974874
Zn5   Zn    Zn3+2 1.000000 0.086780 0.293330 1.021248
Zn6   Zn    Zn3+2 1.000000 0.086780 0.706670 1.021234
Zn7   Zn    Zn3+2 0.500000 0.586780 0.793330 1.020818
Zn8   Zn    Zn3+2 0.500000 0.586780 0.206670 1.020802
Zn9   Zn    Zn3+2 0.000000 0.913260 0.706650 0.951989
Zn10  Zn    Zn3+2 0.500000 0.413260 0.793350 0.954754
Zn11  Zn    Zn3+2 0.500000 0.413260 0.206650 0.954753
Zn12  Zn    Zn3+2 0.913230 0.000000 0.206580 0.974521
Zn13  Zn    Zn3+2 0.913230 0.000000 0.793420 0.974450
Zn14  Zn    Zn3+2 0.086770 0.000000 0.206580 0.974452
Zn15  Zn    Zn3+2 0.086770 0.000000 0.793420 0.974522
Zn16  Zn    Zn3+2 0.413230 0.500000 0.706580 0.974865

loop_
_geom_bond_atom_site_label_1
_geom_bond_atom_site_label_2
_ccdc_geom_bond_type
C26   H11   S    
C48   C55   A    
C83   C87   A    
H46   N7    S    
O29   Zn16  S    
C80   C92   S    
C60   O17   A    
O7    Zn1   S    
O26   Zn13  S    
C57   O30   A    
C48   H25   S    
C41   C63   S    
C60   O6    A    
C44   C66   S    
C1    C11   S    
O1    Zn14  S    
C80   C84   A    
C19   H5    S    
H33   N2    S    
C64   O21   A    
O25   Zn12  S    
O14   Zn12  S    
C89   H58   S    
C72   O40   A    
O3    Zn7   S    
O12   Zn13  S    
C31   C40   A    
C89   H45   S    
C49   H26   S    
C87   H23   S    
C77   C89   S    
C61   O14   A    
C35   O24   A    
O58   Zn5   S    
O1    Zn5   S    
C74   O42   A    
C100  N7    S    
C52   H29   S    
C17   C26   A    
C28   C37   A    
C73   O41   A    
H39   N4    S    
O11   Zn10  S    
C67   O31   A    
C74   O47   A    
C68   O3    A    
C24   O58   A    
C75   C84   S    
O12   Zn15  S    
C5    O52   S    
O35   Zn15  S    
H31   N1    S    
C78   C93   S    
C18   C68   S    
C49   C54   A    
C75   O48   A    
C17   C79   S    
C38   C95   A    
C40   C62   S    
O43   Zn8   S    
C51   C56   A    
C45   C47   A    
C14   C24   S    
O56   Zn6   S    
O41   Zn6   S    
C31   H17   S    
C90   O49   S    
C77   C82   A    
C92   H3    S    
C6    C15   A    
H32   N1    S    
O19   Zn2   S    
H55   O55   S    
C78   C83   A    
C35   O59   A    
O28   Zn4   S    
O1    Zn1   S    
O60   Zn7   S    
O1    Zn12  S    
C8    C96   A    
C29   C38   A    
C37   C94   A    
C69   O32   A    
C9    C97   A    
C32   C41   A    
C4    C12   A    
O20   Zn3   S    
H38   N4    S    
C74   C83   S    
C91   H59   S    
C72   C81   S    
H57   O57   S    
O34   Zn2   S    
C6    O53   S    
C97   N4    S    
O23   Zn10  S    
C15   C23   A    
O8    Zn9   S    
C29   H15   S    
O12   Zn6   S    
O24   Zn15  S    
C66   O19   A    
O31   Zn12  S    
C25   C29   A    
C15   C57   S    
O37   Zn2   S    
O45   Zn5   S    
C19   C32   A    
C93   H4    S    
O10   Zn11  S    
O36   Zn16  S    
C3    N8    S    
C20   H6    S    
O4    Zn8   S    
C34   H20   S    
C3    C44   A    
C11   C20   A    
C18   C27   A    
H44   N7    S    
C27   C31   A    
C50   C58   A    
O21   Zn4   S    
C43   C100  A    
O17   Zn15  S    
C95   N2    S    
C16   C46   S    
C40   C97   A    
H37   N3    S    
C7    O54   S    
C69   O35   A    
C58   C70   S    
C46   O29   A    
C30   H16   S    
C21   C34   A    
C65   O11   A    
C6    C94   A    
C85   C86   A    
O2    Zn8   S    
C12   C21   A    
C79   O28   A    
C28   H14   S    
C61   O7    A    
C79   O4    A    
H54   O54   S    
C86   H12   S    
H43   N6    S    
H53   O53   S    
C67   O33   A    
C62   O15   A    
H42   N6    S    
C64   O10   A    
O39   Zn4   S    
C23   H9    S    
C10   C19   A    
C43   C65   S    
C4    O51   S    
C62   O8    A    
O46   Zn9   S    
C50   C51   A    
H50   O50   S    
C3    C5    A    
O27   Zn3   S    
C1    O25   A    
O47   Zn10  S    
C21   H7    S    
O42   Zn7   S    
C76   C77   A    
C12   C35   S    
C94   N1    S    
C10   C90   A    
C5    C14   A    
C37   C59   S    
C8    O55   S    
C52   C58   A    
C25   H10   S    
C47   C54   A    
C38   C60   S    
C20   C33   A    
C27   H13   S    
C70   O36   A    
C7    C16   A    
C66   O13   A    
C2    C99   A    
O22   Zn14  S    
C13   O26   A    
C4    C100  A    
C1    O45   A    
C14   C22   A    
H48   N8    S    
H35   N2    S    
H51   O51   S    
C73   O46   A    
C36   C44   A    
C23   C28   A    
C51   H28   S    
C13   O56   A    
C42   C64   S    
C73   C82   S    
O34   Zn11  S    
C39   C61   S    
C85   H1    S    
O23   Zn16  S    
O34   Zn4   S    
C57   O2    A    
H49   O49   S    
C53   C56   A    
C16   C25   A    
O59   Zn6   S    
C33   C42   A    
C65   O18   A    
C48   C49   A    
O16   Zn14  S    
C63   O20   A    
O38   Zn3   S    
O48   Zn11  S    
C34   C43   A    
C84   C88   A    
C32   H18   S    
C59   O5    A    
C10   C13   S    
C93   H2    S    
C55   C67   S    
C7    C95   A    
O30   Zn2   S    
O40   Zn5   S    
C33   H19   S    
C53   H30   S    
C45   H22   S    
C70   O38   A    
C22   C36   A    
H41   N5    S    
C76   C81   A    
C63   O9    A    
C96   N3    S    
C92   H60   S    
O6    Zn9   S    
C99   N6    S    
C36   H21   S    
C88   H34   S    
C91   H56   S    
C82   C86   A    
C42   C99   A    
C8    C17   A    
O18   Zn16  S    
O44   Zn1   S    
O13   Zn11  S    
C47   H24   S    
C72   O44   A    
C54   C69   S    
O12   Zn9   S    
C22   H8    S    
H52   O52   S    
C71   O39   A    
C92   C93   S    
C2    C11   A    
C30   C39   A    
C68   O27   A    
C78   C80   A    
C59   O16   A    
H40   N5    S    
O5    Zn1   S    
C39   C96   A    
C98   N5    S    
H47   N8    S    
O33   Zn14  S    
C76   C91   S    
O34   Zn8   S    
C9    C18   A    
C71   O37   A    
C45   C55   A    
C87   C88   A    
O23   Zn3   S    
C89   C91   S    
C2    O50   S    
C46   O60   A    
C41   C98   A    
C75   O43   A    
C24   O22   A    
C50   H27   S    
O15   Zn13  S    
C9    O57   S    
O23   Zn7   S    
O32   Zn13  S    
C90   C98   A    
C81   C85   A    
H36   N3    S    
C56   C71   S    
C52   C53   A    
O9    Zn10  S    
C26   C30   A    
