data_mof_unit_31869.cif
_audit_creation_date              2012-12-10T21:00:41-0500
_audit_creation_method            fapswitch 2.2
_symmetry_space_group_name_H-M    P1
_symmetry_Int_Tables_number       1
_space_group_crystal_system       triclinic
_cell_length_a                    18.107241
_cell_length_b                    18.103848
_cell_length_c                    18.416956
_cell_angle_alpha                 119.658603
_cell_angle_beta                  90.277302
_cell_angle_gamma                 119.854615
_cell_volume                      4289.98831126

loop_
_atom_site_label
_atom_site_type_symbol
_atom_type_description
_atom_site_fract_x
_atom_site_fract_y
_atom_site_fract_z
_atom_type_partial_charge
C1    C     C_R   0.110902 0.220193 0.610196 0.519528
C2    C     C_3   0.450371 0.897109 0.947160 0.063394
C3    C     C_3   0.187924 0.902720 0.863980 -0.466095
C4    C     C_3   0.886450 0.121228 0.094717 -0.265663
C5    C     C_3   0.812086 0.097326 0.136068 -0.466090
C6    C     C_2   0.218111 0.937355 0.070037 0.228347
C7    C     C_2   0.781874 0.062617 0.929970 0.228418
C8    C     C_2   0.164753 0.774019 0.101831 0.240308
C9    C     C_2   0.835264 0.225946 0.898144 0.240467
C10   C     C_3   0.973486 0.651138 0.765176 -0.275472
C11   C     C_3   0.884651 0.640287 0.769172 -0.438260
C12   C     C_3   0.026521 0.348884 0.234828 -0.275487
C13   C     C_3   0.445767 0.031996 0.024812 -0.121611
C14   C     C_3   0.115337 0.359688 0.230816 -0.438197
C15   C     C_3   0.889725 0.577036 0.996971 -0.258743
C16   C     C_3   0.791361 0.483735 0.942428 -0.394722
C17   C     C_3   0.110243 0.422922 0.003000 -0.258749
C18   C     C_3   0.208606 0.516218 0.057556 -0.394693
C19   C     C_3   0.597920 0.081828 0.907519 -0.250501
C20   C     C_3   0.567278 0.138343 0.890653 -0.418618
C21   C     C_3   0.402075 0.918175 0.092473 -0.250570
C22   C     C_3   0.432729 0.861680 0.109361 -0.418574
C23   C     C_2   0.480313 0.586321 0.415195 0.220079
C24   C     C_3   0.554235 0.968006 0.975182 -0.121562
C25   C     C_2   0.519679 0.413667 0.584797 0.220014
C26   C     C_3   0.412990 0.442083 0.449873 -0.140271
C27   C     C_3   0.587008 0.557914 0.550125 -0.140209
C28   C     C_3   0.473161 0.401649 0.439246 -0.145083
C29   C     C_3   0.526837 0.598348 0.560751 -0.145010
C30   C     C_3   0.550513 0.500036 0.448802 0.059945
C31   C     C_3   0.449486 0.499961 0.551196 0.059951
C32   C     C_3   0.491351 0.540027 0.459294 0.016522
C33   C     C_R   0.889096 0.779807 0.389805 0.519541
C34   C     C_3   0.508647 0.459969 0.540703 0.016525
C35   C     C_R   0.162911 0.177886 0.826965 -0.140539
C36   C     C_R   0.837110 0.822136 0.173033 -0.140552
C37   C     C_R   0.392859 0.781063 0.887892 0.492749
C38   C     C_R   0.607141 0.218938 0.112106 0.492744
C39   C     C_R   0.139673 0.138638 0.737193 -0.068724
C40   C     C_R   0.860333 0.861381 0.262805 -0.068752
C41   C     C_R   0.052085 0.094922 0.688982 0.020352
C42   C     C_R   0.947910 0.905077 0.311024 0.020348
C43   C     C_R   0.986180 0.087921 0.731363 0.011230
C44   C     C_3   0.939767 0.401466 0.428957 -0.153522
C45   C     C_R   0.013818 0.912051 0.268651 0.011269
C46   C     C_R   0.010234 0.126694 0.821640 -0.048755
C47   C     C_R   0.989780 0.873282 0.178374 -0.048722
C48   C     C_R   0.098506 0.172061 0.869772 0.007379
C49   C     C_R   0.901521 0.827943 0.130235 0.007378
C50   C     C_R   0.974534 0.942401 0.535766 -0.149681
C51   C     C_R   0.025448 0.057598 0.464238 -0.149676
C52   C     C_R   0.945380 0.892185 0.444050 0.017543
C53   C     C_R   0.054608 0.107815 0.555953 0.017550
C54   C     C_R   0.971527 0.950538 0.407448 -0.051526
C55   C     C_3   0.060234 0.598536 0.571043 -0.153519
C56   C     C_R   0.028456 0.049462 0.592556 -0.051519
C57   C     C_R   0.665998 0.607135 0.808361 -0.117327
C58   C     C_R   0.334015 0.392885 0.191657 -0.117382
C59   C     C_R   0.615116 0.554860 0.844624 -0.074554
C60   C     C_R   0.384887 0.445152 0.155384 -0.074622
C61   C     C_R   0.113812 0.503489 0.892687 0.530440
C62   C     C_R   0.886184 0.496507 0.107309 0.530407
C63   C     C_R   0.593732 0.605077 0.918665 0.045009
C64   C     C_R   0.406272 0.394934 0.081344 0.045003
C65   C     C_R   0.624813 0.708716 0.956884 -0.105118
C66   C     C_3   0.441040 0.966194 0.927600 -0.123897
C67   C     C_R   0.375203 0.291300 0.043137 -0.105112
C68   C     C_R   0.675155 0.760821 0.920215 -0.080854
C69   C     C_R   0.324875 0.239205 0.079819 -0.080837
C70   C     C_R   0.696319 0.710329 0.845678 0.043028
C71   C     C_R   0.303710 0.289699 0.154353 0.043049
C72   C     C_R   0.592245 0.547862 0.013913 -0.166968
C73   C     C_R   0.407756 0.452143 0.986092 -0.166968
C74   C     C_R   0.549913 0.498126 0.054756 0.030213
C75   C     C_R   0.450087 0.501878 0.945246 0.030211
C76   C     C_R   0.456363 0.448928 0.040540 -0.031379
C77   C     C_3   0.558962 0.033808 0.072394 -0.123872
C78   C     C_R   0.543638 0.551078 0.959465 -0.031385
C79   C     C_R   0.142865 0.825679 0.002241 0.001499
C80   C     C_R   0.857125 0.174300 0.997760 0.001505
C81   C     C_R   0.119843 0.747480 0.016707 0.026519
C82   C     C_R   0.880146 0.252493 0.983282 0.026509
C83   C     C_R   0.052291 0.642104 0.949312 0.020521
C84   C     C_R   0.947689 0.357875 0.050675 0.020487
C85   C     C_R   0.392509 0.500260 0.608022 0.552591
C86   C     C_R   0.607491 0.499739 0.391977 0.552601
C87   C     C_R   0.009456 0.614444 0.868295 -0.081977
C88   C     C_3   0.545024 0.038160 0.956870 0.004190
C89   C     C_R   0.990529 0.385548 0.131695 -0.081972
C90   C     C_R   0.028804 0.689491 0.853106 0.063643
C91   C     C_R   0.971192 0.310512 0.146894 0.063609
C92   C     C_R   0.095498 0.796378 0.920151 0.056988
C93   C     C_R   0.904501 0.203619 0.079856 0.056951
C94   C     C_R   0.951279 0.543910 0.005253 -0.009736
C95   C     C_R   0.048696 0.456060 0.994725 -0.009742
C96   C     C_R   0.938646 0.491738 0.046544 0.072898
C97   C     C_R   0.061336 0.508241 0.953440 0.072922
C98   C     C_R   0.981076 0.440057 0.033923 -0.002618
C99   C     C_3   0.454978 0.961842 0.043124 0.004187
C100  C     C_R   0.018901 0.559915 0.966056 -0.002621
C101  C     C_R   0.394068 0.499991 0.888520 0.516724
C102  C     C_R   0.605933 0.500010 0.111480 0.516724
C103  C     C_R   0.109096 0.500528 0.608209 0.551240
C104  C     C_R   0.890904 0.499473 0.391791 0.551236
C105  C     C_3   0.044219 0.461294 0.454919 -0.159494
C106  C     C_3   0.955783 0.538708 0.545081 -0.159498
C107  C     C_3   0.051924 0.558223 0.473458 0.018408
C108  C     C_3   0.948077 0.441778 0.526543 0.018406
C109  C     C_3   0.949007 0.499193 0.447951 0.068616
C110  C     C_3   0.549630 0.102892 0.052834 0.063410
C111  C     C_3   0.050994 0.500808 0.552049 0.068615
C112  C     C_2   0.112667 0.624503 0.444919 0.199292
C113  C     C_2   0.887335 0.375502 0.555084 0.199300
C114  C     C_2   0.124450 0.213607 0.964714 0.191962
C115  C     C_2   0.875594 0.786406 0.035295 0.191968
C116  C     C_2   0.892454 0.040209 0.681841 0.216515
C117  C     C_2   0.107528 0.959727 0.318181 0.216563
C118  C     C_2   0.750892 0.764287 0.806762 0.237860
C119  C     C_2   0.249153 0.235750 0.193283 0.237845
C120  C     C_3   0.113556 0.878795 0.905324 -0.265626
H1    H     H_    0.231145 0.211974 0.862875 0.094073
H2    H     H_    0.317841 0.432862 0.248627 0.088364
H3    H     H_    0.592845 0.475472 0.815388 0.127607
H4    H     H_    0.407150 0.524536 0.184611 0.127589
H5    H     H_    0.609995 0.748950 0.014978 0.102684
H6    H     H_    0.390022 0.251066 0.985046 0.102679
H7    H     H_    0.082464 0.430744 0.420173 0.115707
H8    H     H_    0.917537 0.569259 0.579827 0.115710
H9    H     H_    0.698214 0.840665 0.950612 0.130425
H10   H     H_    0.301828 0.159367 0.049432 0.130440
H11   H     H_    0.663941 0.584608 0.024032 0.129630
H12   H     H_    0.768885 0.788066 0.137117 0.094073
H13   H     H_    0.336060 0.415398 0.975974 0.129621
H14   H     H_    0.957017 0.533183 0.817856 0.136132
H15   H     H_    0.042965 0.466812 0.182129 0.136131
H16   H     H_    0.889820 0.320746 0.370351 0.104865
H17   H     H_    0.110182 0.679255 0.629649 0.104873
H18   H     H_    0.392574 0.937511 0.867530 0.104709
H19   H     H_    0.607430 0.062491 0.132463 0.104715
H20   H     H_    0.402370 0.059884 0.046298 0.115310
H21   H     H_    0.597639 0.940127 0.953695 0.115341
H22   H     H_    0.451900 0.321086 0.389103 0.144871
H23   H     H_    0.190154 0.142589 0.705028 0.123199
H24   H     H_    0.548098 0.678911 0.610895 0.144881
H25   H     H_    0.341243 0.395193 0.409281 0.122845
H26   H     H_    0.658755 0.604804 0.590718 0.122845
H27   H     H_    0.184836 0.661809 0.467839 0.096919
H28   H     H_    0.815165 0.338193 0.532162 0.096916
H29   H     H_    0.194166 0.254137 0.001983 0.111486
H30   H     H_    0.805884 0.745891 0.998018 0.111486
H31   H     H_    0.876719 0.027356 0.618033 0.122825
H32   H     H_    0.123243 0.972581 0.381993 0.122799
H33   H     H_    0.766397 0.723705 0.749279 0.088814
H34   H     H_    0.809850 0.857446 0.294965 0.123203
H35   H     H_    0.233608 0.276319 0.250738 0.088775
H36   H     H_    0.251724 0.930683 0.906934 0.134842
H37   H     H_    0.200451 0.964053 0.855384 0.141857
H38   H     H_    0.167787 0.832271 0.798186 0.154388
H39   H     H_    0.051745 0.854704 0.862636 0.167052
H40   H     H_    0.131734 0.951273 0.968062 0.178528
H41   H     H_    0.799774 0.036262 0.144971 0.141907
H42   H     H_    0.748199 0.069010 0.092958 0.134722
H43   H     H_    0.832097 0.167880 0.201718 0.154481
H44   H     H_    0.868289 0.048740 0.032001 0.178483
H45   H     H_    0.960371 0.122398 0.854710 0.197898
H46   H     H_    0.948263 0.145347 0.137426 0.167021
H47   H     H_    0.251607 0.990449 0.051085 0.119694
H48   H     H_    0.748478 0.009484 0.948901 0.119821
H49   H     H_    0.165797 0.830186 0.163811 0.198280
H50   H     H_    0.834254 0.169791 0.836177 0.198221
H51   H     H_    0.844568 0.585345 0.787125 0.157357
H52   H     H_    0.897464 0.716725 0.818803 0.196135
H53   H     H_    0.844447 0.609814 0.703384 0.114259
H54   H     H_    0.011137 0.701882 0.743003 0.139586
H55   H     H_    0.957857 0.573872 0.713307 0.169879
H56   H     H_    0.039646 0.877561 0.145309 0.197951
H57   H     H_    0.155569 0.390228 0.296623 0.114242
H58   H     H_    0.102496 0.283215 0.181226 0.196092
H59   H     H_    0.155407 0.414563 0.212789 0.157409
H60   H     H_    0.042182 0.426171 0.286686 0.169874
H61   H     H_    0.988861 0.298171 0.257029 0.139593
H62   H     H_    0.786968 0.428906 0.875006 0.169702
H63   H     H_    0.750136 0.510844 0.935968 0.116085
H64   H     H_    0.762073 0.441574 0.973618 0.182177
H65   H     H_    0.896141 0.637333 0.062151 0.184920
H66   H     H_    0.908218 0.616285 0.962996 0.161624
H67   H     H_    0.955003 0.898327 0.564395 0.159147
H68   H     H_    0.237902 0.558400 0.026385 0.182211
H69   H     H_    0.212993 0.571029 0.124981 0.169682
H70   H     H_    0.249827 0.489100 0.064004 0.116086
H71   H     H_    0.091739 0.383656 0.036961 0.161621
H72   H     H_    0.103830 0.362632 0.937817 0.184914
H73   H     H_    0.494713 0.084450 0.849734 0.136620
H74   H     H_    0.577966 0.205105 0.954136 0.152110
H75   H     H_    0.607132 0.168317 0.854459 0.184477
H76   H     H_    0.670717 0.136838 0.947597 0.189675
H77   H     H_    0.588395 0.016973 0.843118 0.181871
H78   H     H_    0.044982 0.101672 0.435608 0.159145
H79   H     H_    0.422058 0.794922 0.045886 0.152117
H80   H     H_    0.505291 0.915587 0.150291 0.136615
H81   H     H_    0.392870 0.831703 0.145551 0.184478
H82   H     H_    0.411583 0.983027 0.156866 0.181766
H83   H     H_    0.329281 0.863151 0.052383 0.189582
H84   H     H_    0.433152 0.607814 0.425965 0.084960
H85   H     H_    0.566728 0.392020 0.573915 0.085039
H86   H     H_    0.682171 0.567160 0.751389 0.088427
O1    O     O_3   0.251620 0.500000 0.748430 -0.447995
O2    O     O_R   0.570330 0.268390 0.136490 -0.551387
O3    O     O_R   0.134680 0.268390 0.572240 -0.536402
O4    O     O_R   0.865320 0.731610 0.427760 -0.536395
O5    O     O_R   0.306670 0.731630 0.863510 -0.552387
O6    O     O_R   0.693330 0.268370 0.136490 -0.552383
O7    O     O_R   0.135450 0.439270 0.865360 -0.562066
O8    O     O_R   0.864550 0.560730 0.134640 -0.562056
O9    O     O_R   0.429670 0.560710 0.692610 -0.511518
O10   O     O_R   0.570330 0.439290 0.307390 -0.511561
O11   O     O_R   0.308540 0.439240 0.865360 -0.562684
O12   O     O_3   0.748380 0.500000 0.251570 -0.447992
O13   O     O_R   0.691460 0.560760 0.134640 -0.562678
O14   O     O_R   0.133580 0.439310 0.571150 -0.542626
O15   O     O_R   0.866420 0.560690 0.428850 -0.542626
O16   O     O_R   0.430770 0.560690 0.864590 -0.524400
O17   O     O_R   0.569230 0.439310 0.135410 -0.524416
O18   O     O_R   0.133580 0.560760 0.692610 -0.538405
O19   O     O_R   0.866420 0.439240 0.307390 -0.538419
O20   O     O_2   0.081769 0.636708 0.396006 -0.508524
O21   O     O_2   0.918232 0.363300 0.604000 -0.508523
O22   O     O_2   0.068486 0.203037 0.002388 -0.537716
O23   O     O_R   0.134680 0.560740 0.864590 -0.527554
O24   O     O_2   0.931566 0.796970 0.997630 -0.537718
O25   O     O_2   0.831121 0.013053 0.711046 -0.462564
O26   O     O_2   0.168872 0.986852 0.288981 -0.462562
O27   O     O_2   0.779578 0.854564 0.838409 -0.480830
O28   O     O_2   0.220532 0.145498 0.161681 -0.480689
O29   O     O_2   0.244158 0.972820 0.148229 -0.465098
O30   O     O_2   0.755682 0.027189 0.851803 -0.465326
O31   O     O_2   0.200372 0.732286 0.103082 -0.546034
O32   O     O_2   0.799632 0.267659 0.896866 -0.545987
O33   O     O_2   0.523934 0.600312 0.367472 -0.497539
O34   O     O_R   0.865320 0.439260 0.135410 -0.527564
O35   O     O_2   0.476179 0.399840 0.632635 -0.497603
O36   O     O_R   0.306670 0.439270 0.571150 -0.549501
O37   O     O_R   0.693330 0.560730 0.428850 -0.549477
O38   O     O_R   0.135450 0.268370 0.694460 -0.538433
O39   O     O_R   0.864550 0.731630 0.305540 -0.538424
O40   O     O_R   0.429670 0.731610 0.863510 -0.551383
Zn1   Zn    Zn3+2 0.207400 0.586780 0.791530 0.946896
Zn2   Zn    Zn3+2 0.792600 0.413220 0.208470 0.946878
Zn3   Zn    Zn3+2 0.208510 0.413230 0.792630 0.935941
Zn4   Zn    Zn3+2 0.791490 0.586770 0.207370 0.935954
Zn5   Zn    Zn3+2 0.383150 0.586740 0.791530 0.960653
Zn6   Zn    Zn3+2 0.616850 0.413260 0.208470 0.960627
Zn7   Zn    Zn3+2 0.207400 0.413250 0.618010 0.962647
Zn8   Zn    Zn3+2 0.792600 0.586750 0.381990 0.962670

loop_
_geom_bond_atom_site_label_1
_geom_bond_atom_site_label_2
_ccdc_geom_bond_type
C101  O16   A    
C10   H54   S    
C83   C87   A    
O39   Zn4   S    
C63   C65   A    
C18   H69   S    
C11   H51   S    
C31   C85   S    
C46   H45   S    
C62   C96   S    
C27   C29   S    
O12   Zn4   S    
C107  C112  S    
C21   H83   S    
C12   C91   S    
C94   C100  A    
C19   C20   S    
C2    C37   S    
O6    Zn2   S    
C18   H68   S    
C15   C94   S    
C16   H63   S    
C104  O19   A    
C47   C49   A    
C103  O14   A    
C8    O31   D    
C17   H71   S    
C33   C52   S    
C26   C32   S    
C105  C107  S    
O37   Zn8   S    
C38   O2    A    
C44   C108  S    
C89   H15   S    
C5    H43   S    
C113  H28   S    
C22   H80   S    
C51   H78   S    
C29   C32   S    
C44   H16   S    
C85   O9    A    
C66   C88   S    
C104  C109  S    
C21   C99   S    
C16   H62   S    
C58   C71   A    
C57   C59   A    
C7    H48   S    
C35   C48   A    
C58   C60   A    
C15   C16   S    
C106  H8    S    
C62   O34   A    
C118  H33   S    
C103  C111  S    
O2    Zn6   S    
O5    Zn1   S    
C69   C71   A    
C1    C53   S    
O4    Zn8   S    
C115  O24   D    
C72   C78   A    
O18   Zn1   S    
O3    Zn7   S    
C7    O30   D    
C48   C114  S    
C37   O5    A    
C69   H10   S    
O13   Zn4   S    
C96   C98   A    
O8    Zn4   S    
C120  H39   S    
C50   C52   A    
C4    H44   S    
C33   O39   A    
C17   C95   S    
C3    H38   S    
C57   C70   A    
C38   C110  S    
C20   H75   S    
C47   H56   S    
C25   C34   S    
C74   C102  S    
C88   C110  S    
C44   C109  S    
O19   Zn2   S    
C13   C66   S    
C105  C111  S    
C28   C34   S    
C26   C31   S    
C17   H72   S    
O1    Zn5   S    
C21   C22   S    
C27   C30   S    
O9    Zn5   S    
C41   C43   A    
C87   H14   S    
C40   H34   S    
C9    H50   S    
C77   C110  S    
C61   O7    A    
C25   H85   S    
C50   H67   S    
C20   H74   S    
C26   C28   S    
C81   C83   A    
C52   C54   A    
C102  O17   A    
C107  C109  S    
O16   Zn5   S    
O40   Zn5   S    
C45   C47   A    
C27   C34   S    
C59   H3    S    
C15   H66   S    
C46   C48   A    
C58   H2    S    
C19   H77   S    
O38   Zn3   S    
C105  H7    S    
C55   C106  S    
C1    O3    A    
C8    C81   S    
C13   H20   S    
C22   H79   S    
C36   C40   A    
C62   O8    A    
C112  O20   D    
C38   O6    A    
C72   C74   A    
C19   C88   S    
C10   C11   S    
C67   H6    S    
C79   C81   A    
C86   O37   A    
C14   H59   S    
C2    C66   S    
C75   C78   A    
C44   C105  S    
C29   H24   S    
C57   H86   S    
C50   C56   A    
C37   O40   A    
C55   C107  S    
C67   C69   A    
C42   C45   A    
O12   Zn2   S    
C108  C113  S    
C13   C99   S    
C26   H25   S    
C35   C39   A    
C64   C67   A    
C41   C56   S    
C13   C110  S    
C1    O38   A    
C103  O18   A    
C91   C93   A    
C15   H65   S    
C33   O4    A    
C119  O28   D    
C90   C92   A    
C12   H61   S    
C66   H18   S    
C35   H1    S    
C24   H21   S    
O10   Zn6   S    
C65   C68   A    
O14   Zn7   S    
C95   C97   A    
C17   C18   S    
C64   C76   S    
C31   C34   S    
C61   C97   S    
C3    H36   S    
O34   Zn2   S    
O7    Zn3   S    
O1    Zn3   S    
C6    O29   D    
C79   C92   A    
C14   H58   S    
C74   C76   A    
C102  O13   A    
C80   C82   A    
C49   C115  S    
C39   H23   S    
C2    C99   S    
C82   C84   A    
C83   C100  S    
C116  O25   D    
C2    C24   S    
C73   C76   A    
C30   C86   S    
C84   C89   A    
C73   C75   A    
C112  H27   S    
O11   Zn3   S    
O17   Zn6   S    
C20   H73   S    
C97   C100  A    
C8    H49   S    
C72   H11   S    
C120  H40   S    
C53   C56   A    
C45   C117  S    
C10   H55   S    
C6    H47   S    
C18   H70   S    
C119  H35   S    
C11   H53   S    
C22   H81   S    
C55   C111  S    
C23   O33   D    
O12   Zn6   S    
C21   H82   S    
C24   C88   S    
C94   C96   A    
C12   H60   S    
C77   H19   S    
C73   H13   S    
C4    C5    S    
O12   Zn8   S    
O1    Zn1   S    
C3    H37   S    
C61   O23   A    
C16   H64   S    
C43   C116  S    
C60   H4    S    
C104  O15   A    
C25   O35   D    
C92   C120  S    
C39   C41   A    
C9    C82   S    
C117  O26   D    
C59   C63   A    
C55   H17   S    
C108  C111  S    
C71   C119  S    
C23   H84   S    
C60   C64   A    
C51   C54   A    
C84   C98   S    
C5    H42   S    
C36   H12   S    
C12   C14   S    
C29   C31   S    
C23   C32   S    
C30   C32   S    
C118  O27   D    
C6    C79   S    
O15   Zn8   S    
C106  C108  S    
C70   C118  S    
C27   H26   S    
C115  H30   S    
C28   C30   S    
C85   O36   A    
C4    H46   S    
C77   C99   S    
C117  H32   S    
O1    Zn7   S    
C68   H9    S    
C43   C46   A    
C86   O10   A    
C14   H57   S    
C113  O21   D    
C3    C120  S    
C114  O22   D    
C4    C93   S    
O23   Zn1   S    
C101  O11   A    
C24   C77   S    
C19   H76   S    
C28   H22   S    
C10   C90   S    
C68   C70   A    
C89   C91   A    
C87   C90   A    
C11   H52   S    
C9    O32   D    
C75   C101  S    
O36   Zn7   S    
C40   C42   A    
C5    H41   S    
C114  H29   S    
C51   C53   A    
C80   C93   A    
C95   C98   A    
C63   C78   S    
C116  H31   S    
C42   C54   S    
C36   C49   A    
C65   H5    S    
C7    C80   S    
C106  C109  S    
