data_mof_unit_28030.cif
_audit_creation_date              2012-12-11T14:56:23-0500
_audit_creation_method            fapswitch 2.2
_symmetry_space_group_name_H-M    P1
_symmetry_Int_Tables_number       1
_space_group_crystal_system       triclinic
_cell_length_a                    10.651731
_cell_length_b                    10.801592
_cell_length_c                    17.156428
_cell_angle_alpha                 80.410248
_cell_angle_beta                  89.783209
_cell_angle_gamma                 119.594627
_cell_volume                      1683.89346622

loop_
_atom_site_label
_atom_site_type_symbol
_atom_type_description
_atom_site_fract_x
_atom_site_fract_y
_atom_site_fract_z
_atom_type_partial_charge
C1    C     C_R   0.224400 0.855418 0.128832 0.554068
C2    C     C_1   0.650415 0.341077 0.706888 -0.054473
C3    C     C_R   0.568005 0.712861 0.793761 0.027470
C4    C     C_R   0.611759 0.217368 0.101727 0.560325
C5    C     C_R   0.544845 0.729403 0.714199 0.102832
C6    C     C_R   0.655367 0.841577 0.658423 0.009654
C7    C     C_R   0.771504 0.960376 0.683619 0.088508
C8    C     C_R   0.789994 0.951963 0.765174 -0.005393
C9    C     C_R   0.679570 0.837134 0.820889 -0.033380
C10   C     C_R   0.246548 0.971747 0.758524 -0.144713
C11   C     C_R   0.234406 0.960234 0.679573 0.059108
C12   C     C_R   0.710809 0.247662 0.307120 -0.136174
C13   C     C_R   0.168606 0.821663 0.659565 0.072300
C14   C     C_R   0.138677 0.698873 0.718369 0.079807
C15   C     C_R   0.152306 0.713587 0.797460 -0.103459
C16   C     C_R   0.639838 0.858847 0.125458 0.547843
C17   C     C_R   0.199319 0.847703 0.817684 -0.008716
C18   C     C_R   0.686910 0.809294 0.357167 0.545585
C19   C     C_R   0.682221 0.384516 0.399915 0.545266
C20   C     C_R   0.102739 0.810166 0.359137 0.549099
C21   C     C_R   0.675060 0.804093 0.583080 0.537228
C22   C     C_R   0.678953 0.382563 0.624117 0.541501
C23   C     C_R   0.699977 0.218660 0.231476 -0.155087
C24   C     C_R   0.101392 0.802927 0.585287 0.575642
C25   C     C_R   0.228811 0.866925 0.897940 0.558403
C26   C     C_R   0.636111 0.279588 0.860227 0.557965
C27   C     C_R   0.645749 0.864689 0.898534 0.538607
C28   C     C_R   0.521659 0.299854 0.210378 -0.007097
C29   C     C_R   0.535467 0.328118 0.287475 -0.108038
C30   C     C_R   0.635065 0.310373 0.333450 0.013581
C31   C     C_3   0.417129 0.328610 0.159559 -0.243775
C32   C     C_3   0.333090 0.389954 0.196747 -0.322520
C33   C     C_3   0.233590 0.411952 0.139110 -0.418047
C34   C     C_R   0.612037 0.249809 0.181212 0.028766
C35   C     C_3   0.456718 0.576754 0.852130 -0.206053
C36   C     C_3   0.398860 0.427518 0.833586 -0.325628
C37   C     C_3   0.312367 0.316872 0.910207 -0.408243
C38   C     C_3   0.928483 0.063647 0.791999 -0.225507
C39   C     C_3   0.930363 0.207452 0.785238 -0.253988
C40   C     C_3   0.002273 0.284912 0.852158 -0.403004
C41   C     C_1   0.668435 0.848812 0.205483 -0.049279
C42   C     C_1   0.680308 0.838889 0.274825 -0.045215
C43   C     C_1   0.181674 0.826739 0.211343 -0.042192
C44   C     C_1   0.151412 0.820452 0.279798 -0.035198
C45   C     C_1   0.643373 0.316780 0.777300 -0.066884
Cr1   Cr    Cr6+3 0.402240 0.783890 0.019450 0.981928
Cr2   Cr    Cr6+3 0.382360 0.097900 0.991800 0.952766
Cr3   Cr    Cr6+3 0.715380 0.118170 0.988700 0.981375
Cr4   Cr    Cr6+3 0.936650 0.882420 0.465510 1.040669
Cr5   Cr    Cr6+3 0.605770 0.565620 0.493360 1.013459
Cr6   Cr    Cr6+3 0.921340 0.550490 0.496380 1.021553
H1    H     H_    0.126802 0.620646 0.843447 0.113696
H2    H     H_    0.410403 0.496366 0.212027 0.190335
H3    H     H_    0.480474 0.407415 0.104317 0.166598
H4    H     H_    0.334243 0.224278 0.144423 0.190579
H5    H     H_    0.234952 0.145634 0.633432 0.238101
H6    H     H_    0.397209 0.154370 0.623138 0.226683
H7    H     H_    0.142588 0.567792 0.646524 0.241716
H8    H     H_    0.132764 0.508919 0.739038 0.220749
H9    H     H_    0.384903 0.318627 0.956486 0.197973
H10   H     H_    0.238288 0.344625 0.938737 0.087599
H11   H     H_    0.246998 0.207585 0.896420 0.188183
H12   H     H_    0.476378 0.373443 0.310822 0.135173
H13   H     H_    0.328171 0.407976 0.785098 0.158417
H14   H     H_    0.490734 0.417971 0.813903 0.183177
H15   H     H_    0.512907 0.569148 0.905837 0.165656
H16   H     H_    0.361188 0.588655 0.865466 0.186872
H17   H     H_    0.394999 0.553682 0.671208 0.252096
H18   H     H_    0.384474 0.706404 0.644786 0.233056
H19   H     H_    0.844986 0.171820 0.641927 0.225762
H20   H     H_    0.833011 0.088171 0.570762 0.238308
H21   H     H_    0.966074 0.212223 0.911412 0.179164
H22   H     H_    0.117450 0.332519 0.838151 0.113607
H23   H     H_    0.785917 0.229740 0.343042 0.138732
H24   H     H_    0.985402 0.377465 0.853174 0.176149
H25   H     H_    0.992067 0.278226 0.728184 0.162075
H26   H     H_    0.819040 0.190133 0.784068 0.209264
H27   H     H_    0.941103 0.022071 0.853524 0.145623
H28   H     H_    0.023219 0.080075 0.754819 0.150598
H29   H     H_    0.763597 0.174605 0.211390 0.130623
H30   H     H_    0.295487 0.078938 0.773127 0.134993
H31   H     H_    0.297569 0.487445 0.083221 0.168470
H32   H     H_    0.151279 0.306516 0.124811 0.137252
H33   H     H_    0.176451 0.458840 0.166717 0.163201
H34   H     H_    0.264836 0.313216 0.251432 0.165219
N1    N     N_3   0.286150 0.089322 0.619950 -0.596545
N2    N     N_3   0.088755 0.557890 0.700041 -0.594815
N3    N     N_3   0.402600 0.642920 0.691284 -0.657963
N4    N     N_3   0.865654 0.092895 0.627914 -0.609159
O1    O     O_R   0.521780 0.757110 0.108900 -0.521945
O2    O     O_R   0.805020 0.410040 0.421340 -0.523293
O3    O     O_R   0.049240 0.685450 0.403290 -0.499424
O4    O     O_R   0.275160 0.783810 0.101120 -0.497128
O5    O     O_R   0.077520 0.903010 0.551800 -0.468762
O6    O     O_R   0.802980 0.872780 0.546830 -0.489186
O7    O     O_R   0.578090 0.681300 0.569920 -0.529610
O8    O     O_R   0.608530 0.436370 0.586530 -0.507291
O9    O     O_R   0.798770 0.401880 0.597100 -0.507900
O10   O     O_R   0.043450 0.677890 0.566230 -0.503887
O11   O     O_3   0.821250 0.666180 0.485090 -0.256640
O12   O     O_R   0.513330 0.228330 0.898660 -0.520046
O13   O     O_R   0.237900 0.972600 0.090980 -0.531767
O14   O     O_R   0.511190 0.220540 0.061620 -0.539814
O15   O     O_R   0.736920 0.257720 0.063840 -0.511925
O16   O     O_R   0.710450 0.984050 0.081720 -0.517775
O17   O     O_R   0.524090 0.765520 0.933110 -0.547456
O18   O     O_R   0.277300 0.791600 0.938160 -0.502541
O19   O     O_R   0.240210 0.981010 0.915190 -0.545291
O20   O     O_R   0.739230 0.266130 0.888050 -0.525259
O21   O     O_R   0.712580 0.991850 0.918770 -0.499703
O22   O     O_3   0.499990 0.999980 0.999980 -0.256589
O23   O     O_R   0.083770 0.911170 0.376030 -0.511162
O24   O     O_R   0.808770 0.880340 0.383890 -0.505516
O25   O     O_R   0.584340 0.689460 0.394160 -0.514690
O26   O     O_R   0.614320 0.443940 0.423590 -0.505860

loop_
_geom_bond_atom_site_label_1
_geom_bond_atom_site_label_2
_ccdc_geom_bond_type
Cr4   O24   S    
C29   H12   S    
C16   O1    A    
Cr2   O12   S    
C12   H23   S    
C24   O10   A    
C41   C42   T    
Cr3   O21   S    
C35   C36   S    
H7    N2    S    
C18   O25   A    
C37   H11   S    
C7    C8    A    
H6    N1    S    
C20   O3    A    
C12   C23   A    
C9    C27   S    
C22   O9    A    
C39   H26   S    
C36   C37   S    
C14   N2    S    
C18   C42   S    
C26   O12   A    
C38   C39   S    
Cr2   O22   S    
C38   H28   S    
C11   N1    S    
C7    N4    S    
C4    O14   A    
Cr1   O17   S    
C40   H22   S    
Cr5   O26   S    
C26   C45   S    
Cr6   O2    S    
C20   O23   A    
C5    N3    S    
C1    C43   S    
C31   C32   S    
C27   O21   A    
C8    C9    A    
C2    C22   S    
C35   H16   S    
Cr4   O5    S    
C33   H31   S    
Cr6   O9    S    
Cr3   O20   S    
C28   C34   A    
C22   O8    A    
C13   C14   A    
C8    C38   S    
C18   O24   A    
C20   C44   S    
C2    C45   T    
Cr6   O10   S    
C4    C34   S    
Cr2   O14   S    
C39   C40   S    
C36   H14   S    
C21   O6    A    
C35   H15   S    
C15   H1    S    
C6    C21   S    
C13   C24   S    
Cr5   O25   S    
C43   C44   T    
C29   C30   A    
C3    C9    A    
C24   O5    A    
Cr6   O3    S    
C3    C35   S    
H5    N1    S    
Cr3   O16   S    
H20   N4    S    
C19   O26   A    
C23   C34   A    
Cr1   O22   S    
Cr1   O18   S    
C39   H25   S    
Cr4   O6    S    
C33   H32   S    
C26   O20   A    
H18   N3    S    
C16   O16   A    
Cr4   O23   S    
C23   H29   S    
H19   N4    S    
C32   H2    S    
C25   O18   A    
Cr6   O11   S    
C15   C17   A    
C28   C29   A    
Cr5   O8    S    
C40   H21   S    
C12   C30   A    
C28   C31   S    
C3    C5    A    
C37   H10   S    
C6    C7    A    
Cr1   O1    S    
C21   O7    A    
C38   H27   S    
C10   H30   S    
Cr5   O11   S    
C27   O17   A    
C40   H24   S    
C17   C25   S    
C32   C33   S    
Cr4   O11   S    
C11   C13   A    
Cr5   O7    S    
C5    C6    A    
Cr1   O4    S    
H17   N3    S    
C32   H34   S    
C4    O15   A    
C31   H3    S    
C33   H33   S    
H8    N2    S    
C37   H9    S    
C19   O2    A    
C10   C11   A    
Cr3   O22   S    
C1    O4    A    
Cr2   O19   S    
Cr2   O13   S    
C14   C15   A    
C10   C17   A    
C31   H4    S    
C36   H13   S    
C19   C30   S    
C1    O13   A    
C25   O19   A    
C16   C41   S    
Cr3   O15   S    
