data_mof_unit_32079.cif
_audit_creation_date              2012-12-10T19:15:22-0500
_audit_creation_method            fapswitch 2.2
_symmetry_space_group_name_H-M    P1
_symmetry_Int_Tables_number       1
_space_group_crystal_system       triclinic
_cell_length_a                    10.686664
_cell_length_b                    9.731356
_cell_length_c                    23.436915
_cell_angle_alpha                 89.035105
_cell_angle_beta                  89.176439
_cell_angle_gamma                 89.625035
_cell_volume                      2436.69335128

loop_
_atom_site_label
_atom_site_type_symbol
_atom_type_description
_atom_site_fract_x
_atom_site_fract_y
_atom_site_fract_z
_atom_type_partial_charge
Br1   Br    Br    0.543834 0.207742 0.690392 -0.414567
Br2   Br    Br    0.306753 0.162129 0.585177 -0.377426
Br3   Br    Br    0.300207 0.837809 0.582125 -0.466561
C1    C     C_R   0.258355 0.500676 0.497539 0.901036
C2    C     C_R   0.591995 0.546566 0.119757 0.568712
C3    C     C_R   0.466492 0.638476 0.239889 -0.078630
C4    C     C_R   0.496772 0.501185 0.389331 0.922002
C5    C     C_R   0.471058 0.632341 0.298923 -0.213406
C6    C     C_R   0.490327 0.505686 0.327199 -0.041976
C7    C     C_R   0.503187 0.384959 0.295642 -0.195115
C8    C     C_R   0.498628 0.391557 0.236378 -0.076712
C9    C     C_R   0.480784 0.518433 0.208735 0.301182
C10   C     C_R   0.460615 0.652946 0.756861 -0.061506
C11   C     C_R   0.469176 0.636457 0.698337 -0.216225
C12   C     C_R   0.250721 0.525160 0.973601 -0.101537
C13   C     C_R   0.491070 0.505809 0.674415 -0.131811
C14   C     C_R   0.504914 0.391070 0.712054 0.324441
C15   C     C_R   0.495573 0.409473 0.770736 -0.122802
C16   C     C_R   0.742950 0.499789 0.498322 0.979541
C17   C     C_R   0.473985 0.539396 0.792876 0.237540
C18   C     C_3   0.074023 0.642214 0.473835 -0.441316
C19   C     C_3   0.074956 0.483439 0.558465 -0.389565
C20   C     C_3   0.931008 0.638713 0.469282 0.280308
C21   C     C_3   0.931124 0.486221 0.559703 0.238223
C22   C     C_3   0.074783 0.383675 0.459217 -0.364014
C23   C     C_R   0.252939 0.518854 0.032782 -0.095717
C24   C     C_3   0.122798 0.502246 0.496867 -0.014722
C25   C     C_3   0.880205 0.499580 0.496750 -0.157820
C26   C     C_3   0.931460 0.379649 0.460419 -0.321450
C27   C     C_3   0.412738 0.083296 0.455827 -0.251038
C28   C     C_3   0.414214 0.921240 0.455211 -0.243135
C29   C     C_3   0.625646 0.080831 0.484717 -0.342294
C30   C     C_3   0.626047 0.918577 0.485617 -0.308764
C31   C     C_3   0.462104 0.079017 0.555391 0.224620
C32   C     C_3   0.460088 0.916390 0.555319 0.190258
C33   C     C_R   0.498505 0.499647 0.611239 0.992393
C34   C     C_R   0.366569 0.529704 0.061620 -0.019364
C35   C     C_R   0.583987 0.575100 0.879657 0.563157
C36   C     C_R   0.362662 0.542432 0.882566 0.534762
C37   C     C_R   0.362107 0.542702 0.942198 -0.032945
C38   C     C_R   0.476632 0.557265 0.970790 -0.009692
C39   C     C_R   0.588025 0.575912 0.939258 -0.103909
C40   C     C_R   0.479721 0.550475 0.030800 -0.062530
C41   C     C_R   0.595245 0.562426 0.059690 -0.163009
C42   C     C_R   0.707077 0.588057 0.027018 0.465567
C43   C     C_R   0.701080 0.592606 0.967441 -0.204868
C44   C     C_R   0.369618 0.519284 0.120844 0.518416
H1    H     H_    0.161789 0.514375 0.952580 0.223443
H2    H     H_    0.109347 0.398096 0.414518 0.199884
H3    H     H_    0.110595 0.282478 0.474957 0.220459
H4    H     H_    0.895241 0.386093 0.416269 0.223983
H5    H     H_    0.899448 0.278887 0.477565 0.231809
H6    H     H_    0.438659 0.123564 0.412610 0.158782
H7    H     H_    0.443530 0.886389 0.412066 0.154736
H8    H     H_    0.165461 0.503618 0.055843 0.239842
H9    H     H_    0.315914 0.120607 0.464305 0.191383
H10   H     H_    0.317728 0.881984 0.462084 0.195163
H11   H     H_    0.657249 0.119676 0.442006 0.189773
H12   H     H_    0.459537 0.727959 0.672025 0.212498
H13   H     H_    0.660197 0.880370 0.443691 0.231917
H14   H     H_    0.534392 0.108382 0.585931 0.152473
H15   H     H_    0.527906 0.879456 0.587827 0.101784
H16   H     H_    0.695251 0.117860 0.515638 0.204412
H17   H     H_    0.693978 0.880541 0.517836 0.163026
H18   H     H_    0.785959 0.608822 0.942577 0.240749
H19   H     H_    0.452944 0.736460 0.218183 0.145442
H20   H     H_    0.460125 0.726805 0.322302 0.157790
H21   H     H_    0.517949 0.286262 0.316604 0.154681
H22   H     H_    0.509993 0.298833 0.211885 0.145679
H23   H     H_    0.507717 0.322681 0.799750 0.171920
H24   H     H_    0.445252 0.754173 0.774259 0.171491
H25   H     H_    0.727026 0.668398 0.343058 0.388170
H26   H     H_    0.881339 0.119870 0.598453 0.391412
H27   H     H_    0.929010 0.749645 0.121909 0.400953
H28   H     H_    0.121174 0.667403 0.432360 0.228292
H29   H     H_    0.112975 0.385276 0.576202 0.266479
H30   H     H_    0.099499 0.725998 0.503205 0.197600
H31   H     H_    0.110749 0.566614 0.585833 0.183761
H32   H     H_    0.893021 0.726101 0.494396 0.088817
H33   H     H_    0.900250 0.579667 0.582955 0.086233
N1    N     N_R   0.472867 0.556100 0.852987 -0.356562
N2    N     N_R   0.480823 0.526868 0.148120 -0.373090
N3    N     N_3   0.499750 0.138610 0.498760 -0.093000
N4    N     N_3   0.499750 0.861390 0.498760 -0.086134
O1    O     O_R   0.314910 0.616040 0.499990 -0.602341
O2    O     O_2   0.254773 0.526224 0.854266 -0.504990
O3    O     O_2   0.262548 0.500992 0.151250 -0.511714
O4    O     O_2   0.697605 0.548648 0.150291 -0.438904
O5    O     O_2   0.908494 0.824416 0.383550 -0.303643
O6    O     O_2   0.973241 0.593254 0.355799 -0.283447
O7    O     O_3   0.741317 0.634266 0.382494 -0.575921
O8    O     O_2   0.936861 0.350822 0.660705 -0.216215
O9    O     O_2   0.739527 0.346056 0.610663 -0.302653
O10   O     O_3   0.921547 0.191303 0.573947 -0.563561
O11   O     O_2   0.902733 0.489227 0.085824 -0.241136
O12   O     O_R   0.314910 0.383960 0.499990 -0.609904
O13   O     O_2   0.949721 0.660155 0.011057 -0.326026
O14   O     O_3   0.845376 0.745587 0.104349 -0.484610
O15   O     O_R   0.500080 0.616070 0.416130 -0.603841
O16   O     O_R   0.500080 0.383930 0.416130 -0.646042
O17   O     O_R   0.685320 0.616040 0.499970 -0.623062
O18   O     O_R   0.685320 0.383960 0.499970 -0.592816
O19   O     O_R   0.500150 0.616010 0.583820 -0.628446
O20   O     O_R   0.500150 0.383990 0.583820 -0.538905
O21   O     O_2   0.690253 0.590767 0.848427 -0.505236
S1    S     S_3+6 0.890053 0.673617 0.395557 -0.000773
S2    S     S_3+6 0.878433 0.341556 0.602940 0.034860
S3    S     S_3+6 0.856644 0.618436 0.056752 0.069665
Zn1   Zn    Zn3+2 0.500150 0.654960 0.499970 0.976986
Zn2   Zn    Zn3+2 0.500150 0.345040 0.499970 0.998891

loop_
_geom_bond_atom_site_label_1
_geom_bond_atom_site_label_2
_ccdc_geom_bond_type
C15   H23   S    
O16   Zn2   S    
C38   C39   A    
C29   H11   S    
C23   H8    S    
H27   O14   S    
C42   C43   A    
C11   H12   S    
C4    O15   A    
C33   O19   A    
H26   O10   S    
C25   C26   S    
C35   C39   A    
O1    Zn1   S    
C3    C9    A    
C27   C28   S    
C16   O18   A    
O17   Zn1   S    
O15   Zn1   S    
O14   S3    S    
C31   C32   S    
C39   C43   A    
C44   N2    A    
C27   N3    S    
C22   H3    S    
C1    O12   A    
O13   S3    D    
C21   H33   S    
C13   C14   A    
O5    S1    D    
C19   H29   S    
C34   C44   A    
C6    C7    A    
C15   C17   A    
C42   S3    S    
Br2   C31   S    
C18   C24   S    
C17   N1    S    
C38   C40   A    
O7    S1    S    
C12   H1    S    
C22   C26   S    
C27   H6    S    
O10   S2    S    
C4    O16   A    
C36   N1    A    
C43   H18   S    
C7    C8    A    
C36   C37   A    
H25   O7    S    
C5    C6    A    
C12   C23   A    
C3    C5    A    
C1    O1    A    
C10   H24   S    
C20   S1    S    
O12   Zn2   S    
C31   H14   S    
C28   N4    S    
C44   O3    S    
C34   C40   A    
C40   C41   A    
O8    S2    D    
Br3   C32   S    
C32   N4    S    
C14   C15   A    
N3    Zn2   S    
C9    N2    S    
C21   S2    S    
C20   C25   S    
C16   C25   S    
C19   H31   S    
C37   C38   A    
C2    C41   A    
C30   H13   S    
C19   C24   S    
C18   C20   S    
C35   N1    A    
C11   C13   A    
O18   Zn2   S    
C31   N3    S    
C1    C24   S    
C41   C42   A    
C26   H4    S    
C4    C6    S    
C29   N3    S    
C10   C17   A    
C21   C25   S    
C29   H16   S    
C8    C9    A    
C8    H22   S    
C23   C34   A    
C7    H21   S    
C22   C24   S    
C18   H28   S    
Br1   C14   S    
N4    Zn1   S    
O19   Zn1   S    
C33   O20   A    
C29   C30   S    
C28   H10   S    
C35   O21   S    
C13   C33   S    
O20   Zn2   S    
C2    N2    A    
C16   O17   A    
C27   H9    S    
C30   H17   S    
C32   H15   S    
C19   C21   S    
C28   H7    S    
C30   N4    S    
C22   H2    S    
C12   C37   A    
O11   S3    D    
O6    S1    D    
C3    H19   S    
C5    H20   S    
C18   H30   S    
C2    O4    S    
C36   O2    S    
C20   H32   S    
C10   C11   A    
O9    S2    D    
C26   H5    S    
