data_mof_unit_11766.cif
_audit_creation_date              2012-10-26T20:51:15-0400
_audit_creation_method            fapswitch 2.2
_symmetry_space_group_name_H-M    P1
_symmetry_Int_Tables_number       1
_space_group_crystal_system       triclinic
_cell_length_a                    12.968682
_cell_length_b                    10.777687
_cell_length_c                    9.674352
_cell_angle_alpha                 89.389248
_cell_angle_beta                  95.657619
_cell_angle_gamma                 92.154519
_cell_volume                      1344.63630492

loop_
_atom_site_label
_atom_site_type_symbol
_atom_type_description
_atom_site_fract_x
_atom_site_fract_y
_atom_site_fract_z
_atom_type_partial_charge
C1    C     C_R   0.507736 0.263519 0.501957 0.548806
C2    C     C_R   0.544488 0.937591 0.392946 -0.153277
C3    C     C_R   0.495104 0.872170 0.496358 -0.096594
C4    C     C_R   0.301134 0.507782 0.473314 0.541103
C5    C     C_R   0.462789 0.937257 0.609164 -0.040467
C6    C     C_3   0.502364 0.914207 0.757404 0.187051
C7    C     C_3   0.555297 0.040525 0.749926 0.231207
C8    C     C_R   0.558095 0.586049 0.079769 0.138801
C9    C     C_R   0.435889 0.419602 0.067169 0.366210
C10   C     C_R   0.432284 0.423978 0.918111 0.388516
C11   C     C_R   0.558224 0.585789 0.933572 0.040272
C12   C     C_R   0.028403 0.544216 0.559200 0.036517
C13   C     C_3   0.672743 0.604619 0.942412 -0.245127
C14   C     C_3   0.673057 0.603416 0.099558 0.148108
C15   C     C_R   0.497346 0.737514 0.498958 0.526181
C16   C     C_R   0.699283 0.503674 0.525881 0.526185
C17   C     C_R   0.812491 0.514821 0.540244 -0.001164
C18   C     C_R   0.188350 0.521931 0.454148 -0.006814
C19   C     C_R   0.023608 0.494226 0.314094 -0.138026
C20   C     C_R   0.131441 0.506355 0.322506 0.280618
C21   C     C_R   0.136046 0.553126 0.567994 -0.207221
C22   C     C_3   0.629683 0.118199 0.958851 -0.015892
C23   C     C_R   0.972301 0.510400 0.432198 -0.004249
C24   C     C_3   0.635961 0.994696 0.038563 -0.326922
C25   C     C_3   0.401831 0.218177 0.145119 0.045769
C26   C     C_3   0.340741 0.123017 0.051554 -0.367724
C27   C     C_3   0.262318 0.391265 0.824943 0.032733
C28   C     C_3   0.182217 0.316236 0.899293 -0.396113
C29   C     C_3   0.810929 0.739105 0.169685 -0.019110
C30   C     C_3   0.847660 0.811416 0.300684 -0.368810
C31   C     C_3   0.167953 0.613505 0.126818 -0.012709
C32   C     C_3   0.249200 0.712486 0.180374 -0.360534
C33   C     C_3   0.720834 0.157379 0.386418 -0.001489
C34   C     C_R   0.865343 0.495485 0.424053 -0.137111
C35   C     C_3   0.797207 0.205756 0.286892 -0.391146
C36   C     C_3   0.357799 0.808009 0.837675 -0.012971
C37   C     C_3   0.245058 0.844672 0.819948 -0.391000
C38   C     C_R   0.868237 0.550802 0.666208 -0.145531
C39   C     C_R   0.975892 0.565268 0.675855 -0.135902
C40   C     C_R   0.486222 0.064915 0.619290 0.049856
C41   C     C_R   0.519602 0.130399 0.507082 -0.048437
C42   C     C_R   0.561302 0.066177 0.401418 0.183962
Cu1   Cu    Cu3+1 0.499990 0.499980 0.640670 0.967093
Cu2   Cu    Cu3+1 0.500010 0.500020 0.359330 1.016053
H1    H     H_    0.179006 0.582115 0.664137 0.098034
H2    H     H_    0.387160 0.185826 0.250599 0.167331
H3    H     H_    0.485661 0.211734 0.135722 0.176488
H4    H     H_    0.369511 0.029320 0.079208 0.137725
H5    H     H_    0.257542 0.121717 0.069360 0.111588
H6    H     H_    0.351010 0.139498 0.940875 0.260643
H7    H     H_    0.233279 0.379105 0.714741 0.176876
H8    H     H_    0.259989 0.491246 0.852124 0.089093
H9    H     H_    0.195581 0.325265 0.013142 0.234535
H10   H     H_    0.104212 0.352475 0.867903 0.092069
H11   H     H_    0.180503 0.217454 0.867787 0.134202
H12   H     H_    0.823480 0.468860 0.326550 0.106288
H13   H     H_    0.710646 0.522431 0.905133 0.104904
H14   H     H_    0.696471 0.695391 0.897567 0.118321
H15   H     H_    0.710055 0.521723 0.151296 0.101415
H16   H     H_    0.830555 0.794810 0.077934 0.118434
H17   H     H_    0.854863 0.652089 0.171936 0.106154
H18   H     H_    0.826362 0.759124 0.393768 0.170531
H19   H     H_    0.933227 0.826304 0.308337 0.094902
H20   H     H_    0.811179 0.902821 0.298289 0.141059
H21   H     H_    0.829073 0.569734 0.756423 0.110042
H22   H     H_    0.980402 0.473629 0.214736 0.091539
H23   H     H_    0.558311 0.839529 0.780353 0.094271
H24   H     H_    0.017883 0.592020 0.774116 0.088541
H25   H     H_    0.088746 0.650492 0.126318 0.096339
H26   H     H_    0.178487 0.595283 0.016759 0.124660
H27   H     H_    0.328236 0.680351 0.169251 0.183469
H28   H     H_    0.237494 0.799537 0.119859 0.081606
H29   H     H_    0.242197 0.733320 0.291062 0.137907
H30   H     H_    0.754676 0.075216 0.442586 0.112474
H31   H     H_    0.712539 0.231787 0.462880 0.139356
H32   H     H_    0.762126 0.280047 0.219403 0.141928
H33   H     H_    0.868635 0.243288 0.347079 0.109867
H34   H     H_    0.625736 0.194706 0.033101 0.159016
H35   H     H_    0.820272 0.130200 0.221038 0.120476
H36   H     H_    0.577678 0.887989 0.312318 0.181861
H37   H     H_    0.372214 0.753623 0.935222 0.126719
H38   H     H_    0.369296 0.746508 0.750093 0.166708
H39   H     H_    0.193164 0.760845 0.824976 0.074347
H40   H     H_    0.229481 0.909560 0.903020 0.150323
H41   H     H_    0.227924 0.891060 0.717638 0.156719
H42   H     H_    0.702742 0.138671 0.909875 0.092687
H43   H     H_    0.658975 0.919912 0.971629 0.121189
H44   H     H_    0.695803 0.001007 0.127383 0.153524
H45   H     H_    0.560077 0.969211 0.076805 0.202988
H46   H     H_    0.637544 0.035469 0.724440 0.013734
N1    N     N_R   0.500660 0.500930 0.148010 -0.290865
N2    N     N_R   0.500660 0.500890 0.852110 -0.268172
O1    O     O_R   0.500000 0.319640 0.618810 -0.435210
O2    O     O_3   0.365737 0.341016 0.128665 -0.518230
O3    O     O_3   0.363525 0.343283 0.841436 -0.514044
O4    O     O_3   0.702094 0.718791 0.162500 -0.555468
O5    O     O_3   0.180636 0.500562 0.202250 -0.527955
O6    O     O_3   0.623859 0.126284 0.311986 -0.587589
O7    O     O_3   0.422410 0.916774 0.847176 -0.541076
O8    O     O_R   0.500010 0.319680 0.381230 -0.479038
O9    O     O_R   0.348990 0.499960 0.599490 -0.523150
O10   O     O_R   0.349000 0.500000 0.361910 -0.415149
O11   O     O_R   0.499990 0.680320 0.618770 -0.535821
O12   O     O_R   0.500000 0.680360 0.381190 -0.493015
O13   O     O_R   0.651000 0.500000 0.638090 -0.515305
O14   O     O_R   0.651010 0.500040 0.400510 -0.498921
O15   O     O_3   0.540658 0.119813 0.861070 -0.504576

loop_
_geom_bond_atom_site_label_1
_geom_bond_atom_site_label_2
_ccdc_geom_bond_type
C34   H12   S    
C30   H20   S    
C18   C21   A    
Cu2   O8    S    
C41   C42   A    
C27   O3    S    
C19   C20   A    
C24   H45   S    
C9    N1    A    
Cu2   O12   S    
C32   H28   S    
C14   H15   S    
C12   C23   A    
C37   H41   S    
C36   C37   S    
C42   O6    S    
Cu1   O13   S    
C38   C39   A    
C13   H13   S    
C22   O15   S    
C19   H22   S    
C33   O6    S    
C39   H24   S    
Cu1   O1    S    
C11   N2    A    
C33   H31   S    
C31   H26   S    
C20   O5    S    
C36   H38   S    
C16   C17   S    
C4    O10   A    
C8    C14   S    
C7    C40   S    
C29   H16   S    
C37   H40   S    
C15   O12   A    
C9    C10   A    
C25   H3    S    
C18   C20   A    
C16   O14   A    
C4    C18   S    
C22   H42   S    
C10   N2    A    
C25   O2    S    
C13   C14   S    
C1    O8    A    
C14   O4    S    
C28   H11   S    
C27   H7    S    
C32   H27   S    
C21   H1    S    
C29   H17   S    
C35   H32   S    
C22   H34   S    
C26   H5    S    
C32   H29   S    
C28   H10   S    
C13   H14   S    
C25   C26   S    
C7    H46   S    
C12   C21   A    
C35   H33   S    
C19   C23   A    
Cu1   Cu2   S    
Cu1   O9    S    
C29   C30   S    
C31   C32   S    
C38   H21   S    
C36   H37   S    
C23   C34   A    
C4    O9    A    
C8    N1    A    
C24   H44   S    
Cu2   N1    S    
C16   O13   A    
C1    C41   S    
C6    H23   S    
Cu2   O14   S    
C30   H18   S    
C7    O15   S    
C17   C34   A    
C3    C15   S    
C27   H8    S    
C40   C41   A    
Cu2   O10   S    
C3    C5    A    
C29   O4    S    
C28   H9    S    
C6    C7    S    
C26   H4    S    
Cu1   N2    S    
C6    O7    S    
C12   C39   A    
C26   H6    S    
C2    C3    A    
C11   C13   S    
C5    C6    S    
C10   O3    S    
C2    C42   A    
C8    C11   A    
C25   H2    S    
C35   H35   S    
C33   C35   S    
C36   O7    S    
C22   C24   S    
C17   C38   A    
C31   O5    S    
C24   H43   S    
Cu1   O11   S    
C2    H36   S    
C33   H30   S    
C31   H25   S    
C1    O1    A    
C5    C40   A    
C27   C28   S    
C37   H39   S    
C15   O11   A    
C30   H19   S    
C9    O2    S    
