data_mof_unit_65424.cif
_audit_creation_date              2013-03-05T16:39:00-0500
_audit_creation_method            fapswitch 2.2
_symmetry_space_group_name_H-M    P1
_symmetry_Int_Tables_number       1
_space_group_crystal_system       triclinic
_cell_length_a                    16.000296
_cell_length_b                    14.752625
_cell_length_c                    23.599443
_cell_angle_alpha                 90.000619
_cell_angle_beta                  90.025839
_cell_angle_gamma                 89.998063
_cell_volume                      5570.56220814

loop_
_atom_site_label
_atom_site_type_symbol
_atom_site_description
_atom_site_fract_x
_atom_site_fract_y
_atom_site_fract_z
_atom_type_partial_charge
O1    O     O_R   0.380310 0.575320 0.500010 -0.548185
O2    O     O_R   0.619690 0.424680 0.499990 -0.546276
O3    O     O_R   0.619690 0.575320 0.499990 -0.548108
O4    O     O_R   0.380310 0.424680 0.500010 -0.546187
C1    C     C_R   0.340914 0.500010 0.500107 0.835469
C2    C     C_R   0.659086 0.500007 0.499893 0.835404
O5    O     O_R   0.499980 0.575360 0.417880 -0.550597
O6    O     O_R   0.500020 0.424640 0.582120 -0.549483
O7    O     O_R   0.500020 0.575360 0.582120 -0.550551
O8    O     O_R   0.499980 0.424640 0.417880 -0.549544
C3    C     C_R   0.499855 0.500045 0.390684 0.896656
C4    C     C_R   0.500140 0.500046 0.609319 0.896196
Cu1   Cu    Cu3+1 0.500000 0.589220 0.500000 1.160587
Cu2   Cu    Cu3+1 0.500000 0.410780 0.500000 1.159199
C5    C     C_R   0.573693 0.503879 0.880743 0.634709
C6    C     C_R   0.426306 0.504176 0.119268 0.634686
N1    N     N_R   0.499642 0.498411 0.852234 -0.443810
N2    N     N_R   0.500338 0.498429 0.147777 -0.443809
C7    C     C_R   0.425173 0.490419 0.880296 0.647164
C8    C     C_R   0.574781 0.490153 0.119715 0.647173
C9    C     C_R   0.421890 0.497221 0.940160 -0.136213
C10   C     C_R   0.578083 0.496943 0.059851 -0.136229
C11   C     C_R   0.499140 0.499146 0.970032 -0.032667
C12   C     C_R   0.500840 0.499149 0.029979 -0.032674
C13   C     C_R   0.575036 0.501225 0.940001 -0.073005
C14   C     C_R   0.424953 0.501515 0.060010 -0.073003
C15   C     C_R   0.345778 0.502143 0.971521 0.311130
C16   C     C_R   0.654210 0.501587 0.028490 0.311152
C17   C     C_R   0.348971 0.503464 0.030692 -0.160171
C18   C     C_R   0.651023 0.502902 0.969319 -0.160161
O9    O     O_2   0.645929 0.512206 0.851647 -0.476394
O10   O     O_2   0.354097 0.512784 0.148364 -0.476398
O11   O     O_2   0.355697 0.473837 0.849867 -0.405282
O12   O     O_2   0.644204 0.473300 0.150141 -0.405286
H1    H     H_    0.291094 0.506510 0.054321 0.237226
H2    H     H_    0.708910 0.505732 0.945691 0.237224
C19   C     C_R   0.539543 0.571899 0.238346 0.300944
C20   C     C_R   0.460675 0.572043 0.761670 0.300918
C21   C     C_R   0.541313 0.570493 0.298051 0.171986
C22   C     C_R   0.458896 0.570649 0.701965 0.172064
C23   C     C_R   0.499756 0.500358 0.328062 -0.306106
C24   C     C_R   0.500230 0.500358 0.671947 -0.306180
C25   C     C_R   0.457938 0.431103 0.297615 0.268672
C26   C     C_R   0.541813 0.430934 0.702395 0.268742
C27   C     C_R   0.460681 0.431034 0.238516 -0.165002
C28   C     C_R   0.539073 0.430868 0.761493 -0.164969
H3    H     H_    0.429769 0.377439 0.215141 0.215175
H4    H     H_    0.569805 0.377142 0.784863 0.215134
C29   C     C_R   0.499903 0.500908 0.208746 0.123807
C30   C     C_R   0.500085 0.500894 0.791266 0.123812
C31   C     C_R   0.956055 0.583322 0.498347 0.225792
C32   C     C_R   0.043936 0.417065 0.501604 0.224749
C33   C     C_R   0.043936 0.583325 0.501622 0.225789
C34   C     C_R   0.956072 0.417062 0.498399 0.224727
C35   C     C_R   0.912671 0.500181 0.496778 -0.190134
C36   C     C_R   0.087329 0.500187 0.503209 -0.190151
C37   C     C_1   0.822925 0.500134 0.498003 0.191865
C38   C     C_1   0.177074 0.500143 0.501989 0.191869
C39   C     C_1   0.252012 0.500060 0.500977 -0.002154
C40   C     C_1   0.747988 0.500053 0.499019 -0.002184
C41   C     C_R   0.576565 0.951829 0.498443 0.292478
C42   C     C_R   0.423921 0.048110 0.493878 0.292013
C43   C     C_R   0.423426 0.951835 0.501544 0.292480
C44   C     C_R   0.576072 0.048103 0.506114 0.292000
C45   C     C_R   0.499996 0.903059 0.499996 -0.328051
C46   C     C_R   0.499997 0.096904 0.499998 -0.329348
C47   C     C_1   0.499997 0.802632 0.499999 0.482745
C48   C     C_1   0.499999 0.197356 0.499999 0.476728
N3    N     N_1   0.500000 0.276710 0.500000 -0.117484
N4    N     N_1   0.500000 0.723290 0.500000 -0.116407
S1    S     S_3+6 0.245006 0.514409 0.940356 0.140698
O13   O     O_2   0.220162 0.426539 0.912876 -0.136551
O14   O     O_2   0.180562 0.538205 0.984264 -0.216638
O15   O     O_3   0.246522 0.596888 0.891141 -0.384562
H5    H     H_    0.271672 0.649847 0.910514 0.364795
S2    S     S_3+6 0.755014 0.513518 0.059657 0.140690
O16   O     O_2   0.779619 0.425565 0.087131 -0.136579
O17   O     O_2   0.819522 0.537107 0.015749 -0.216627
O18   O     O_3   0.753723 0.595995 0.108877 -0.384564
H6    H     H_    0.728733 0.649043 0.089503 0.364820
N5    N     N_R   0.579006 0.644476 0.207719 0.169700
O19   O     O_R   0.654776 0.669502 0.220246 -0.199413
O20   O     O_R   0.540336 0.683936 0.165940 -0.306633
N6    N     N_R   0.421459 0.644779 0.792302 0.169690
O21   O     O_R   0.345775 0.670119 0.779775 -0.199390
O22   O     O_R   0.460260 0.684071 0.834086 -0.306629
N7    N     N_R   0.585435 0.640428 0.327960 0.182148
O23   O     O_R   0.648832 0.619939 0.360057 -0.276940
O24   O     O_R   0.564428 0.724986 0.321416 -0.231607
N8    N     N_R   0.414977 0.640748 0.672066 0.182166
O25   O     O_R   0.351449 0.620502 0.640029 -0.276522
O26   O     O_R   0.436286 0.725224 0.678577 -0.231785
N9    N     N_R   0.409029 0.362862 0.325702 0.167828
O27   O     O_R   0.353413 0.386291 0.363168 -0.304585
O28   O     O_R   0.409200 0.279968 0.306853 -0.260919
N10   N     N_R   0.590482 0.362489 0.674311 0.167799
O29   O     O_R   0.646340 0.385707 0.636958 -0.304107
O30   O     O_R   0.589821 0.279538 0.693059 -0.261010
N11   N     N_R   0.089104 0.667685 0.501016 0.172454
O31   O     O_R   0.147587 0.683312 0.538092 -0.257723
O32   O     O_R   0.072172 0.729070 0.463113 -0.228197
N12   N     N_R   0.910928 0.332699 0.499096 0.178783
O33   O     O_R   0.852517 0.316935 0.461995 -0.263313
O34   O     O_R   0.927849 0.271428 0.537074 -0.230428
N13   N     N_R   0.910878 0.667680 0.498935 0.172448
O35   O     O_R   0.852391 0.683282 0.461856 -0.257736
O36   O     O_R   0.927804 0.729089 0.536824 -0.228121
N14   N     N_R   0.089089 0.332704 0.500923 0.178817
O37   O     O_R   0.147499 0.316960 0.538029 -0.263337
O38   O     O_R   0.072177 0.271414 0.462955 -0.230405
S3    S     S_3+6 0.668833 0.108612 0.525148 0.130727
O39   O     O_2   0.709248 0.144279 0.472158 -0.185149
O40   O     O_2   0.647866 0.187186 0.563145 -0.227279
O41   O     O_3   0.736713 0.042008 0.560171 -0.412625
H7    H     H_    0.788263 0.078780 0.563733 0.411647
S4    S     S_3+6 0.328583 0.891218 0.514881 0.134694
O42   O     O_2   0.295509 0.855178 0.459669 -0.197598
O43   O     O_2   0.344540 0.812873 0.554172 -0.217234
O44   O     O_3   0.256121 0.957750 0.545413 -0.408212
H8    H     H_    0.204019 0.921489 0.544828 0.414053
S5    S     S_3+6 0.331160 0.108627 0.474841 0.130584
O45   O     O_2   0.290720 0.144266 0.527833 -0.185029
O46   O     O_2   0.352131 0.187223 0.436866 -0.227426
O47   O     O_3   0.263301 0.042037 0.439792 -0.412953
H9    H     H_    0.211770 0.078842 0.436181 0.411596
S6    S     S_3+6 0.671402 0.891209 0.485081 0.134603
O48   O     O_2   0.704510 0.855152 0.540277 -0.197196
O49   O     O_2   0.655417 0.812878 0.445784 -0.217672
O50   O     O_3   0.743847 0.957743 0.454540 -0.408357
H10   H     H_    0.795807 0.921225 0.454743 0.414049

loop_
_geom_bond_atom_site_label_1
_geom_bond_atom_site_label_2
_geom_bond_distance
_ccdc_geom_bond_type
C46   C48   1.481931 S    
N7    O23   1.301280 A    
C43   C45   1.421296 A    
S6    O48   1.503235 D    
C15   C17   1.397442 A    
S3    O39   1.503217 D    
S2    O18   1.682298 S    
C21   N7    1.435490 S    
O3    C2    1.277405 A    
N5    O19   1.301221 A    
C21   C23   1.419417 A    
C33   N11   1.439249 S    
O5    C3    1.283135 A    
N13   O36   1.301298 A    
N9    O27   1.301459 A    
O1    C1    1.277407 A    
C7    C9    1.417312 A    
C12   C14   1.406631 A    
C5    C13   1.399148 A    
Cu1   N4    1.977886 S    
N14   O37   1.301318 A    
O7    Cu1   1.948745 S    
S5    O47   1.681480 S    
C4    C24   1.477986 S    
C25   N9    1.437287 S    
C26   C28   1.395379 A    
C48   N3    1.170672 T    
C45   C47   1.481560 S    
N10   O30   1.301315 A    
O6    Cu2   1.948741 S    
C11   C12   1.414963 A    
C41   S6    1.789443 S    
C31   C35   1.409847 A    
O3    Cu1   1.926016 S    
C31   N13   1.439251 S    
C8    O12   1.345563 S    
C22   C24   1.419471 A    
C9    C15   1.427209 A    
N9    O28   1.301295 A    
C10   C16   1.427197 A    
Cu1   Cu2   2.632457 S    
C23   C25   1.416842 A    
C19   N5    1.438059 S    
O2    C2    1.277618 A    
C24   C26   1.416861 A    
N5    O20   1.301256 A    
C32   C34   1.407845 A    
O41   H7    0.990773 S    
C27   H3    1.083445 S    
C6    C14   1.399159 A    
C28   H4    1.083463 S    
O15   H5    0.990569 S    
C42   C46   1.421475 A    
C2    C40   1.422614 S    
S2    O16   1.502915 D    
C7    O11   1.345564 S    
S1    O14   1.503703 D    
C1    C39   1.422614 S    
C37   C40   1.199275 T    
S6    O50   1.681477 S    
C38   C39   1.199275 T    
C31   C33   1.408213 A    
C44   C46   1.421470 A    
C41   C44   1.431802 A    
C42   C43   1.431814 A    
C26   N10   1.437242 S    
C19   C29   1.409512 A    
N8    O26   1.301137 A    
N11   O31   1.301399 A    
C27   C29   1.396586 A    
O6    C4    1.284336 A    
N10   O29   1.301490 A    
S3    O40   1.503491 D    
N6    O21   1.301245 A    
N12   O34   1.301310 A    
C25   C27   1.395409 A    
S5    O45   1.503237 D    
S4    O43   1.503536 D    
C43   S4    1.789454 S    
N11   O32   1.301297 A    
C8    C10   1.417312 A    
C35   C37   1.436259 S    
O8    Cu2   1.948745 S    
Cu2   N3    1.977886 S    
C10   C12   1.422926 A    
O1    Cu1   1.926031 S    
C16   S2    1.781110 S    
C15   S1    1.781118 S    
O50   H10   0.990655 S    
C33   C36   1.409845 A    
C13   C18   1.398854 A    
C5    N1    1.364646 A    
C17   H1    1.082128 S    
C34   C35   1.409698 A    
S6    O49   1.503541 D    
C20   N6    1.438078 S    
C34   N12   1.439123 S    
S2    O17   1.503702 D    
O4    C1    1.277615 A    
C44   S3    1.789130 S    
N1    C30   1.439294 S    
S1    O15   1.682311 S    
O44   H8    0.990625 S    
N14   O38   1.301310 A    
C5    O9    1.350257 S    
C20   C30   1.409518 A    
C6    O10   1.350248 S    
N13   O35   1.301402 A    
C28   C30   1.396574 A    
S4    O44   1.681512 S    
C18   H2    1.082131 S    
C47   N4    1.170498 T    
C9    C11   1.422938 A    
S1    O13   1.502926 D    
C19   C21   1.409432 A    
C20   C22   1.409443 A    
N8    O25   1.301299 A    
C16   C18   1.397441 A    
N1    C7    1.368555 A    
C36   C38   1.436260 S    
S4    O42   1.503268 D    
C3    C23   1.477852 S    
S3    O41   1.681469 S    
N2    C8    1.368550 A    
C11   C13   1.406641 A    
O4    Cu2   1.926018 S    
N12   O33   1.301316 A    
O2    Cu2   1.926030 S    
O7    C4    1.283179 A    
S5    O46   1.503489 D    
O8    C3    1.284303 A    
O18   H6    0.990548 S    
C41   C45   1.421290 A    
O5    Cu1   1.948741 S    
C32   N14   1.439125 S    
C14   C17   1.398854 A    
C6    N2    1.364642 A    
N7    O24   1.301118 A    
N6    O22   1.301252 A    
C22   N8    1.435506 S    
C42   S5    1.789151 S    
C32   C36   1.409699 A    
N2    C29   1.439321 S    
O47   H9    0.990869 S    
