data_mof_unit_49940.cif
_audit_creation_date              2012-10-26T21:00:41-0400
_audit_creation_method            fapswitch 2.2
_symmetry_space_group_name_H-M    P1
_symmetry_Int_Tables_number       1
_space_group_crystal_system       triclinic
_cell_length_a                    10.920058
_cell_length_b                    9.546366
_cell_length_c                    10.772112
_cell_angle_alpha                 89.961268
_cell_angle_beta                  90.375647
_cell_angle_gamma                 89.993132
_cell_volume                      1122.93456347

loop_
_atom_site_label
_atom_site_type_symbol
_atom_type_description
_atom_site_fract_x
_atom_site_fract_y
_atom_site_fract_z
_atom_type_partial_charge
C1    C     C_R   0.262214 0.499124 0.504061 0.531158
C2    C     C_R   0.495341 0.500008 0.737349 0.539174
C3    C     C_R   0.304436 0.655604 0.127959 -0.118518
C4    C     C_R   0.304249 0.654931 0.868962 -0.115683
C5    C     C_R   0.216251 0.731532 0.062268 -0.131401
C6    C     C_R   0.216134 0.731160 0.933157 -0.131982
C7    C     C_R   0.396389 0.579630 0.933552 0.023540
C8    C     C_R   0.396448 0.579873 0.064856 0.023448
C9    C     C_R   0.486159 0.500037 0.128828 0.000036
C10   C     C_R   0.486130 0.499764 0.870992 0.000381
C11   C     C_R   0.569389 0.416759 0.064551 -0.161256
C12   C     C_R   0.737806 0.499129 0.495916 0.547763
C13   C     C_R   0.569375 0.416640 0.936594 -0.161062
C14   C     C_R   0.063665 0.365999 0.509272 -0.032401
C15   C     C_R   0.936446 0.366054 0.490710 -0.034781
C16   C     C_R   0.871906 0.494935 0.492760 -0.008027
C17   C     C_R   0.128181 0.494900 0.507259 -0.008780
C18   C     C_R   0.124670 0.230874 0.539202 0.068181
C19   C     C_R   0.142718 0.129359 0.446894 -0.070153
C20   C     C_R   0.189355 0.997934 0.478661 -0.112098
C21   C     C_R   0.220776 0.968083 0.601959 -0.102441
C22   C     C_R   0.206011 0.069902 0.693667 -0.122087
C23   C     C_R   0.936807 0.620905 0.498234 -0.161676
C24   C     C_R   0.157673 0.200941 0.662645 -0.075548
C25   C     C_R   0.875442 0.231146 0.460428 0.068861
C26   C     C_R   0.857365 0.129190 0.552440 -0.071815
C27   C     C_R   0.810465 0.998071 0.520317 -0.114131
C28   C     C_R   0.778821 0.968964 0.396977 -0.100385
C29   C     C_R   0.793563 0.071313 0.305591 -0.122197
C30   C     C_R   0.842204 0.202012 0.336949 -0.077153
C31   C     C_R   0.063300 0.620885 0.501729 -0.167823
C32   C     C_R   0.468455 0.074260 0.395738 0.027754
C33   C     C_R   0.531412 0.074106 0.604301 0.028450
C34   C     C_R   0.468560 0.925943 0.395696 -0.001338
C35   C     C_R   0.531259 0.925787 0.604354 -0.000850
C36   C     C_R   0.495181 0.500103 0.262599 0.538961
Cu1   Cu    Cu3+1 0.500000 0.640660 0.500000 0.895553
Cu2   Cu    Cu3+1 0.500000 0.359340 0.500000 0.951331
H1    H     H_    0.636804 0.354107 0.113862 0.118535
H2    H     H_    0.558189 0.128779 0.687922 0.108266
H3    H     H_    0.441873 0.871323 0.312034 0.111063
H4    H     H_    0.557785 0.871022 0.688070 0.114214
H5    H     H_    0.118228 0.151177 0.351243 0.096868
H6    H     H_    0.201906 0.919648 0.407280 0.097688
H7    H     H_    0.257511 0.866473 0.626398 0.131410
H8    H     H_    0.231012 0.046828 0.788898 0.101707
H9    H     H_    0.144164 0.278348 0.734746 0.096711
H10   H     H_    0.881982 0.150445 0.648131 0.094163
H11   H     H_    0.797875 0.919447 0.591460 0.102307
H12   H     H_    0.636800 0.353948 0.888344 0.116043
H13   H     H_    0.741957 0.867500 0.372243 0.139863
H14   H     H_    0.768333 0.048929 0.210327 0.095527
H15   H     H_    0.855705 0.279791 0.265077 0.089945
H16   H     H_    0.297752 0.654980 0.227997 0.133611
H17   H     H_    0.297383 0.653568 0.768890 0.131232
H18   H     H_    0.146578 0.789175 0.111821 0.106330
H19   H     H_    0.146362 0.788464 0.882442 0.106780
H20   H     H_    0.889921 0.720227 0.498227 0.134301
H21   H     H_    0.110198 0.720179 0.501597 0.132538
H22   H     H_    0.441596 0.129044 0.312136 0.112146
N1    N     N_R   0.500000 0.852070 0.500000 -0.234215
N2    N     N_R   0.500000 0.147940 0.500000 -0.210603
O1    O     O_R   0.319640 0.618740 0.499990 -0.529107
O2    O     O_R   0.680360 0.618740 0.500010 -0.510371
O3    O     O_R   0.319620 0.381170 0.499990 -0.484861
O4    O     O_R   0.680380 0.381170 0.500010 -0.486278
O5    O     O_R   0.500000 0.618810 0.319650 -0.517408
O6    O     O_R   0.500000 0.618810 0.680350 -0.517498
O7    O     O_R   0.499970 0.381240 0.319640 -0.511162
O8    O     O_R   0.500030 0.381240 0.680360 -0.510751

loop_
_geom_bond_atom_site_label_1
_geom_bond_atom_site_label_2
_ccdc_geom_bond_type
C8    C9    A    
C23   H20   S    
C1    O3    A    
Cu2   O8    S    
C9    C36   S    
C29   C30   A    
C7    C10   A    
C11   C13   A    
C14   C18   S    
C5    H18   S    
Cu1   N1    S    
C19   C20   A    
C14   C17   A    
Cu2   O3    S    
C26   H10   S    
C3    C5    A    
Cu2   O7    S    
C32   N2    A    
C7    C8    A    
C35   N1    A    
C2    O8    A    
C21   C22   A    
C20   C21   A    
C11   H1    S    
C9    C11   A    
C6    H19   S    
C26   C27   A    
Cu1   Cu2   S    
C34   H3    S    
C12   O4    A    
C3    H16   S    
C4    C7    A    
C18   C24   A    
C1    O1    A    
C4    C6    A    
C28   C29   A    
C20   H6    S    
C17   C31   A    
C19   H5    S    
C3    C8    A    
C16   C23   A    
C2    O6    A    
C22   H8    S    
C4    H17   S    
C5    C6    A    
C12   O2    A    
C28   H13   S    
C22   C24   A    
C36   O5    A    
C33   H2    S    
C15   C25   S    
C32   H22   S    
C27   H11   S    
C13   H12   S    
C2    C10   S    
Cu1   O6    S    
Cu1   O5    S    
C25   C30   A    
Cu1   O2    S    
C36   O7    A    
C30   H15   S    
C18   C19   A    
C31   H21   S    
C27   C28   A    
C35   H4    S    
Cu2   O4    S    
C14   C15   A    
C33   N2    A    
C12   C16   S    
C33   C35   A    
C25   C26   A    
Cu1   O1    S    
C24   H9    S    
C1    C17   S    
C10   C13   A    
C34   N1    A    
C15   C16   A    
C32   C34   A    
C21   H7    S    
Cu2   N2    S    
C29   H14   S    
C23   C31   A    
