data_mof_unit_58777.cif
_audit_creation_date              2012-12-10T21:29:36-0500
_audit_creation_method            fapswitch 2.2
_symmetry_space_group_name_H-M    P1
_symmetry_Int_Tables_number       1
_space_group_crystal_system       triclinic
_cell_length_a                    10.70677
_cell_length_b                    16.170698
_cell_length_c                    16.722818
_cell_angle_alpha                 86.158099
_cell_angle_beta                  91.358835
_cell_angle_gamma                 89.421019
_cell_volume                      2887.80348247

loop_
_atom_site_label
_atom_site_type_symbol
_atom_type_description
_atom_site_fract_x
_atom_site_fract_y
_atom_site_fract_z
_atom_type_partial_charge
C1    C     C_R   0.499686 0.488041 0.653650 0.942178
C2    C     C_R   0.421138 0.532559 0.095402 0.135263
C3    C     C_R   0.501564 0.401131 0.870747 0.298330
C4    C     C_R   0.461159 0.603928 0.132510 0.312546
C5    C     C_R   0.499859 0.403073 0.786142 0.365103
C6    C     C_R   0.488241 0.598295 0.215628 0.411527
C7    C     C_R   0.438201 0.767770 0.460375 0.388905
C8    C     C_R   0.577009 0.233743 0.527716 0.314619
C9    C     C_R   0.432499 0.853218 0.468268 0.280055
C10   C     C_R   0.581625 0.147473 0.519164 0.297891
C11   C     C_R   0.517577 0.890274 0.520608 0.048212
C12   C     C_R   0.495766 0.512319 0.346609 0.955625
C13   C     C_R   0.484015 0.110401 0.477331 0.139322
C14   C     C_R   0.601018 0.838217 0.567536 0.210560
C15   C     C_R   0.389475 0.161268 0.439714 0.161060
C16   C     C_R   0.741042 0.498203 0.499986 0.947929
C17   C     C_R   0.261903 0.500900 0.512342 0.917184
C18   C     C_R   0.594861 0.750128 0.563602 0.356533
C19   C     C_R   0.394620 0.249199 0.443957 0.375538
C20   C     C_R   0.870294 0.391480 0.626703 0.123739
C21   C     C_R   0.102142 0.658972 0.511056 0.146371
C22   C     C_R   0.927438 0.320930 0.666023 0.140271
C23   C     C_R   0.507764 0.480173 0.741580 -0.195581
C24   C     C_R   0.046173 0.721400 0.459373 0.153904
C25   C     C_R   0.056091 0.309074 0.660500 0.019396
C26   C     C_R   0.949409 0.701368 0.406015 0.022713
C27   C     C_R   0.127764 0.371260 0.620850 0.034440
C28   C     C_R   0.896517 0.621519 0.413539 0.059216
C29   C     C_R   0.067679 0.436232 0.571780 0.047085
C30   C     C_R   0.944132 0.562722 0.473833 0.037393
C31   C     C_R   0.935990 0.438944 0.567391 -0.029878
C32   C     C_R   0.061506 0.576101 0.506967 -0.060474
C33   C     C_R   0.131110 0.505138 0.534998 -0.177456
C34   C     C_R   0.470517 0.522173 0.260085 -0.194184
C35   C     C_R   0.876088 0.495613 0.509076 -0.132337
C36   C     C_R   0.529143 0.552589 0.780995 -0.363686
C37   C     C_R   0.418950 0.454735 0.223035 -0.325000
C38   C     C_R   0.534210 0.551010 0.863616 0.074891
C39   C     C_R   0.392881 0.459521 0.141244 0.081039
C40   C     C_R   0.512592 0.476371 0.908760 0.165497
H1    H     H_    0.399400 0.397545 0.257715 0.214196
H2    H     H_    0.217380 0.158849 0.400789 0.348596
H3    H     H_    0.685389 0.722828 0.663868 0.319536
H4    H     H_    0.283922 0.275569 0.352071 0.324608
H5    H     H_    0.777520 0.482799 0.676953 0.170824
H6    H     H_    0.728580 0.389145 0.707667 0.224962
H7    H     H_    0.201218 0.632411 0.617275 0.189098
H8    H     H_    0.263353 0.706436 0.554558 0.216810
H9    H     H_    0.892582 0.263149 0.774292 0.198954
H10   H     H_    0.865038 0.205314 0.695034 0.233604
H11   H     H_    0.011017 0.841827 0.476257 0.205589
H12   H     H_    0.542282 0.611635 0.747892 0.217491
H13   H     H_    0.116262 0.825495 0.405002 0.270314
H14   H     H_    0.268419 0.381371 0.701204 0.198666
H15   H     H_    0.299789 0.317814 0.626741 0.232969
H16   H     H_    0.726693 0.641352 0.359388 0.251582
H17   H     H_    0.836285 0.602387 0.300682 0.191549
H18   H     H_    0.253582 0.406658 0.080356 0.199325
H19   H     H_    0.330813 0.339428 0.144851 0.194945
H20   H     H_    0.648514 0.646659 0.883061 0.201273
H21   H     H_    0.494395 0.670385 0.882821 0.193699
H22   H     H_    0.499350 0.332543 0.971927 0.368091
H23   H     H_    0.806624 0.774603 0.360367 0.205174
H24   H     H_    0.440329 0.676724 0.035142 0.359365
H25   H     H_    0.489063 0.282162 0.784252 0.389991
H26   H     H_    0.540675 0.714167 0.216290 0.393295
H27   H     H_    0.632294 0.316943 0.594130 0.410573
H28   H     H_    0.360871 0.676979 0.409733 0.386779
H29   H     H_    0.907001 0.742460 0.291314 0.207571
H30   H     H_    0.174894 0.257760 0.747263 0.204445
H31   H     H_    0.165757 0.206120 0.662100 0.201949
H32   H     H_    0.744313 0.132643 0.575223 0.383753
H33   H     H_    0.300312 0.934824 0.462294 0.354890
H34   H     H_    0.762987 0.838648 0.622135 0.343067
N1    N     N_2   0.500677 0.476517 0.992315 -0.135843
N2    N     N_3   0.179994 0.682942 0.576790 -0.427074
N3    N     N_3   0.855544 0.264564 0.715787 -0.412741
N4    N     N_3   0.087391 0.805173 0.462205 -0.408471
N5    N     N_3   0.258072 0.373897 0.639857 -0.414741
N6    N     N_3   0.800307 0.598642 0.358342 -0.455549
N7    N     N_3   0.342652 0.389603 0.103039 -0.417774
N8    N     N_3   0.561467 0.625518 0.902161 -0.411568
N9    N     N_2   0.426701 0.531297 0.011697 -0.147886
N10   N     N_R   0.515300 0.716920 0.509720 -0.212595
N11   N     N_R   0.484700 0.283080 0.490280 -0.183172
N12   N     N_2   0.523574 0.978364 0.527817 -0.013404
N13   N     N_2   0.479632 0.022653 0.469240 -0.046436
N14   N     N_3   0.900690 0.764054 0.348609 -0.452177
N15   N     N_3   0.114160 0.238052 0.702738 -0.462074
N16   N     N_3   0.757234 0.424369 0.656990 -0.440802
O1    O     O_R   0.494530 0.422540 0.612660 -0.594782
O2    O     O_3   0.340122 0.897766 0.425192 -0.659637
O3    O     O_3   0.688466 0.875376 0.614938 -0.695474
O4    O     O_3   0.292969 0.123067 0.400860 -0.712538
O5    O     O_3   0.666667 0.696325 0.613347 -0.723482
O6    O     O_3   0.312870 0.302277 0.400640 -0.720517
O7    O     O_3   0.488469 0.325729 0.913842 -0.769519
O8    O     O_3   0.481161 0.678033 0.088758 -0.759797
O9    O     O_3   0.491324 0.331292 0.745776 -0.774203
O10   O     O_3   0.533799 0.665077 0.254467 -0.746213
O11   O     O_3   0.668549 0.267132 0.573541 -0.751594
O12   O     O_R   0.505470 0.577460 0.387340 -0.595896
O13   O     O_3   0.357563 0.737433 0.404447 -0.692500
O14   O     O_R   0.504350 0.561840 0.618900 -0.594246
O15   O     O_R   0.495650 0.438160 0.381100 -0.588164
O16   O     O_R   0.678310 0.430340 0.496890 -0.600318
O17   O     O_R   0.321690 0.569660 0.503110 -0.682136
O18   O     O_R   0.688140 0.569650 0.503130 -0.563718
O19   O     O_R   0.311860 0.430350 0.496870 -0.533769
O20   O     O_3   0.679785 0.098263 0.550758 -0.686374
Zn1   Zn    Zn3+2 0.493440 0.406980 0.495830 1.014833
Zn2   Zn    Zn3+2 0.506560 0.593020 0.504170 0.979077

loop_
_geom_bond_atom_site_label_1
_geom_bond_atom_site_label_2
_ccdc_geom_bond_type
C38   C40   A    
C4    O8    S    
H23   N14   S    
C27   C29   A    
C34   C37   A    
O17   Zn2   S    
C14   C18   A    
O12   Zn2   S    
H17   N6    S    
H28   O13   S    
C15   O4    S    
C15   C19   A    
C21   N2    S    
N10   Zn2   S    
C30   C35   A    
C24   C26   A    
H7    N2    S    
C27   N5    S    
H21   N8    S    
O19   Zn1   S    
C16   C35   S    
C12   O15   A    
C11   C14   A    
C11   N12   S    
O1    Zn1   S    
C29   C33   A    
C8    N11   A    
H26   O10   S    
H8    N2    S    
H20   N8    S    
C2    C39   A    
C5    O9    S    
C22   C25   A    
H31   N15   S    
H3    O5    S    
C8    O11   S    
C14   O3    S    
C36   H12   S    
C16   O16   A    
H24   O8    S    
C7    N10   A    
O15   Zn1   S    
C1    O1    A    
C7    O13   S    
C38   N8    S    
C18   O5    S    
H34   O3    S    
C2    N9    S    
C17   C33   S    
C19   N11   A    
C9    O2    S    
O16   Zn1   S    
C21   C32   A    
H32   O20   S    
H25   O9    S    
C4    C6    A    
H18   N7    S    
O14   Zn2   S    
N12   N13   D    
C3    C5    A    
C20   N16   S    
O18   Zn2   S    
C6    O10   S    
C2    C4    A    
C12   O12   A    
H4    O6    S    
H22   O7    S    
H15   N5    S    
C3    O7    S    
C18   N10   A    
C5    C23   A    
C13   N13   S    
H5    N16   S    
C9    C11   A    
C1    O14   A    
C39   N7    S    
H29   N14   S    
C24   N4    S    
C20   C22   A    
C3    C40   A    
C1    C23   S    
C13   C15   A    
C31   C35   A    
H30   N15   S    
C12   C34   S    
H10   N3    S    
H27   O11   S    
H14   N5    S    
C7    C9    A    
H2    O4    S    
C25   N15   S    
C8    C10   A    
H19   N7    S    
C22   N3    S    
N11   Zn1   S    
C10   C13   A    
C17   O19   A    
H33   O2    S    
H6    N16   S    
C25   C27   A    
C26   C28   A    
H16   N6    S    
C40   N1    S    
C32   C33   A    
C17   O17   A    
H13   N4    S    
H11   N4    S    
C28   C30   A    
C37   C39   A    
C30   C32   A    
N1    N9    D    
C36   C38   A    
H9    N3    S    
C10   O20   S    
C37   H1    S    
C28   N6    S    
C16   O18   A    
C26   N14   S    
C6    C34   A    
C29   C31   A    
C23   C36   A    
C21   C24   A    
C19   O6    S    
C20   C31   A    
