data_mof_unit_29223.cif
_audit_creation_date              2012-12-10T17:49:38-0500
_audit_creation_method            fapswitch 2.2
_symmetry_space_group_name_H-M    P1
_symmetry_Int_Tables_number       1
_space_group_crystal_system       triclinic
_cell_length_a                    10.508718
_cell_length_b                    10.696449
_cell_length_c                    9.993798
_cell_angle_alpha                 91.829151
_cell_angle_beta                  88.329255
_cell_angle_gamma                 93.753464
_cell_volume                      1119.96903802

loop_
_atom_site_label
_atom_site_type_symbol
_atom_type_description
_atom_site_fract_x
_atom_site_fract_y
_atom_site_fract_z
_atom_type_partial_charge
C1    C     C_R   0.513612 0.262087 0.498016 0.825614
C2    C     C_3   0.963573 0.615796 0.459420 -0.229098
C3    C     C_3   0.045042 0.525786 0.376049 0.010643
C4    C     C_3   0.122745 0.505265 0.500217 -0.004630
C5    C     C_R   0.624924 0.135677 0.721261 -0.256603
C6    C     C_R   0.616398 0.089706 0.850881 -0.031590
C7    C     C_R   0.545130 0.974583 0.872222 0.005044
C8    C     C_R   0.499543 0.903430 0.760442 -0.174027
C9    C     C_R   0.517811 0.947151 0.628652 0.043821
C10   C     C_R   0.561501 0.071694 0.614379 0.098077
C11   C     C_R   0.533676 0.130558 0.495354 -0.090828
C12   C     C_R   0.257885 0.502326 0.500888 0.884370
C13   C     C_R   0.498409 0.060576 0.381192 -0.213506
C14   C     C_R   0.480286 0.933183 0.387486 -0.178129
C15   C     C_R   0.490616 0.874806 0.509604 -0.100181
C16   C     C_R   0.360758 0.311821 0.142638 -0.238338
C17   C     C_R   0.316099 0.201171 0.078286 -0.014064
C18   C     C_R   0.325890 0.192355 0.939535 -0.187330
C19   C     C_R   0.360936 0.299632 0.867137 -0.031089
C20   C     C_R   0.431152 0.404021 0.929082 0.149189
C21   C     C_R   0.431228 0.406322 0.072993 0.177289
C22   C     C_R   0.571169 0.587934 0.069035 0.078326
C23   C     C_R   0.493812 0.740076 0.503091 0.923828
C24   C     C_R   0.567158 0.588417 0.927197 -0.167144
C25   C     C_R   0.741996 0.500129 0.498721 0.895742
C26   C     C_3   0.033703 0.391568 0.537287 -0.174288
C27   C     C_3   0.955134 0.412031 0.412210 -0.283654
C28   C     C_3   0.876627 0.501548 0.497347 -0.019698
C29   C     C_3   0.952129 0.480910 0.622919 -0.140691
C30   C     C_3   0.041955 0.593837 0.583624 -0.002955
H1    H     H_    0.337903 0.322483 0.246770 0.183882
N1    N     N_R   0.498800 0.498800 0.142780 -0.111669
N2    N     N_R   0.498760 0.498720 0.857170 -0.116800
O1    O     O_R   0.500000 0.316780 0.614690 -0.657662
O2    O     O_R   0.499990 0.316750 0.385360 -0.633978
O3    O     O_R   0.313960 0.499980 0.614650 -0.556791
O4    O     O_R   0.313940 0.499960 0.385310 -0.652526
O5    O     O_R   0.500010 0.683250 0.614640 -0.628991
O6    O     O_R   0.500000 0.683220 0.385310 -0.563298
O7    O     O_R   0.686060 0.500040 0.614690 -0.658065
O8    O     O_R   0.686040 0.500020 0.385350 -0.548603
Zn1   Zn    Zn3+2 0.500010 0.500020 0.653130 0.971340
Zn2   Zn    Zn3+2 0.499990 0.499980 0.346870 1.019206
H2    H     H_    0.915294 0.338276 0.341666 0.164641
C31   C     C_2   0.517969 0.924787 0.007557 0.367434
H3    H     H_    0.577548 0.953265 0.090865 0.115927
O9    O     O_2   0.428232 0.848598 0.027472 -0.528959
H4    H     H_    0.443265 0.817662 0.779540 0.249691
H5    H     H_    0.455607 0.880526 0.296645 0.217621
C32   C     C_2   0.661057 0.686258 0.127638 0.448026
H6    H     H_    0.698338 0.762711 0.066097 0.010507
O10   O     O_2   0.702519 0.681780 0.239157 -0.544862
C33   C     C_2   0.248875 0.100526 0.156601 0.426733
H7    H     H_    0.238084 0.111724 0.264616 0.033986
O11   O     O_2   0.204370 0.004366 0.101944 -0.491703
H8    H     H_    0.280464 0.110875 0.888432 0.185352
C34   C     C_2   0.265010 0.315693 0.768491 0.513174
H9    H     H_    0.264234 0.260565 0.675419 0.015592
O12   O     O_2   0.176842 0.381343 0.797655 -0.585965
H10   H     H_    0.622494 0.659372 0.871551 0.127967
H11   H     H_    0.063547 0.299166 0.567246 0.149456
H12   H     H_    0.910895 0.462339 0.724501 0.160830
C35   C     C_2   0.085350 0.697005 0.679976 0.457494
H13   H     H_    0.014970 0.747616 0.737277 0.053675
O13   O     O_2   0.198567 0.725277 0.694164 -0.547442
H14   H     H_    0.930910 0.706542 0.427236 0.179581
C36   C     C_2   0.094954 0.550838 0.236853 0.477060
H15   H     H_    0.084162 0.478411 0.158766 0.056246
O14   O     O_2   0.150722 0.651371 0.211684 -0.496449
H16   H     H_    0.481301 0.104290 0.287936 0.203278
H17   H     H_    0.676987 0.225012 0.704874 0.156795
C37   C     C_2   0.675606 0.171604 0.958236 0.353661
H18   H     H_    0.750246 0.242203 0.931647 0.078434
O15   O     O_2   0.639118 0.166934 0.074981 -0.607926

loop_
_geom_bond_atom_site_label_1
_geom_bond_atom_site_label_2
_ccdc_geom_bond_type
C35   O13   D    
C16   C21   A    
O3    Zn1   S    
C19   C20   A    
O1    Zn1   S    
C7    C8    A    
C33   H7    S    
C19   C34   S    
C25   C28   S    
C6    C37   S    
C26   C27   S    
C22   N1    A    
N2    Zn1   S    
C7    C31   S    
C28   C29   S    
C26   H11   S    
O5    Zn1   S    
C25   O7    A    
C5    C6    A    
C34   O12   D    
C14   H5    S    
C13   H16   S    
C18   C19   A    
C31   O9    D    
C12   O4    A    
C27   H2    S    
C8    C9    A    
C1    C11   S    
C32   O10   D    
C12   O3    A    
O2    Zn2   S    
C9    C10   A    
C18   H8    S    
C22   C32   S    
C15   C23   S    
C13   C14   A    
O8    Zn2   S    
C1    O1    A    
C32   H6    S    
C33   O11   D    
C21   N1    A    
C36   H15   S    
C37   O15   D    
C25   O8    A    
C16   C17   A    
O6    Zn2   S    
C31   H3    S    
C16   H1    S    
C36   O14   D    
O4    Zn2   S    
C8    H4    S    
C29   C30   S    
C24   H10   S    
C17   C18   A    
C20   N2    A    
C22   C24   A    
C4    C12   S    
C3    C4    S    
C17   C33   S    
C1    O2    A    
C29   H12   S    
C3    C36   S    
C37   H18   S    
C2    H14   S    
C4    C26   S    
C6    C7    A    
C23   O5    A    
C24   N2    A    
C2    C30   S    
C3    C27   S    
C2    C3    S    
C9    C15   A    
C5    C10   A    
C5    H17   S    
C11   C13   A    
C34   H9    S    
C23   O6    A    
O7    Zn1   S    
N1    Zn2   S    
C10   C11   A    
C35   H13   S    
C20   C21   A    
C26   C29   S    
C27   C28   S    
C14   C15   A    
C2    C28   S    
C30   C35   S    
C4    C30   S    
