data_mof_unit_48773.cif
_audit_creation_date              2012-12-11T15:13:51-0500
_audit_creation_method            fapswitch 2.2
_symmetry_space_group_name_H-M    P1
_symmetry_Int_Tables_number       1
_space_group_crystal_system       triclinic
_cell_length_a                    6.94473
_cell_length_b                    13.47534
_cell_length_c                    20.124689
_cell_angle_alpha                 104.133441
_cell_angle_beta                  90.323281
_cell_angle_gamma                 90.325029
_cell_volume                      1826.23458427

loop_
_atom_site_label
_atom_site_type_symbol
_atom_type_description
_atom_site_fract_x
_atom_site_fract_y
_atom_site_fract_z
_atom_type_partial_charge
O1    O     O_R   0.506780 0.600060 0.449950 -0.539767
O2    O     O_R   0.179840 0.597110 0.589410 -0.543425
O3    O     O_R   0.004570 0.399940 0.550050 -0.538229
C1    C     C_R   0.348745 0.618985 0.616918 0.677451
O4    O     O_R   0.177380 0.612160 0.452890 -0.542409
O5    O     O_R   0.002100 0.415100 0.412560 -0.539994
C2    C     C_R   0.345932 0.638885 0.436229 0.692852
O6    O     O_R   0.509250 0.584900 0.587440 -0.540610
O7    O     O_3   0.337570 0.435330 0.486930 -0.367653
V1    V     V_3+5 0.064650 0.512000 0.502430 1.410237
O8    O     O_R   0.672090 0.402890 0.410590 -0.541979
C3    C     C_R   0.840141 0.381833 0.382849 0.693195
O9    O     O_R   0.674540 0.387840 0.547110 -0.540311
C4    C     C_R   0.843377 0.361024 0.563675 0.697090
V2    V     V_3+5 0.564040 0.488000 0.497570 1.413889
O10   O     O_3   0.840990 0.564670 0.513070 -0.370841
C5    C     C_R   0.874298 0.106785 0.607937 -0.162043
H1    H     H_    0.868197 0.156317 0.514399 0.100731
H2    H     H_    0.890140 0.980791 0.690370 0.117474
H3    H     H_    0.884331 0.026799 0.581122 0.111787
C6    C     C_R   0.852243 0.283542 0.603178 -0.030787
C7    C     C_R   0.847443 0.319443 0.933016 -0.169677
C8    C     C_R   0.838236 0.396244 0.898010 -0.129032
C9    C     C_R   0.841461 0.372072 0.826617 -0.159252
C10   C     C_R   0.854167 0.269107 0.788051 0.080001
C11   C     C_R   0.863759 0.190689 0.824406 0.068723
C12   C     C_R   0.857609 0.241323 0.714801 0.072291
C13   C     C_R   0.870679 0.136186 0.679843 0.145789
C14   C     C_R   0.880107 0.061012 0.716706 -0.216045
C15   C     C_R   0.876694 0.087606 0.787766 -0.205231
C16   C     C_R   0.848555 0.314087 0.674744 -0.218034
C17   C     C_R   0.865123 0.180123 0.569848 -0.176104
C18   C     C_R   0.860169 0.217072 0.896982 -0.078823
H4    H     H_    0.838675 0.395083 0.697246 0.090334
H5    H     H_    0.844571 0.339827 0.988533 0.136679
H6    H     H_    0.833741 0.435967 0.803418 0.101899
H7    H     H_    0.828404 0.475381 0.926458 0.118328
H8    H     H_    0.884314 0.026227 0.813776 0.115606
C19   C     C_3   0.691142 0.195573 0.236913 -0.158679
C20   C     C_3   0.833067 0.194527 0.296613 -0.118860
H9    H     H_    0.814193 0.149275 0.335437 0.106455
H10   H     H_    0.555932 0.149966 0.225949 0.119588
C21   C     C_3   0.848322 0.312121 0.312140 -0.064555
C22   C     C_3   0.704975 0.314071 0.253334 -0.205406
C23   C     C_3   0.878028 0.304723 0.204686 0.457720
C24   C     C_3   0.021901 0.304577 0.263194 -0.200132
C25   C     C_3   0.005506 0.186085 0.246781 -0.175697
C26   C     C_3   0.863623 0.187941 0.187850 -0.056615
H11   H     H_    0.581776 0.367081 0.256193 0.102291
H12   H     H_    0.157480 0.349887 0.273978 0.106712
H13   H     H_    0.128253 0.132849 0.243681 0.115538
C27   C     C_3   0.538366 0.724868 0.730870 -0.123434
C28   C     C_3   0.458434 0.835266 0.750036 -0.137956
H14   H     H_    0.542361 0.905858 0.750635 0.110443
H15   H     H_    0.688441 0.703685 0.714946 0.107222
C29   C     C_3   0.356653 0.811567 0.812266 -0.004320
C30   C     C_3   0.436675 0.702019 0.793910 -0.142067
C31   C     C_3   0.254355 0.665562 0.749774 -0.136365
C32   C     C_3   0.174445 0.775963 0.768925 -0.119842
C33   C     C_3   0.276131 0.798778 0.705869 -0.138210
C34   C     C_3   0.356172 0.689187 0.687531 -0.006191
H16   H     H_    0.502382 0.662468 0.830714 0.098550
H17   H     H_    0.170373 0.594991 0.749202 0.099865
H18   H     H_    0.024426 0.797330 0.784841 0.105290
H19   H     H_    0.210362 0.838385 0.669106 0.098832
C35   C     C_R   0.335047 0.893264 0.391813 -0.163241
H20   H     H_    0.328665 0.843691 0.485282 0.101225
H21   H     H_    0.325742 0.019073 0.309279 0.118293
H22   H     H_    0.323453 0.973242 0.418484 0.113069
C36   C     C_R   0.353135 0.716496 0.396824 -0.029043
C37   C     C_R   0.379606 0.680310 0.067227 -0.171670
C38   C     C_R   0.390279 0.603807 0.102422 -0.134521
C39   C     C_R   0.383712 0.628039 0.173735 -0.164445
C40   C     C_R   0.365166 0.730784 0.212033 0.072859
C41   C     C_R   0.354923 0.809009 0.175510 0.072016
C42   C     C_R   0.358352 0.758644 0.285219 0.072186
C43   C     C_R   0.343699 0.863782 0.319996 0.147272
C44   C     C_R   0.336314 0.938852 0.283029 -0.216001
C45   C     C_R   0.341292 0.912092 0.211994 -0.205111
C46   C     C_R   0.363653 0.685905 0.325359 -0.226931
C47   C     C_R   0.338547 0.819922 0.429952 -0.176369
C48   C     C_R   0.361827 0.782584 0.102974 -0.073683
H23   H     H_    0.371713 0.604806 0.302930 0.083343
H24   H     H_    0.387701 0.659845 0.011786 0.100105
H25   H     H_    0.394909 0.564429 0.197087 0.107048
H26   H     H_    0.404933 0.524828 0.074189 0.125136
H27   H     H_    0.334567 0.973322 0.185860 0.112139
O11   O     O_R   0.203580 0.914920 0.912610 -0.543090
O12   O     O_R   0.535710 0.887810 0.047120 -0.541499
O13   O     O_R   0.710730 0.084950 0.087430 -0.541674
C49   C     C_R   0.367392 0.860883 0.063695 0.683779
O14   O     O_R   0.533010 0.902850 0.910600 -0.545267
O15   O     O_R   0.708010 0.100090 0.949930 -0.538042
C50   C     C_R   0.364128 0.881304 0.882999 0.675346
O16   O     O_R   0.206300 0.899780 0.050100 -0.541586
O17   O     O_3   0.375170 0.064580 0.013100 -0.365665
V3    V     V_3+5 0.648200 0.988020 0.997570 1.424493
O18   O     O_R   0.038030 0.112330 0.952840 -0.538019
C51   C     C_R   0.869143 0.139035 0.936322 0.704808
O19   O     O_R   0.040730 0.097300 0.089360 -0.540684
C52   C     C_R   0.872538 0.118369 0.117083 0.725733
V4    V     V_3+5 0.148780 0.012220 0.002360 1.436240
O20   O     O_3   0.871930 0.935430 0.986900 -0.375256
O21   O     O_3   0.899255 0.357257 0.152484 -0.567083
C53   C     C_3   0.914360 0.463349 0.181835 0.081469
H28   H     H_    0.052157 0.481650 0.210851 0.115446
H29   H     H_    0.791516 0.491700 0.216500 0.111500
C54   C     C_3   0.911667 0.519641 0.124907 -0.688625
H30   H     H_    0.772928 0.505158 0.096438 0.213584
H31   H     H_    0.928810 0.603217 0.147016 0.194544
H32   H     H_    0.030818 0.492462 0.088619 0.221586

loop_
_geom_bond_atom_site_label_1
_geom_bond_atom_site_label_2
_ccdc_geom_bond_type
C22   H11   S    
C20   C25   S    
O17   V4    S    
C39   C40   A    
C1    O6    A    
C2    C36   S    
C45   H27   S    
C30   H16   S    
C43   C44   A    
C29   C30   S    
C29   C50   S    
C7    H5    S    
C53   H29   S    
C32   H18   S    
C9    H6    S    
C40   C42   A    
C4    C6    S    
C13   C14   A    
H20   C47   S    
C3    C21   S    
C27   C34   S    
O5    C3    A    
C28   C29   S    
C35   H22   S    
V2    O10   S    
C5    H3    S    
C54   H30   S    
C15   H8    S    
C35   C43   A    
C36   C47   A    
O8    V2    S    
C20   C21   S    
C8    C9    A    
O1    V2    S    
O12   C49   A    
O7    V1    S    
O15   C51   A    
O13   V3    S    
C27   H15   S    
C37   C48   A    
C31   C34   S    
C32   C33   S    
O9    C4    A    
C46   H23   S    
O19   V4    S    
O21   C53   S    
C6    C17   A    
C28   C33   S    
O14   V3    S    
C19   H10   S    
H21   C44   S    
C53   C54   S    
O11   C50   A    
C40   C41   A    
C12   C16   A    
C42   C43   A    
C19   C20   S    
O4    C2    A    
C44   C45   A    
C25   H13   S    
C10   C11   A    
O18   V4    S    
C36   C46   A    
C1    C34   S    
C48   C49   S    
O12   V3    S    
C33   C34   S    
C18   C51   S    
O2    C1    A    
C21   C22   S    
O13   C52   A    
C14   C15   A    
C23   O21   S    
C8    H7    S    
C6    C16   A    
C11   C18   A    
O11   V4    S    
C25   C26   S    
C29   C32   S    
O17   V3    S    
O14   C50   A    
C16   H4    S    
C9    C10   A    
C39   H25   S    
V3    O20   S    
O3    C4    A    
C20   H9    S    
C33   H19   S    
C11   C15   A    
O6    V2    S    
O9    V2    S    
H1    C17   S    
O2    V1    S    
O15   V3    S    
C27   C28   S    
C37   H24   S    
C23   C26   S    
C31   H17   S    
C7    C18   A    
C24   C25   S    
O1    C2    A    
C5    C13   A    
C22   C23   S    
C42   C46   A    
C38   C39   A    
O5    V1    S    
C38   H26   S    
O8    C3    A    
O16   V4    S    
C41   C48   A    
C28   H14   S    
C19   C22   S    
C10   C12   A    
C53   H28   S    
C24   H12   S    
C54   H32   S    
C31   C32   S    
O4    V1    S    
O3    V1    S    
V1    O10   S    
C35   C47   A    
C30   C31   S    
C26   C52   S    
O19   C52   A    
C54   H31   S    
O7    V2    S    
V4    O20   S    
C21   C24   S    
C27   C30   S    
C49   O16   A    
C23   C24   S    
C37   C38   A    
O18   C51   A    
C12   C13   A    
C5    C17   A    
C7    C8    A    
C41   C45   A    
C19   C26   S    
H2    C14   S    
