data_mof_unit_29662.cif
_audit_creation_date              2012-12-11T14:06:34-0500
_audit_creation_method            fapswitch 2.2
_symmetry_space_group_name_H-M    P1
_symmetry_Int_Tables_number       1
_space_group_crystal_system       triclinic
_cell_length_a                    6.916061
_cell_length_b                    17.325322
_cell_length_c                    24.14965
_cell_angle_alpha                 104.717321
_cell_angle_beta                  90.468976
_cell_angle_gamma                 89.755892
_cell_volume                      2798.64338816

loop_
_atom_site_label
_atom_site_type_symbol
_atom_type_description
_atom_site_fract_x
_atom_site_fract_y
_atom_site_fract_z
_atom_type_partial_charge
O1    O     O_R   0.494290 0.391990 0.999150 -0.539598
O2    O     O_R   0.827170 0.534410 0.082350 -0.545305
O3    O     O_R   0.994360 0.608010 0.000850 -0.526864
C1    C     C_R   0.658847 0.550308 0.106111 0.720927
O4    O     O_R   0.824210 0.388010 0.004470 -0.549867
O5    O     O_R   0.991370 0.460560 0.922410 -0.539457
C2    C     C_R   0.654676 0.354800 0.001432 0.758121
O6    O     O_R   0.497270 0.539440 0.077590 -0.539349
O7    O     O_3   0.659770 0.523970 0.973170 -0.350759
V1    V     V_3+5 0.935840 0.495550 0.004980 1.451818
O8    O     O_R   0.320910 0.465590 0.917650 -0.543751
C3    C     C_R   0.151524 0.451454 0.893724 0.719029
O9    O     O_R   0.323870 0.611990 0.995530 -0.520325
C4    C     C_R   0.153282 0.644975 0.998836 0.789277
V2    V     V_3+5 0.435470 0.504450 0.995020 1.474490
O10   O     O_3   0.161670 0.476030 0.026830 -0.381119
C5    C     C_2   0.137872 0.732041 0.007959 -0.069781
C6    C     C_2   0.978046 0.767790 0.991574 -0.065741
C7    C     C_R   0.055586 0.244231 0.626272 0.586596
N1    N     N_R   0.063774 0.325261 0.649137 -0.566729
C8    C     C_R   0.042774 0.377110 0.614854 0.600663
C9    C     C_R   0.023997 0.348081 0.555046 -0.026012
C10   C     C_R   0.017437 0.265071 0.531021 -0.022773
C11   C     C_R   0.029663 0.212577 0.566910 -0.035671
C12   C     C_R   0.014074 0.399894 0.518731 -0.123029
C13   C     C_R   0.001408 0.369630 0.459344 -0.160218
C14   C     C_R   0.995005 0.286823 0.434866 -0.026507
C15   C     C_R   0.000039 0.234447 0.470926 -0.014136
C16   C     C_R   0.989771 0.151475 0.446995 -0.030043
C17   C     C_R   0.997309 0.099697 0.483373 -0.150730
C18   C     C_R   0.018378 0.129849 0.542557 -0.124329
C19   C     C_R   0.985542 0.254870 0.375110 0.573743
N2    N     N_R   0.972849 0.173878 0.352311 -0.557934
C20   C     C_R   0.973559 0.122341 0.387127 0.574776
O11   O     O_2   0.074876 0.194328 0.660724 -0.491724
O12   O     O_2   0.041920 0.456529 0.638511 -0.488121
H1    H     H_    0.019020 0.464000 0.535994 0.188170
H2    H     H_    0.996619 0.411373 0.432720 0.171924
O13   O     O_2   0.990477 0.304350 0.340099 -0.515969
O14   O     O_2   0.958935 0.043054 0.363909 -0.508792
H3    H     H_    0.989230 0.035630 0.466201 0.167310
H4    H     H_    0.026089 0.088067 0.569121 0.189067
C21   C     C_R   0.125250 0.097316 0.263645 -0.128429
H5    H     H_    0.245196 0.086584 0.289873 0.139132
C22   C     C_R   0.130816 0.066822 0.203841 0.082311
C23   C     C_R   0.972343 0.080844 0.169841 -0.085021
C24   C     C_R   0.813591 0.125167 0.197448 -0.242266
H6    H     H_    0.691567 0.136724 0.172234 0.136677
C25   C     C_R   0.808605 0.155303 0.257186 0.179814
C26   C     C_R   0.967460 0.141995 0.290749 0.347987
C27   C     C_R   0.265930 0.399073 0.732077 0.170753
C28   C     C_R   0.284604 0.434517 0.792093 0.089886
C29   C     C_R   0.138829 0.420799 0.830002 -0.087666
C30   C     C_R   0.975171 0.375958 0.806790 -0.228812
H7    H     H_    0.862368 0.364189 0.834388 0.145205
C31   C     C_R   0.953498 0.344991 0.748032 -0.120663
H8    H     H_    0.825163 0.310948 0.731761 0.148081
C32   C     C_R   0.095592 0.356447 0.710121 0.344432
C33   C     C_R   0.590355 0.871220 0.615428 0.649555
N3    N     N_R   0.536611 0.822338 0.649022 -0.555179
C34   C     C_R   0.507560 0.742347 0.625908 0.650585
C35   C     C_R   0.536134 0.707521 0.566407 -0.117618
C36   C     C_R   0.578918 0.758652 0.530989 -0.050704
C37   C     C_R   0.609557 0.840866 0.555921 -0.011351
C38   C     C_R   0.519944 0.624264 0.541027 0.212284
C39   C     C_R   0.512701 0.594842 0.480567 0.076051
C40   C     C_R   0.560895 0.646140 0.444837 -0.073129
C41   C     C_R   0.594701 0.727975 0.470717 -0.041799
C42   C     C_R   0.641691 0.780089 0.436253 -0.011924
C43   C     C_R   0.674269 0.861290 0.461990 -0.137806
C44   C     C_R   0.658495 0.891244 0.520979 -0.134053
C45   C     C_R   0.581031 0.618910 0.384117 0.583969
N4    N     N_R   0.622390 0.671108 0.351691 -0.561759
C46   C     C_R   0.653640 0.750190 0.376545 0.580623
O15   O     O_2   0.622729 0.949355 0.639512 -0.484590
O16   O     O_2   0.442522 0.698012 0.660228 -0.479686
O17   O     O_2   0.565368 0.540830 0.357360 -0.521436
O18   O     O_2   0.695053 0.799997 0.343459 -0.504386
H9    H     H_    0.711280 0.902303 0.436553 0.179769
H10   H     H_    0.683877 0.954324 0.539063 0.170072
C47   C     C_R   0.810630 0.634379 0.261948 -0.075720
H11   H     H_    0.942584 0.651372 0.286355 0.117627
C48   C     C_R   0.819793 0.604299 0.202341 -0.187041
H12   H     H_    0.959701 0.599259 0.181924 0.128703
C49   C     C_R   0.650199 0.581518 0.169584 -0.057896
C50   C     C_R   0.471514 0.589662 0.198150 -0.183643
H13   H     H_    0.338011 0.572802 0.174526 0.129428
C51   C     C_R   0.462879 0.619200 0.257726 -0.085013
H14   H     H_    0.324137 0.624526 0.278832 0.113703
C52   C     C_R   0.632147 0.641880 0.290075 0.383928
C53   C     C_R   0.651330 0.842514 0.748232 -0.082055
H15   H     H_    0.778654 0.807599 0.732233 0.162391
C54   C     C_R   0.630340 0.873734 0.807085 -0.181797
H16   H     H_    0.742633 0.861147 0.835109 0.165207
C55   C     C_R   0.468018 0.920022 0.829822 -0.141255
C56   C     C_R   0.324052 0.934684 0.791127 0.095079
C57   C     C_R   0.344291 0.900906 0.731304 0.191075
C58   C     C_R   0.510015 0.855584 0.709912 0.295149
C59   C     C_2   0.643017 0.269631 0.001812 -0.333325
H17   H     H_    0.777834 0.238649 0.005144 0.150369
C60   C     C_2   0.472510 0.230271 0.997926 -0.326460
H18   H     H_    0.337691 0.261245 0.994582 0.150007
O19   O     O_R   0.618210 0.960470 0.922400 -0.535052
O20   O     O_R   0.291310 0.111960 0.995450 -0.546268
O21   O     O_R   0.124210 0.039530 0.077580 -0.542190
C61   C     C_R   0.460848 0.145142 0.998399 0.761296
O22   O     O_R   0.288310 0.965490 0.917650 -0.526350
O23   O     O_R   0.121180 0.892010 0.999220 -0.529897
C62   C     C_R   0.456749 0.951365 0.893602 0.767223
O24   O     O_R   0.621230 0.107990 0.000760 -0.541294
O25   O     O_3   0.455770 0.976060 0.026840 -0.359506
V3    V     V_3+5 0.179680 0.004440 0.995020 1.488373
O26   O     O_R   0.791670 0.888040 0.004570 -0.520416
C63   C     C_R   0.962269 0.854949 0.000987 0.785052
O27   O     O_R   0.794680 0.034510 0.082370 -0.547512
C64   C     C_R   0.964193 0.049459 0.106198 0.705828
V4    V     V_3+5 0.680070 0.995560 0.005010 1.493148
O28   O     O_3   0.953840 0.023940 0.973160 -0.364008
I1    I     I_    0.361730 0.795859 0.062154 -0.355169
C65   C     C_3   0.631220 0.200388 0.283264 -0.689255
H19   H     H_    0.626268 0.209538 0.330366 0.211114
H20   H     H_    0.626813 0.259344 0.273074 0.234216
H21   H     H_    0.500023 0.166562 0.265056 0.189454
C66   C     C_3   0.429258 0.404523 0.692003 -0.661620
H22   H     H_    0.411034 0.364099 0.648669 0.207427
H23   H     H_    0.439822 0.466576 0.687879 0.260714
H24   H     H_    0.567403 0.387190 0.709051 0.189743
C67   C     C_3   0.455430 0.488023 0.815440 -0.667193
H25   H     H_    0.403897 0.544231 0.845028 0.215315
H26   H     H_    0.556573 0.456647 0.838265 0.205825
H27   H     H_    0.538846 0.506698 0.782184 0.220070
I2    I     I_    0.554105 0.538644 0.591306 -0.327508
C68   C     C_3   0.445324 0.509897 0.455198 -0.621364
H28   H     H_    0.332384 0.508841 0.422088 0.225441
H29   H     H_    0.569598 0.471268 0.436892 0.240400
H30   H     H_    0.372922 0.483362 0.486596 0.201703
I3    I     I_    0.757073 0.703472 0.936294 -0.352254
I4    I     I_    0.084090 0.012614 0.820514 -0.297874
I5    I     I_    0.124762 0.914531 0.671645 -0.275793
C69   C     C_3   0.304323 0.018235 0.178162 -0.671831
H31   H     H_    0.256784 0.959040 0.151964 0.227963
H32   H     H_    0.385630 0.049993 0.151280 0.205283
H33   H     H_    0.405507 0.008048 0.211580 0.208120

loop_
_geom_bond_atom_site_label_1
_geom_bond_atom_site_label_2
_ccdc_geom_bond_type
V3    O28   S    
C60   H18   S    
C18   H4    S    
C55   C56   A    
N4    C46   A    
O21   C64   A    
O25   V3    S    
C69   H33   S    
C1    O6    A    
C67   H25   S    
C6    C63   S    
O20   C61   A    
C57   C58   A    
C28   C67   S    
C24   C25   A    
C8    O12   S    
C29   C30   A    
C65   H19   S    
C33   C37   A    
C16   C17   A    
C2    C59   S    
C20   O14   S    
C15   C16   A    
C69   H32   S    
N4    C52   S    
N3    C58   S    
C42   C43   A    
O5    C3    A    
C17   C18   A    
C50   C51   A    
C19   O13   S    
C25   C65   S    
O27   C64   A    
C31   H8    S    
C40   C45   A    
O22   V3    S    
C37   C44   A    
O23   C63   A    
C12   H1    S    
C30   H7    S    
O8    V2    S    
C24   H6    S    
C31   C32   A    
C41   C42   A    
O27   V4    S    
C9    C12   A    
C68   H30   S    
C10   C11   A    
C17   H3    S    
C43   C44   A    
O1    V2    S    
O7    V1    S    
C3    C29   S    
C65   H21   S    
C39   C40   A    
C14   C19   A    
C33   N3    A    
C54   C55   A    
O19   C62   A    
O9    C4    A    
C27   C66   S    
O22   C62   A    
C4    C5    S    
O19   V4    S    
O24   V4    S    
C44   H10   S    
C47   C48   A    
C65   H20   S    
C47   H11   S    
O4    C2    A    
C34   O16   S    
C30   C31   A    
C27   C28   A    
C69   H31   S    
C55   C62   S    
C53   H15   S    
O20   V3    S    
C50   H13   S    
C13   H2    S    
C1    C49   S    
C12   C13   A    
C49   C50   A    
C16   C20   A    
C22   C69   S    
C40   C41   A    
N3    C34   A    
C6    I3    S    
O2    C1    A    
C21   H5    S    
C45   O17   S    
C53   C54   A    
C39   C68   S    
C48   H12   S    
C56   C57   A    
C35   C36   A    
C5    C6    D    
C13   C14   A    
C42   C46   A    
C27   C32   A    
C10   C15   A    
C51   H14   S    
C21   C22   A    
O3    C4    A    
C66   H24   S    
O26   V4    S    
C47   C52   A    
C59   C60   D    
O21   V3    S    
C51   C52   A    
C38   C39   A    
O6    V2    S    
O9    V2    S    
C68   H28   S    
C22   C23   A    
N1    C32   S    
O2    V1    S    
C67   H27   S    
C33   O15   S    
C38   I2    S    
C28   C29   A    
C66   H23   S    
O26   C63   A    
C61   O24   A    
C60   C61   S    
C23   C24   A    
C35   C38   A    
C48   C49   A    
C43   H9    S    
O1    C2    A    
C45   N4    A    
C67   H26   S    
O5    V1    S    
O8    C3    A    
C21   C26   A    
C54   H16   S    
C36   C41   A    
C59   H17   S    
C23   C64   S    
O25   V4    S    
C19   N2    A    
C7    N1    A    
C7    C11   A    
N2    C26   S    
C11   C18   A    
O4    V1    S    
O3    V1    S    
C7    O11   S    
V4    O28   S    
C56   I4    S    
N2    C20   A    
C53   C58   A    
O7    V2    S    
C34   C35   A    
C5    I1    S    
C36   C37   A    
O23   V3    S    
N1    C8    A    
C25   C26   A    
C46   O18   S    
C14   C15   A    
C68   H29   S    
C9    C10   A    
V1    O10   S    
C8    C9    A    
C57   I5    S    
V2    O10   S    
C66   H22   S    
