data_mof_unit_40491.cif
_audit_creation_date              2012-12-10T17:36:22-0500
_audit_creation_method            fapswitch 2.2
_symmetry_space_group_name_H-M    P1
_symmetry_Int_Tables_number       1
_space_group_crystal_system       triclinic
_cell_length_a                    12.354674
_cell_length_b                    13.178108
_cell_length_c                    15.853647
_cell_angle_alpha                 77.209668
_cell_angle_beta                  101.80045
_cell_angle_gamma                 116.751667
_cell_volume                      2231.33528967

loop_
_atom_site_label
_atom_site_type_symbol
_atom_type_description
_atom_site_fract_x
_atom_site_fract_y
_atom_site_fract_z
_atom_type_partial_charge
C1    C     C_R   0.854797 0.286378 0.507188 0.783806
C2    C     C_3   0.033223 0.409869 0.070740 -0.385139
C3    C     C_3   0.995874 0.503390 0.081367 0.307378
C4    C     C_3   0.087116 0.621956 0.040229 -0.383019
C5    C     C_3   0.088713 0.621746 0.942832 -0.379864
C6    C     C_1   0.997046 0.502928 0.173925 -0.110083
C7    C     C_1   0.000369 0.502130 0.824309 -0.129685
C8    C     C_1   0.001285 0.500967 0.749135 -0.189172
C9    C     C_R   0.273972 0.023953 0.386937 -0.195113
C10   C     C_R   0.227659 0.835238 0.470327 -0.047152
C11   C     C_R   0.815863 0.083147 0.560548 -0.224801
C12   C     C_R   0.000374 0.500057 0.659593 0.828454
C13   C     C_R   0.737399 0.966694 0.576063 0.152829
C14   C     C_R   0.613382 0.930443 0.545492 -0.223679
C15   C     C_R   0.566457 0.008926 0.496638 0.049486
C16   C     C_R   0.649634 0.123920 0.471912 0.080250
C17   C     C_R   0.439512 0.976487 0.470537 0.083019
C18   C     C_R   0.399062 0.055013 0.412918 0.170205
C19   C     C_R   0.483950 0.162665 0.380429 -0.248362
C20   C     C_R   0.607433 0.196083 0.408382 -0.193003
C21   C     C_R   0.351130 0.868570 0.500957 -0.254255
C22   C     C_R   0.188520 0.914191 0.415187 -0.214718
C23   C     C_R   0.145023 0.713585 0.487696 0.784696
C24   C     C_R   0.772918 0.162888 0.510649 -0.135304
C25   C     C_R   0.346027 0.326620 0.639422 -0.304535
C26   C     C_R   0.754102 0.647824 0.382328 0.283507
C27   C     C_R   0.665400 0.690107 0.371221 -0.257032
C28   C     C_R   0.569815 0.638667 0.420414 -0.244823
C29   C     C_R   0.557638 0.541670 0.481959 0.001274
C30   C     C_R   0.656148 0.507397 0.500451 0.260495
C31   C     C_R   0.451241 0.479216 0.526485 -0.029475
C32   C     C_R   0.448631 0.388736 0.594339 0.173470
C33   C     C_R   0.547899 0.360418 0.616128 -0.282403
C34   C     C_R   0.999910 0.500671 0.340208 0.821712
C35   C     C_R   0.648579 0.417426 0.569741 -0.178764
C36   C     C_R   0.345100 0.500859 0.504821 0.016507
C37   C     C_R   0.245606 0.353055 0.615950 0.069340
C38   C     C_3   0.034658 0.410481 0.973347 -0.417086
C39   C     C_3   0.865189 0.476270 0.933126 -0.035323
C40   C     C_3   0.866780 0.478872 0.031510 -0.388464
C41   C     C_1   0.998805 0.501873 0.250040 -0.187300
C42   C     C_3   0.996704 0.503557 0.915680 0.298214
Cu1   Cu    Cu3+1 0.098280 0.475420 0.519630 0.930453
Cu2   Cu    Cu3+1 0.901720 0.524580 0.480370 0.897768
H1    H     H_    0.968029 0.323732 0.099179 0.161734
H2    H     H_    0.127848 0.427187 0.962472 0.173204
H3    H     H_    0.125417 0.425359 0.106605 0.168421
H4    H     H_    0.060966 0.690368 0.046263 0.158162
H5    H     H_    0.092895 0.889983 0.391428 0.153563
H6    H     H_    0.454820 0.221576 0.333295 0.141820
H7    H     H_    0.242566 0.083556 0.342967 0.133448
H8    H     H_    0.375618 0.807652 0.548345 0.147710
H9    H     H_    0.910291 0.111644 0.589416 0.150793
H10   H     H_    0.556526 0.839695 0.558625 0.127418
H11   H     H_    0.971292 0.324167 0.955291 0.156447
H12   H     H_    0.669051 0.278124 0.377456 0.173729
H13   H     H_    0.166472 0.305253 0.650798 0.119045
H14   H     H_    0.546788 0.291589 0.668669 0.148183
H15   H     H_    0.343189 0.257587 0.692160 0.132536
H16   H     H_    0.337637 0.565472 0.452000 0.125016
H17   H     H_    0.505741 0.676500 0.407831 0.143483
H18   H     H_    0.665406 0.761363 0.322098 0.145217
H19   H     H_    0.718143 0.387527 0.590713 0.206658
H20   H     H_    0.804889 0.386975 0.919626 0.134397
H21   H     H_    0.799034 0.394742 0.060647 0.141529
H22   H     H_    0.839357 0.545558 0.039586 0.161907
H23   H     H_    0.182455 0.640125 0.932048 0.165005
H24   H     H_    0.066696 0.691829 0.901954 0.154689
H25   H     H_    0.180506 0.642629 0.075535 0.164284
N1    N     N_R   0.246300 0.438200 0.549400 -0.178435
N2    N     N_R   0.754300 0.561180 0.451130 -0.217130
O1    O     O_R   0.972520 0.318130 0.524690 -0.580685
O2    O     O_R   0.806530 0.359650 0.491530 -0.600347
O3    O     O_R   0.083030 0.479240 0.637150 -0.573566
O4    O     O_R   0.917040 0.520750 0.603990 -0.597213
O5    O     O_R   0.193470 0.640350 0.508470 -0.582800
O6    O     O_R   0.027480 0.681870 0.475310 -0.608623
O7    O     O_R   0.082960 0.479250 0.396010 -0.570290
O8    O     O_R   0.916970 0.520760 0.362850 -0.607903
C43   C     C_3   0.784785 0.881567 0.629195 -0.425684
C44   C     C_3   0.862527 0.859838 0.577512 -0.344113
C45   C     C_3   0.901722 0.766702 0.628492 -0.805716
H26   H     H_    0.952636 0.790622 0.692739 0.235735
H27   H     H_    0.820583 0.683303 0.638657 0.255435
H28   H     H_    0.962223 0.756498 0.591331 0.265957
H29   H     H_    0.809176 0.832052 0.514691 0.234056
H30   H     H_    0.945384 0.940352 0.563162 0.215071
H31   H     H_    0.839839 0.914905 0.690046 0.187386
H32   H     H_    0.707510 0.798457 0.648905 0.199158
C46   C     C_3   0.839215 0.691023 0.311806 -0.358994
C47   C     C_3   0.845788 0.800084 0.248209 -0.456714
C48   C     C_3   0.943049 0.838795 0.187437 -0.857898
H33   H     H_    0.034831 0.860981 0.225407 0.252069
H34   H     H_    0.922749 0.769581 0.149372 0.252867
H35   H     H_    0.944173 0.916069 0.141363 0.243531
H36   H     H_    0.756668 0.782642 0.207045 0.225859
H37   H     H_    0.868835 0.871024 0.285332 0.224661
H38   H     H_    0.933254 0.711084 0.341283 0.246836
H39   H     H_    0.807883 0.621406 0.271729 0.207454
C49   C     C_3   0.810730 0.556440 0.872384 -0.409700
C50   C     C_3   0.671978 0.507889 0.872226 -0.362909
C51   C     C_3   0.618660 0.581383 0.805234 -0.844970
H40   H     H_    0.661789 0.671115 0.819331 0.247079
H41   H     H_    0.633734 0.581306 0.738527 0.256798
H42   H     H_    0.518868 0.545685 0.807726 0.243598
H43   H     H_    0.627308 0.419095 0.855858 0.214463
H44   H     H_    0.650781 0.504893 0.937766 0.216269
H45   H     H_    0.855188 0.643214 0.892503 0.200692
H46   H     H_    0.828200 0.566994 0.804318 0.216011

loop_
_geom_bond_atom_site_label_1
_geom_bond_atom_site_label_2
_ccdc_geom_bond_type
C50   H44   S    
C5    C42   S    
Cu1   O1    S    
C12   O3    A    
C19   C20   A    
C9    H7    S    
C23   O5    A    
C5    H23   S    
C3    C6    S    
C30   N2    A    
C39   C49   S    
C7    C8    T    
C10   C22   A    
Cu1   O7    S    
C39   H20   S    
C26   C27   A    
C33   H14   S    
C30   C35   A    
C51   H42   S    
C28   C29   A    
C38   C42   S    
C9    C22   A    
C15   C16   A    
C11   C24   A    
Cu1   O5    S    
Cu2   N2    S    
C18   C19   A    
C7    C42   S    
C43   H32   S    
C49   C50   S    
C25   C37   A    
C47   H36   S    
C38   H11   S    
C6    C41   T    
C44   H29   S    
C11   H9    S    
C8    C12   S    
C28   H17   S    
C25   C32   A    
C13   C43   S    
C49   H46   S    
C16   C24   A    
C40   H22   S    
C37   N1    A    
C26   N2    A    
C51   H40   S    
C34   C41   S    
C5    H24   S    
C4    H25   S    
C36   N1    A    
C44   C45   S    
C39   C42   S    
C10   C21   A    
C49   H45   S    
C1    O1    A    
C50   C51   S    
C39   C40   S    
C43   C44   S    
C48   H35   S    
C47   H37   S    
Cu2   O4    S    
Cu1   Cu2   S    
C29   C30   A    
C27   H18   S    
C34   O8    A    
C2    C38   S    
C31   C32   A    
C16   C20   A    
C48   H34   S    
C17   C18   A    
C23   O6    A    
C51   H41   S    
C44   H30   S    
C22   H5    S    
C14   H10   S    
C3    C40   S    
Cu1   N1    S    
C45   H27   S    
C40   H21   S    
C2    H3    S    
C3    C4    S    
C46   H39   S    
C47   C48   S    
C4    H4    S    
C50   H43   S    
C15   C17   A    
Cu2   O6    S    
C14   C15   A    
Cu2   O8    S    
C4    C5    S    
C36   H16   S    
C10   C23   S    
C26   C46   S    
C45   H28   S    
C1    O2    A    
C32   C33   A    
C2    C3    S    
C29   C31   A    
C34   O7    A    
C11   C13   A    
C19   H6    S    
C46   C47   S    
Cu1   O3    S    
C48   H33   S    
C33   C35   A    
C20   H12   S    
Cu2   O2    S    
C17   C21   A    
C38   H2    S    
C2    H1    S    
C9    C18   A    
C1    C24   S    
C43   H31   S    
C45   H26   S    
C12   O4    A    
C27   C28   A    
C31   C36   A    
C35   H19   S    
C25   H15   S    
C13   C14   A    
C46   H38   S    
C21   H8    S    
C37   H13   S    
