data_mof_unit_57630.cif
_audit_creation_date              2012-12-11T16:24:38-0500
_audit_creation_method            fapswitch 2.2
_symmetry_space_group_name_H-M    P1
_symmetry_Int_Tables_number       1
_space_group_crystal_system       triclinic
_cell_length_a                    8.234668
_cell_length_b                    17.341805
_cell_length_c                    17.341713
_cell_angle_alpha                 97.562742
_cell_angle_beta                  96.176363
_cell_angle_gamma                 97.517136
_cell_volume                      2414.12059732

loop_
_atom_site_label
_atom_site_type_symbol
_atom_type_description
_atom_site_fract_x
_atom_site_fract_y
_atom_site_fract_z
_atom_type_partial_charge
Ba1   Ba    Ba6+2 0.160000 0.538340 0.465920 1.685635
Ba2   Ba    Ba6+2 0.650170 0.461650 0.534010 1.686637
C1    C     C_3   0.271230 0.851324 0.273927 -0.349577
C2    C     C_3   0.667995 0.772178 0.427559 -0.035680
C3    C     C_2   0.726531 0.859271 0.451142 -0.137812
C4    C     C_3   0.840591 0.736642 0.266244 0.300797
C5    C     C_2   0.865443 0.885577 0.501537 -0.040411
C6    C     C_2   0.951669 0.826868 0.539887 -0.107780
C7    C     C_1   0.896547 0.750559 0.522314 0.033967
C8    C     C_R   0.102480 0.143520 0.546799 -0.125192
C9    C     C_R   0.174961 0.220067 0.544544 -0.034469
C10   C     C_R   0.924065 0.246945 0.472708 0.003290
C11   C     C_R   0.851636 0.168454 0.473081 -0.158487
C12   C     C_3   0.332940 0.785411 0.313104 0.269233
C13   C     C_R   0.942075 0.115096 0.508273 0.028804
C14   C     C_2   0.949833 0.968879 0.509362 0.398630
C15   C     C_2   0.864889 0.031091 0.505068 -0.120155
C16   C     C_3   0.798884 0.789730 0.205370 0.263413
C17   C     C_R   0.085746 0.271540 0.508401 -0.247539
C18   C     C_R   0.611287 0.517655 0.278191 -0.242134
C19   C     C_R   0.449395 0.482639 0.252109 0.001508
C20   C     C_R   0.387229 0.475823 0.172694 -0.130727
C21   C     C_R   0.488936 0.503135 0.119109 0.016751
C22   C     C_R   0.652930 0.538153 0.145874 -0.133753
C23   C     C_3   0.630179 0.700299 0.683775 0.338300
C24   C     C_R   0.713361 0.545281 0.225801 0.013814
C25   C     C_R   0.413325 0.512878 0.835413 -0.118781
C26   C     C_R   0.357575 0.507087 0.755500 0.043254
C27   C     C_R   0.094807 0.436431 0.775124 -0.000602
C28   C     C_3   0.872026 0.267400 0.285364 0.294183
C29   C     C_R   0.149786 0.442099 0.855576 -0.061784
C30   C     C_R   0.310780 0.479575 0.885670 0.034898
C31   C     C_1   0.370626 0.487077 0.968242 0.024265
C32   C     C_1   0.424507 0.494442 0.036966 0.004875
C33   C     C_R   0.201386 0.466494 0.725352 -0.276967
C34   C     C_3   0.641877 0.789263 0.701233 -0.352316
C35   C     C_3   0.785668 0.182026 0.264186 -0.288735
C36   C     C_3   0.061728 0.634141 0.706993 0.297497
C37   C     C_3   0.099979 0.655605 0.795628 -0.395503
C38   C     C_3   0.383887 0.296403 0.266989 0.696076
C39   C     C_3   0.300147 0.264395 0.183705 -0.372523
C40   C     C_3   0.315092 0.192541 0.338792 0.287041
C41   C     C_3   0.244970 0.224686 0.900647 0.156395
C42   C     C_3   0.176379 0.966746 0.446190 0.172248
C43   C     C_3   0.791157 0.917096 0.264857 0.139797
C44   C     C_2   0.906604 0.302405 0.212532 0.472221
C45   C     C_3   0.866181 0.246103 0.691558 0.396056
C46   C     C_3   0.841424 0.164011 0.714256 -0.363611
C47   C     C_3   0.341796 0.256481 0.730657 0.293425
C48   C     C_3   0.424723 0.266433 0.815102 0.285992
C49   C     C_2   0.771107 0.720583 0.468268 -0.195178
H1    H     H_    0.261248 0.728093 0.285132 0.094888
H2    H     H_    0.497009 0.336166 0.260462 -0.007590
H3    H     H_    0.141990 0.855362 0.283795 0.089332
H4    H     H_    0.264405 0.313020 0.153232 0.060730
H5    H     H_    0.187407 0.221998 0.184190 0.122141
H6    H     H_    0.386839 0.234272 0.149877 0.097787
H7    H     H_    0.463361 0.785423 0.302227 0.035369
H8    H     H_    0.277338 0.839803 0.209865 0.103569
H9    H     H_    0.747320 0.684187 0.709758 0.035349
H10   H     H_    0.611793 0.682018 0.619109 0.025274
H11   H     H_    0.672714 0.809037 0.765323 0.103263
H12   H     H_    0.670984 0.178473 0.222983 0.157399
H13   H     H_    0.740000 0.817548 0.670622 0.059416
H14   H     H_    0.522413 0.807856 0.681126 0.157313
H15   H     H_    0.349273 0.908227 0.298642 0.099179
H16   H     H_    0.729087 0.751821 0.152430 0.046765
H17   H     H_    0.786526 0.245627 0.635553 0.087916
H18   H     H_    0.997468 0.261389 0.682914 -0.100716
H19   H     H_    0.709467 0.146092 0.720311 0.141362
H20   H     H_    0.878792 0.121214 0.668633 0.071550
H21   H     H_    0.917575 0.163157 0.770878 0.108716
H22   H     H_    0.233540 0.209444 0.722578 -0.024261
H23   H     H_    0.869379 0.144598 0.236420 0.066494
H24   H     H_    0.300532 0.313389 0.720687 -0.008310
H25   H     H_    0.531517 0.314240 0.822647 0.107334
H26   H     H_    0.897294 0.773393 0.322300 0.030210
H27   H     H_    0.476326 0.211953 0.826431 0.015211
H28   H     H_    0.730916 0.019719 0.495481 0.034454
H29   H     H_    0.064213 0.847061 0.580121 0.115033
H30   H     H_    0.172094 0.108207 0.580587 0.136900
H31   H     H_    0.664897 0.899177 0.419181 0.057643
H32   H     H_    0.725732 0.148871 0.446112 0.093193
H33   H     H_    0.739860 0.657643 0.449996 0.067637
H34   H     H_    0.751616 0.158019 0.317061 0.065060
H35   H     H_    0.143417 0.331010 0.507085 0.085181
H36   H     H_    0.534317 0.545000 0.858634 0.067096
H37   H     H_    0.722822 0.701965 0.276006 -0.085849
H38   H     H_    0.732086 0.560417 0.105294 0.070259
H39   H     H_    0.067718 0.418425 0.894278 0.078578
H40   H     H_    0.261033 0.448712 0.152664 0.078989
H41   H     H_    0.658897 0.522720 0.339585 0.069937
H42   H     H_    0.158547 0.462993 0.663586 0.058805
H43   H     H_    0.913549 0.818389 0.185821 0.016193
H44   H     H_    0.992833 0.268130 0.320901 -0.059574
H45   H     H_    0.168721 0.612112 0.683338 0.027436
H46   H     H_    0.362283 0.140299 0.358293 0.021323
H47   H     H_    0.286689 0.229073 0.391684 0.055495
H48   H     H_    0.201104 0.171059 0.297249 -0.039624
H49   H     H_    0.340448 0.205338 0.941171 0.052060
H50   H     H_    0.186923 0.174903 0.854709 0.012692
H51   H     H_    0.147283 0.243053 0.935317 0.091886
H52   H     H_    0.139361 0.010152 0.408259 -0.010179
H53   H     H_    0.129781 0.905908 0.416623 0.077948
H54   H     H_    0.313256 0.973617 0.454683 0.084065
H55   H     H_    0.708179 0.956679 0.289628 0.064296
H56   H     H_    0.952990 0.587381 0.693378 0.053120
H57   H     H_    0.848557 0.944981 0.218211 0.045434
H58   H     H_    0.887115 0.911485 0.313129 -0.003610
H59   H     H_    0.960131 0.363568 0.217986 0.022256
H60   H     H_    0.214514 0.698968 0.810886 0.139539
H61   H     H_    0.117367 0.602598 0.822997 0.054266
H62   H     H_    0.996108 0.681427 0.819658 0.112844
O1    O     O_2   0.169780 0.691990 0.551040 -0.420904
O2    O     O_2   0.756390 0.442582 0.769556 -0.483349
O3    O     O_3   0.821887 0.299321 0.751148 -0.592254
O4    O     O_3   0.896620 0.594010 0.545570 -0.505838
O5    O     O_3   0.420600 0.460050 0.406370 -0.452383
O6    O     O_2   0.650040 0.537900 0.687840 -0.478012
O7    O     O_3   0.499279 0.665325 0.718727 -0.648079
O8    O     O_2   0.509163 0.219056 0.533381 -0.492551
O9    O     O_3   0.454655 0.234096 0.679813 -0.616388
O10   O     O_3   0.384860 0.644020 0.410190 -0.479210
O11   O     O_2   0.434890 0.762247 0.529753 -0.479076
O12   O     O_3   0.275537 0.335749 0.310913 -0.666965
O13   O     O_3   0.029881 0.701482 0.675242 -0.644705
O14   O     O_3   0.314954 0.797611 0.393517 -0.596399
O15   O     O_2   0.160250 0.462050 0.312130 -0.459067
O16   O     O_3   0.957280 0.604490 0.369120 -0.473276
O17   O     O_2   0.055588 0.554870 0.230407 -0.476960
O18   O     O_3   0.439491 0.234409 0.303886 -0.642638
O19   O     O_3   0.313700 0.289517 0.867547 -0.667624
O20   O     O_3   0.120705 0.980440 0.520065 -0.655926
O21   O     O_3   0.696462 0.843644 0.233752 -0.667711
O22   O     O_2   0.873999 0.263955 0.147080 -0.616653
O23   O     O_3   0.956837 0.690323 0.239194 -0.636508
O24   O     O_2   0.640500 0.307960 0.448930 -0.411542
O25   O     O_3   0.913680 0.405980 0.454370 -0.472174
O26   O     O_3   0.425430 0.355970 0.589750 -0.459169
O27   O     O_3   0.769872 0.313933 0.324869 -0.622571
O28   O     O_3   0.389690 0.539950 0.593560 -0.456583
O29   O     O_3   0.853010 0.395500 0.630820 -0.491111
P1    P     P_3+3 0.996700 0.679700 0.572930 0.976636
P2    P     P_3+3 0.328720 0.438370 0.322170 0.995384
P3    P     P_3+3 0.920369 0.596490 0.266236 0.964415
P4    P     P_3+3 0.813590 0.320290 0.427010 1.038329
P5    P     P_3+3 0.881803 0.394888 0.732466 0.964349
P6    P     P_3+3 0.449821 0.744408 0.441351 0.975708
P7    P     P_3+3 0.474621 0.563057 0.691748 0.953505
P8    P     P_3+3 0.390021 0.254604 0.586257 0.961545

loop_
_geom_bond_atom_site_label_1
_geom_bond_atom_site_label_2
_ccdc_geom_bond_type
O6    P7    D    
C35   H23   S    
C38   C39   S    
C7    C49   D    
Ba1   O15   S    
C17   H35   S    
C22   H38   S    
Ba1   O10   S    
C42   H53   S    
O28   P7    S    
C5    C6    S    
C42   H54   S    
O10   P6    S    
O11   P6    D    
C9    C17   A    
O7    P7    S    
Ba2   O26   S    
O9    P8    S    
C35   H34   S    
C41   O19   S    
O4    P1    S    
C22   C24   A    
Ba1   O16   S    
C8    C13   A    
C40   H47   S    
C36   C37   S    
C1    H3    S    
C43   H58   S    
C38   O12   S    
O12   P2    S    
C2    P6    S    
O2    P5    D    
O13   P1    S    
C15   H28   S    
C4    H37   S    
O8    P8    D    
Ba1   Ba2   S    
C10   P4    S    
C36   H56   S    
C45   H18   S    
C39   H4    S    
C4    O23   S    
C36   O13   S    
C44   O22   D    
Ba2   O4    S    
C12   H1    S    
C29   C30   A    
C26   C33   A    
C6    C7    D    
C37   H62   S    
C20   H40   S    
C47   H24   S    
C40   O18   S    
C23   H9    S    
O16   P3    S    
O23   P3    S    
C43   H57   S    
O14   P6    S    
C29   H39   S    
C37   H60   S    
C26   P7    S    
C19   C20   A    
O17   P3    D    
C46   H21   S    
C12   H7    S    
C14   O20   S    
C48   H27   S    
C35   H12   S    
C42   H52   S    
C33   H42   S    
Ba2   O5    S    
C45   O3    S    
C4    C16   S    
C28   O27   S    
C2    C49   S    
Ba2   O25   S    
O24   P4    D    
C41   H49   S    
C40   H46   S    
O27   P4    S    
C3    C5    D    
C34   H14   S    
C14   C15   D    
C4    H26   S    
Ba1   O4    S    
C23   C34   S    
C16   H16   S    
C12   O14   S    
C28   C35   S    
C34   H11   S    
C24   P3    S    
C41   H50   S    
C39   H5    S    
C28   H44   S    
Ba1   P1    S    
C48   H25   S    
C18   H41   S    
C9    P8    S    
C45   C46   S    
C21   C22   A    
C21   C32   S    
C31   C32   T    
C43   O21   S    
C23   H10   S    
C10   C11   A    
C25   H36   S    
O15   P2    D    
C1    C12   S    
C48   O19   S    
C37   H61   S    
C38   O18   S    
C38   H2    S    
C44   H59   S    
C16   H43   S    
C47   H22   S    
C1    H15   S    
Ba1   O1    S    
C46   H20   S    
C23   O7    S    
C45   H17   S    
C43   H55   S    
C42   O20   S    
C13   C15   S    
C27   C33   A    
C5    C14   S    
C8    H30   S    
C25   C30   A    
Ba2   O24   S    
O29   P5    S    
C28   C44   S    
C19   P2    S    
C46   H19   S    
C2    C3    S    
C27   P5    S    
O3    P5    S    
Ba2   O6    S    
Ba2   P4    S    
C11   H32   S    
O26   P8    S    
O5    P2    S    
O1    P1    D    
C11   C13   A    
C41   H51   S    
C39   H6    S    
C27   C29   A    
Ba1   P2    S    
C40   H48   S    
C30   C31   S    
C3    H31   S    
C18   C24   A    
O25   P4    S    
Ba2   O29   S    
C47   O9    S    
C10   C17   A    
C16   O21   S    
Ba1   O5    S    
Ba1   O28   S    
C8    C9    A    
C7    P1    S    
C18   C19   A    
C47   C48   S    
C36   H45   S    
C25   C26   A    
C6    H29   S    
Ba2   O28   S    
C20   C21   A    
C34   H13   S    
C49   H33   S    
Ba1   O25   S    
C1    H8    S    
