data_mof_unit_51094.cif
_audit_creation_date              2012-12-10T20:51:43-0500
_audit_creation_method            fapswitch 2.2
_symmetry_space_group_name_H-M    P1
_symmetry_Int_Tables_number       1
_space_group_crystal_system       triclinic
_cell_length_a                    8.103072
_cell_length_b                    8.934879
_cell_length_c                    16.916403
_cell_angle_alpha                 89.505987
_cell_angle_beta                  93.92602
_cell_angle_gamma                 90.002117
_cell_volume                      1221.82729892

loop_
_atom_site_label
_atom_site_type_symbol
_atom_type_description
_atom_site_fract_x
_atom_site_fract_y
_atom_site_fract_z
_atom_type_partial_charge
C1    C     C_R   0.499973 0.217978 0.500008 0.942697
C2    C     C_R   0.606880 0.575218 0.142070 -0.211805
C3    C     C_R   0.551375 0.518954 0.903909 0.299340
C4    C     C_R   0.452514 0.583545 0.098748 0.301309
C5    C     C_R   0.695372 0.489496 0.864598 0.172830
C6    C     C_R   0.305222 0.575834 0.138099 0.175976
C7    C     C_R   0.684489 0.482604 0.782090 -0.257048
C8    C     C_R   0.314711 0.547377 0.219512 -0.259204
C9    C     C_1   0.499981 0.065183 0.499997 -0.194003
C10   C     C_1   0.500016 0.934814 0.499988 -0.192485
C11   C     C_3   0.861152 0.467196 0.909678 -0.438373
C12   C     C_R   0.500026 0.782022 0.499984 0.941105
C13   C     C_3   0.874242 0.311395 0.947353 -0.845585
C14   C     C_3   0.137877 0.591261 0.093618 -0.437505
C15   C     C_3   0.102662 0.753983 0.069939 -0.859033
C16   C     C_R   0.520518 0.497925 0.653610 0.880588
C17   C     C_R   0.479516 0.505850 0.346414 0.880798
C18   C     C_R   0.531506 0.501193 0.739433 -0.060962
C19   C     C_R   0.469005 0.530259 0.261319 -0.062280
C20   C     C_R   0.388139 0.525163 0.778971 -0.233244
C21   C     C_R   0.614774 0.547430 0.222480 -0.230621
C22   C     C_R   0.397562 0.533972 0.860435 -0.210475
H1    H     H_    0.735387 0.538839 0.254030 0.171978
H2    H     H_    0.963482 0.480862 0.869641 0.200811
H3    H     H_    0.879052 0.553771 0.956068 0.214931
H4    H     H_    0.110079 0.825989 0.123280 0.265614
H5    H     H_    0.192745 0.794447 0.028021 0.268051
H6    H     H_    0.976255 0.763591 0.040621 0.242604
H7    H     H_    0.133066 0.520186 0.040054 0.216264
H8    H     H_    0.038112 0.551658 0.130629 0.201691
H9    H     H_    0.268507 0.538754 0.747008 0.171108
H10   H     H_    0.721594 0.585929 0.113187 0.159923
H11   H     H_    0.284066 0.552125 0.889284 0.157223
H12   H     H_    0.795054 0.461780 0.751269 0.164096
H13   H     H_    0.201891 0.538805 0.250158 0.163886
H14   H     H_    0.781224 0.296793 0.992022 0.268746
H15   H     H_    0.854684 0.224376 0.901140 0.263796
H16   H     H_    0.999322 0.295776 0.977321 0.242267
N1    N     N_1   0.073640 0.500030 0.499990 -0.038511
N2    N     N_1   0.926360 0.499970 0.500010 -0.038521
N3    N     N_2   0.563778 0.527124 0.987190 -0.203993
N4    N     N_2   0.442286 0.586808 0.015348 -0.206359
O1    O     O_R   0.636850 0.285340 0.500000 -0.613920
O2    O     O_R   0.363150 0.714660 0.500000 -0.614982
O3    O     O_R   0.363100 0.285350 0.500000 -0.613389
O4    O     O_R   0.636900 0.714650 0.500000 -0.614412
O5    O     O_R   0.652140 0.498630 0.616140 -0.625220
O6    O     O_R   0.347860 0.501370 0.383860 -0.625141
O7    O     O_R   0.378390 0.498650 0.616130 -0.624703
O8    O     O_R   0.621610 0.501350 0.383870 -0.625080
Zn1   Zn    Zn3+2 0.682780 0.499990 0.500010 0.984565
Zn2   Zn    Zn3+2 0.317220 0.500010 0.499990 0.984655

loop_
_geom_bond_atom_site_label_1
_geom_bond_atom_site_label_2
_ccdc_geom_bond_type
C17   O8    A    
C2    C4    A    
C19   C21   A    
O2    Zn2   S    
C6    C14   S    
N2    Zn1   S    
C9    C10   T    
C8    H13   S    
C13   H15   S    
C17   O6    A    
C7    C18   A    
O1    Zn1   S    
O7    Zn2   S    
C2    C21   A    
N1    Zn2   S    
C15   H6    S    
C12   O4    A    
C12   O2    A    
C11   C13   S    
C1    O3    A    
C13   H16   S    
C4    N4    S    
C14   H8    S    
C10   C12   S    
C16   O5    A    
C16   C18   S    
C17   C19   S    
C20   C22   A    
C5    C11   S    
C18   C20   A    
C21   H1    S    
C7    H12   S    
C8    C19   A    
C11   H3    S    
C14   H7    S    
C3    C5    A    
C11   H2    S    
O6    Zn2   S    
C1    C9    S    
C16   O7    A    
C13   H14   S    
C2    H10   S    
C4    C6    A    
N3    N4    D    
N1    N2    T    
C5    C7    A    
C22   H11   S    
C14   C15   S    
C3    N3    S    
C3    C22   A    
C6    C8    A    
O3    Zn2   S    
O8    Zn1   S    
C15   H5    S    
O4    Zn1   S    
C1    O1    A    
O5    Zn1   S    
C15   H4    S    
C20   H9    S    
