data_mof_unit_62607.cif
_audit_creation_date              2013-03-05T15:54:10-0500
_audit_creation_method            fapswitch 2.2
_symmetry_space_group_name_H-M    P1
_symmetry_Int_Tables_number       1
_space_group_crystal_system       orthorhombic
_cell_length_a                    23.679052
_cell_length_b                    23.679051
_cell_length_c                    47.145468
_cell_angle_alpha                 90.0
_cell_angle_beta                  90.0
_cell_angle_gamma                 90.0
_cell_volume                      26434.3450982

loop_
_atom_site_label
_atom_site_type_symbol
_atom_site_description
_atom_site_fract_x
_atom_site_fract_y
_atom_site_fract_z
_atom_type_partial_charge
O1    O     O_R   0.952780 0.418580 0.499940 -0.570997
O2    O     O_R   0.581420 0.952780 0.499940 -0.571000
O3    O     O_R   0.047220 0.581420 0.499940 -0.570998
O4    O     O_R   0.418580 0.047220 0.499940 -0.571000
O5    O     O_R   0.952780 0.581420 0.500060 -0.571000
O6    O     O_R   0.581420 0.047220 0.500060 -0.570998
O7    O     O_R   0.047220 0.418580 0.500060 -0.571001
O8    O     O_R   0.418580 0.952780 0.500060 -0.570997
O9    O     O_R   0.452780 0.918580 0.999940 -0.571000
O10   O     O_R   0.081420 0.452780 0.999940 -0.570997
O11   O     O_R   0.547220 0.081420 0.999940 -0.571001
O12   O     O_R   0.918580 0.547220 0.999940 -0.570998
O13   O     O_R   0.452780 0.081420 0.000060 -0.570998
O14   O     O_R   0.081420 0.547220 0.000060 -0.571001
O15   O     O_R   0.547220 0.918580 0.000060 -0.570998
O16   O     O_R   0.918580 0.452780 0.000060 -0.571000
C1    C     C_R   0.000000 0.391522 0.500000 0.822880
C2    C     C_R   0.608478 1.000000 0.500000 0.822883
C3    C     C_R   1.000000 0.608478 0.500000 0.822880
C4    C     C_R   0.391522 1.000000 0.500000 0.822884
C5    C     C_R   0.500000 0.891522 0.000000 0.822881
C6    C     C_R   0.108478 0.500000 0.000000 0.822884
C7    C     C_R   0.500000 0.108478 0.000000 0.822881
C8    C     C_R   0.891522 0.500000 0.000000 0.822885
O17   O     O_R   0.952780 0.500010 0.458880 -0.582267
O18   O     O_R   0.499990 0.952780 0.458880 -0.582267
O19   O     O_R   0.047220 0.499990 0.458880 -0.582267
O20   O     O_R   0.500010 0.047220 0.458880 -0.582267
O21   O     O_R   0.952780 0.499990 0.541120 -0.582263
O22   O     O_R   0.499990 0.047220 0.541120 -0.582269
O23   O     O_R   0.047220 0.500010 0.541120 -0.582264
O24   O     O_R   0.500010 0.952780 0.541120 -0.582269
O25   O     O_R   0.452780 0.000010 0.958880 -0.582264
O26   O     O_R   0.999990 0.452780 0.958880 -0.582270
O27   O     O_R   0.547220 0.999990 0.958880 -0.582265
O28   O     O_R   0.000010 0.547220 0.958880 -0.582271
O29   O     O_R   0.452780 0.999990 0.041120 -0.582268
O30   O     O_R   0.999990 0.547220 0.041120 -0.582268
O31   O     O_R   0.547220 0.000010 0.041120 -0.582268
O32   O     O_R   0.000010 0.452780 0.041120 -0.582267
C9    C     C_R   0.000000 0.500000 0.445341 0.803893
C10   C     C_R   0.500000 1.000000 0.445341 0.803893
C11   C     C_R   0.000000 0.500000 0.554659 0.803887
C12   C     C_R   0.500000 1.000000 0.554659 0.803894
C13   C     C_R   0.500000 1.000000 0.945341 0.803890
C14   C     C_R   0.000000 0.500000 0.945341 0.803897
C15   C     C_R   0.500000 1.000000 0.054659 0.803892
C16   C     C_R   0.000000 0.500000 0.054659 0.803892
Cu1   Cu    Cu3+1 0.944110 0.500000 0.500000 1.007225
Cu2   Cu    Cu3+1 0.500000 0.944110 0.500000 1.007222
Cu3   Cu    Cu3+1 0.055890 0.500000 0.500000 1.007225
Cu4   Cu    Cu3+1 0.500000 0.055890 0.500000 1.007222
Cu5   Cu    Cu3+1 0.444110 0.000000 0.000000 1.007223
Cu6   Cu    Cu3+1 0.000000 0.444110 0.000000 1.007220
Cu7   Cu    Cu3+1 0.555890 0.000000 0.000000 1.007223
Cu8   Cu    Cu3+1 0.000000 0.555890 0.000000 1.007220
Cu9   Cu    Cu3+1 0.000000 1.000000 0.471960 1.034754
Cu10  Cu    Cu3+1 0.000000 0.000000 0.528040 1.034751
Cu11  Cu    Cu3+1 0.500000 0.500000 0.971960 1.034758
Cu12  Cu    Cu3+1 0.500000 0.500000 0.028040 1.034755
C17   C     C_R   0.036189 0.464996 0.189942 0.597023
C18   C     C_R   0.535002 0.036190 0.189942 0.597024
C19   C     C_R   0.963811 0.535004 0.189942 0.597023
C20   C     C_R   0.464998 0.963809 0.189942 0.597023
C21   C     C_R   0.036206 0.534985 0.810058 0.597026
C22   C     C_R   0.535015 0.963823 0.810057 0.597018
C23   C     C_R   0.963793 0.465014 0.810058 0.597027
C24   C     C_R   0.464984 0.036177 0.810057 0.597019
C25   C     C_R   0.536201 0.965009 0.689942 0.597025
C26   C     C_R   0.035021 0.536172 0.689942 0.597017
C27   C     C_R   0.463799 0.034991 0.689942 0.597025
C28   C     C_R   0.964979 0.463828 0.689942 0.597017
C29   C     C_R   0.536188 0.035005 0.310057 0.597022
C30   C     C_R   0.035003 0.463811 0.310057 0.597022
C31   C     C_R   0.463813 0.964995 0.310057 0.597022
C32   C     C_R   0.964997 0.536189 0.310057 0.597022
N1    N     N_R   0.000000 0.500000 0.175845 -0.478789
N2    N     N_R   0.500000 1.000000 0.175845 -0.478790
N3    N     N_R   0.000000 0.500000 0.824155 -0.478793
N4    N     N_R   0.500000 1.000000 0.824156 -0.478786
N5    N     N_R   0.500000 0.000000 0.675844 -0.478792
N6    N     N_R   0.000000 0.500000 0.675844 -0.478785
N7    N     N_R   0.500000 1.000000 0.324155 -0.478788
N8    N     N_R   0.000000 0.500000 0.324155 -0.478788
C33   C     C_R   0.962767 0.536076 0.219901 -0.143754
C34   C     C_R   0.463926 0.962764 0.219901 -0.143754
C35   C     C_R   0.037233 0.463924 0.219901 -0.143754
C36   C     C_R   0.536074 0.037235 0.219901 -0.143754
C37   C     C_R   0.962746 0.463945 0.780099 -0.143753
C38   C     C_R   0.463910 0.037220 0.780099 -0.143754
C39   C     C_R   0.037254 0.536055 0.780099 -0.143754
C40   C     C_R   0.536090 0.962780 0.780099 -0.143754
C41   C     C_R   0.462753 0.036062 0.719901 -0.143754
C42   C     C_R   0.963903 0.462787 0.719901 -0.143754
C43   C     C_R   0.537247 0.963938 0.719901 -0.143753
C44   C     C_R   0.036097 0.537213 0.719901 -0.143754
C45   C     C_R   0.462768 0.963922 0.280099 -0.143754
C46   C     C_R   0.963924 0.537234 0.280099 -0.143754
C47   C     C_R   0.537232 0.036078 0.280099 -0.143755
C48   C     C_R   0.036076 0.462766 0.280099 -0.143754
C49   C     C_R   0.000000 0.500000 0.234951 -0.078014
C50   C     C_R   0.500000 1.000000 0.234951 -0.078015
C51   C     C_R   0.000000 0.500000 0.765049 -0.078016
C52   C     C_R   0.500000 0.000000 0.765049 -0.078013
C53   C     C_R   0.500000 1.000000 0.734951 -0.078015
C54   C     C_R   0.000000 0.500000 0.734951 -0.078012
C55   C     C_R   0.500000 1.000000 0.265049 -0.078015
C56   C     C_R   0.000000 0.500000 0.265049 -0.078015
C57   C     C_R   0.926219 0.572429 0.235152 0.249642
C58   C     C_R   0.427575 0.926214 0.235152 0.249643
C59   C     C_R   0.073781 0.427571 0.235152 0.249643
C60   C     C_R   0.572425 0.073785 0.235152 0.249642
C61   C     C_R   0.926175 0.427615 0.764848 0.249639
C62   C     C_R   0.427541 0.073752 0.764848 0.249642
C63   C     C_R   0.073825 0.572385 0.764848 0.249639
C64   C     C_R   0.572459 0.926248 0.764848 0.249642
C65   C     C_R   0.426189 0.072399 0.735152 0.249641
C66   C     C_R   0.927527 0.426262 0.735152 0.249643
C67   C     C_R   0.573811 0.927601 0.735152 0.249640
C68   C     C_R   0.072473 0.573738 0.735152 0.249644
C69   C     C_R   0.426223 0.927567 0.264848 0.249642
C70   C     C_R   0.927572 0.573782 0.264848 0.249642
C71   C     C_R   0.573778 0.072433 0.264848 0.249643
C72   C     C_R   0.072428 0.426218 0.264848 0.249642
O33   O     O_2   0.071080 0.431630 0.174764 -0.458088
O34   O     O_2   0.568367 0.071083 0.174764 -0.458088
O35   O     O_2   0.928920 0.568370 0.174764 -0.458088
O36   O     O_2   0.431633 0.928916 0.174764 -0.458088
O37   O     O_2   0.071112 0.568337 0.825236 -0.458086
O38   O     O_2   0.568392 0.928940 0.825236 -0.458089
O39   O     O_2   0.928888 0.431662 0.825236 -0.458086
O40   O     O_2   0.431608 0.071060 0.825236 -0.458090
O41   O     O_2   0.571102 0.931652 0.674764 -0.458086
O42   O     O_2   0.068402 0.571050 0.674764 -0.458089
O43   O     O_2   0.428898 0.068348 0.674764 -0.458086
O44   O     O_2   0.931598 0.428950 0.674764 -0.458090
O45   O     O_2   0.571078 0.068372 0.325236 -0.458088
O46   O     O_2   0.068369 0.428918 0.325236 -0.458088
O47   O     O_2   0.428922 0.931627 0.325236 -0.458088
O48   O     O_2   0.931631 0.571081 0.325236 -0.458088
C73   C     C_R   0.951133 0.484760 0.369587 -0.075266
C74   C     C_R   0.515242 0.951133 0.369587 -0.075265
C75   C     C_R   0.048867 0.515240 0.369587 -0.075265
C76   C     C_R   0.484758 0.048867 0.369587 -0.075265
C77   C     C_R   0.951138 0.515257 0.630413 -0.075262
C78   C     C_R   0.515229 0.048871 0.630413 -0.075269
C79   C     C_R   0.048862 0.484743 0.630413 -0.075263
C80   C     C_R   0.484771 0.951129 0.630413 -0.075268
C81   C     C_R   0.451136 0.984748 0.869587 -0.075263
C82   C     C_R   0.015224 0.451127 0.869587 -0.075269
C83   C     C_R   0.548864 0.015252 0.869587 -0.075263
C84   C     C_R   0.984776 0.548872 0.869587 -0.075269
C85   C     C_R   0.451132 0.015240 0.130413 -0.075266
C86   C     C_R   0.015241 0.548867 0.130413 -0.075265
C87   C     C_R   0.548868 0.984760 0.130413 -0.075266
C88   C     C_R   0.984759 0.451133 0.130413 -0.075265
H1    H     H_    0.913276 0.472598 0.358240 0.163761
H2    H     H_    0.527405 0.913277 0.358240 0.163761
H3    H     H_    0.086724 0.527402 0.358240 0.163761
H4    H     H_    0.472595 0.086722 0.358240 0.163762
H5    H     H_    0.913286 0.527432 0.641760 0.163768
H6    H     H_    0.527382 0.086730 0.641760 0.163757
H7    H     H_    0.086714 0.472568 0.641760 0.163768
H8    H     H_    0.472618 0.913270 0.641760 0.163757
H9    H     H_    0.413283 0.972578 0.858240 0.163765
H10   H     H_    0.027373 0.413267 0.858240 0.163754
H11   H     H_    0.586717 0.027422 0.858240 0.163765
H12   H     H_    0.972627 0.586733 0.858240 0.163754
H13   H     H_    0.413276 0.027401 0.141760 0.163760
H14   H     H_    0.027404 0.586723 0.141760 0.163761
H15   H     H_    0.586724 0.972599 0.141760 0.163760
H16   H     H_    0.972596 0.413277 0.141760 0.163760
C89   C     C_R   0.950974 0.485140 0.399151 -0.193094
C90   C     C_R   0.514862 0.950975 0.399151 -0.193096
C91   C     C_R   0.049026 0.514860 0.399151 -0.193095
C92   C     C_R   0.485138 0.049025 0.399151 -0.193096
C93   C     C_R   0.950979 0.514876 0.600849 -0.193098
C94   C     C_R   0.514849 0.049029 0.600849 -0.193093
C95   C     C_R   0.049021 0.485123 0.600849 -0.193098
C96   C     C_R   0.485150 0.950971 0.600849 -0.193093
C97   C     C_R   0.450977 0.985129 0.899151 -0.193097
C98   C     C_R   0.014844 0.450969 0.899151 -0.193093
C99   C     C_R   0.549022 0.014871 0.899151 -0.193098
C100  C     C_R   0.985155 0.549031 0.899151 -0.193093
C101  C     C_R   0.450974 0.014859 0.100849 -0.193095
C102  C     C_R   0.014861 0.549026 0.100849 -0.193095
C103  C     C_R   0.549026 0.985140 0.100849 -0.193095
C104  C     C_R   0.985139 0.450974 0.100849 -0.193095
H17   H     H_    0.912733 0.473226 0.410241 0.171222
H18   H     H_    0.526777 0.912734 0.410241 0.171221
H19   H     H_    0.087266 0.526774 0.410241 0.171222
H20   H     H_    0.473223 0.087265 0.410241 0.171221
H21   H     H_    0.912742 0.526803 0.589758 0.171217
H22   H     H_    0.526755 0.087272 0.589759 0.171225
H23   H     H_    0.087257 0.473197 0.589758 0.171217
H24   H     H_    0.473245 0.912727 0.589759 0.171225
H25   H     H_    0.412739 0.973206 0.910241 0.171218
H26   H     H_    0.026746 0.412724 0.910241 0.171226
H27   H     H_    0.587260 0.026794 0.910241 0.171218
H28   H     H_    0.973254 0.587275 0.910241 0.171226
H29   H     H_    0.412733 0.026773 0.089759 0.171222
H30   H     H_    0.026776 0.587266 0.089759 0.171221
H31   H     H_    0.587267 0.973227 0.089759 0.171222
H32   H     H_    0.973224 0.412734 0.089759 0.171221
C105  C     C_R   0.000000 0.500000 0.414167 -0.047945
C106  C     C_R   0.500000 1.000000 0.414167 -0.047944
C107  C     C_R   1.000000 0.500000 0.585832 -0.047940
C108  C     C_R   0.500000 1.000000 0.585833 -0.047948
C109  C     C_R   0.500000 0.000000 0.914167 -0.047941
C110  C     C_R   0.000000 0.500000 0.914167 -0.047950
C111  C     C_R   0.500000 1.000000 0.085833 -0.047945
C112  C     C_R   0.000000 0.500000 0.085833 -0.047945
C113  C     C_R   1.000000 0.500000 0.354654 0.313926
C114  C     C_R   0.500000 1.000000 0.354654 0.313925
C115  C     C_R   0.000000 0.500000 0.645346 0.313917
C116  C     C_R   0.500000 1.000000 0.645346 0.313932
C117  C     C_R   0.500000 1.000000 0.854654 0.313920
C118  C     C_R   0.000000 0.500000 0.854654 0.313936
C119  C     C_R   0.500000 1.000000 0.145346 0.313927
C120  C     C_R   0.000000 0.500000 0.145346 0.313925
C121  C     C_1   0.000000 0.330403 0.500000 -0.150962
C122  C     C_1   0.669597 1.000000 0.500000 -0.150961
C123  C     C_1   1.000000 0.669597 0.500000 -0.150962
C124  C     C_1   0.330403 1.000000 0.500000 -0.150961
C125  C     C_1   0.500000 0.830403 1.000000 -0.150962
C126  C     C_1   0.169597 0.500000 0.000000 -0.150960
C127  C     C_1   0.500000 0.169597 1.000000 -0.150962
C128  C     C_1   0.830403 0.500000 0.000000 -0.150960
C129  C     C_1   0.000000 0.279183 0.500000 0.031536
C130  C     C_1   0.720817 1.000000 0.500000 0.031537
C131  C     C_1   1.000000 0.720817 0.500000 0.031536
C132  C     C_1   0.279183 1.000000 0.500000 0.031537
C133  C     C_1   0.500000 0.779183 1.000000 0.031536
C134  C     C_1   0.220817 0.500000 0.000000 0.031538
C135  C     C_1   0.500000 0.220817 1.000000 0.031536
C136  C     C_1   0.779183 0.500000 0.000000 0.031538
C137  C     C_1   0.000000 0.219059 0.500000 0.032909
C138  C     C_1   0.780940 1.000000 0.500000 0.032911
C139  C     C_1   1.000000 0.780940 0.500000 0.032909
C140  C     C_1   0.219059 1.000000 0.500000 0.032911
C141  C     C_1   0.500000 0.719059 1.000000 0.032910
C142  C     C_1   0.280940 0.500000 0.000000 0.032911
C143  C     C_1   0.500000 0.280940 1.000000 0.032910
C144  C     C_1   0.719060 0.500000 0.000000 0.032911
C145  C     C_1   0.000000 0.167839 0.500000 -0.143381
C146  C     C_1   0.832161 1.000000 0.500000 -0.143380
C147  C     C_1   1.000000 0.832161 0.500000 -0.143381
C148  C     C_1   0.167839 1.000000 0.500000 -0.143380
C149  C     C_1   0.500000 0.667839 0.000000 -0.143380
C150  C     C_1   0.332161 0.500000 0.000000 -0.143379
C151  C     C_1   0.500000 0.332161 0.000000 -0.143380
C152  C     C_1   0.667839 0.500000 0.000000 -0.143379
O49   O     O_R   0.080090 0.000000 0.475550 -0.563701
O50   O     O_R   0.000000 0.080090 0.475550 -0.563701
O51   O     O_R   0.919910 0.000000 0.475550 -0.563701
O52   O     O_R   0.000000 0.919910 0.475550 -0.563701
O53   O     O_R   0.080090 1.000000 0.524450 -0.563702
O54   O     O_R   0.000000 0.919910 0.524450 -0.563703
O55   O     O_R   0.919910 1.000000 0.524450 -0.563702
O56   O     O_R   1.000000 0.080090 0.524450 -0.563702
O57   O     O_R   0.580090 0.500000 0.975550 -0.563700
O58   O     O_R   0.500000 0.580090 0.975550 -0.563701
O59   O     O_R   0.419910 0.500000 0.975550 -0.563700
O60   O     O_R   0.500000 0.419910 0.975550 -0.563701
O61   O     O_R   0.580090 0.500000 0.024450 -0.563702
O62   O     O_R   0.500000 0.419910 0.024450 -0.563701
O63   O     O_R   0.419910 0.500000 0.024450 -0.563702
O64   O     O_R   0.500000 0.580090 0.024450 -0.563701
C153  C     C_R   0.106719 1.000000 0.500000 0.793102
C154  C     C_R   0.000000 0.106719 0.500000 0.793102
C155  C     C_R   0.893281 1.000000 0.500000 0.793102
C156  C     C_R   1.000000 0.893281 0.500000 0.793102
C157  C     C_R   0.606719 0.500000 0.000000 0.793101
C158  C     C_R   0.500000 0.606719 0.000000 0.793101
C159  C     C_R   0.393281 0.500000 0.000000 0.793101
C160  C     C_R   0.500000 0.393281 0.000000 0.793101
N9    N     N_R   0.887247 0.608947 0.220851 0.193012
O65   O     O_R   0.896558 0.663062 0.220050 -0.252431
O66   O     O_R   0.838835 0.589251 0.212344 -0.246937
N10   N     N_R   0.391061 0.887240 0.220851 0.193012
O67   O     O_R   0.336945 0.896545 0.220051 -0.252430
O68   O     O_R   0.410761 0.838830 0.212344 -0.246939
N11   N     N_R   0.112753 0.391053 0.220851 0.193012
O69   O     O_R   0.103442 0.336938 0.220050 -0.252431
O70   O     O_R   0.161164 0.410749 0.212344 -0.246938
N12   N     N_R   0.608940 0.112759 0.220851 0.193012
O71   O     O_R   0.663056 0.103453 0.220051 -0.252430
O72   O     O_R   0.589240 0.161170 0.212344 -0.246939
N13   N     N_R   0.887176 0.391126 0.779149 0.193010
O73   O     O_R   0.896439 0.337003 0.779944 -0.252417
O74   O     O_R   0.838784 0.410862 0.787661 -0.246950
N14   N     N_R   0.391004 0.112705 0.779149 0.193014
O75   O     O_R   0.336895 0.103363 0.779953 -0.252443
O76   O     O_R   0.410674 0.161131 0.787652 -0.246926
N15   N     N_R   0.112824 0.608873 0.779149 0.193010
O77   O     O_R   0.103561 0.662997 0.779944 -0.252417
O78   O     O_R   0.161216 0.589138 0.787661 -0.246950
N16   N     N_R   0.608996 0.887295 0.779149 0.193014
O79   O     O_R   0.663105 0.896637 0.779953 -0.252443
O80   O     O_R   0.589326 0.838869 0.787652 -0.246926
N17   N     N_R   0.387199 0.108897 0.720851 0.193010
O81   O     O_R   0.396478 0.163018 0.720054 -0.252419
O82   O     O_R   0.338800 0.089174 0.712341 -0.246948
N18   N     N_R   0.890981 0.387317 0.720851 0.193015
O83   O     O_R   0.836874 0.396674 0.720045 -0.252444
O84   O     O_R   0.910638 0.338886 0.712349 -0.246924
N19   N     N_R   0.612801 0.891103 0.720851 0.193011
O85   O     O_R   0.603522 0.836982 0.720054 -0.252419
O86   O     O_R   0.661200 0.910826 0.712341 -0.246948
N20   N     N_R   0.109019 0.612683 0.720851 0.193014
O87   O     O_R   0.163126 0.603326 0.720045 -0.252445
O88   O     O_R   0.089362 0.661114 0.712349 -0.246924
N21   N     N_R   0.387254 0.891047 0.279149 0.193012
O89   O     O_R   0.396569 0.836932 0.279950 -0.252433
O90   O     O_R   0.338840 0.910739 0.287655 -0.246936
N22   N     N_R   0.891054 0.612753 0.279149 0.193012
O91   O     O_R   0.836939 0.603443 0.279950 -0.252431
O92   O     O_R   0.910750 0.661166 0.287655 -0.246938
N23   N     N_R   0.612746 0.108953 0.279149 0.193012
O93   O     O_R   0.603431 0.163067 0.279950 -0.252433
O94   O     O_R   0.661161 0.089261 0.287655 -0.246936
N24   N     N_R   0.108946 0.387246 0.279149 0.193012
O95   O     O_R   0.163061 0.396557 0.279950 -0.252431
O96   O     O_R   0.089250 0.338834 0.287655 -0.246937

loop_
_geom_bond_atom_site_label_1
_geom_bond_atom_site_label_2
_geom_bond_distance
_ccdc_geom_bond_type
N24   O96   1.300947 A    
O25   C13   1.287491 A    
Cu11  O58   1.903993 S    
C75   C91   1.393852 A    
Cu12  O61   1.903993 S    
C95   H23   1.083002 S    
N17   O81   1.300775 A    
O63   C159  1.313892 A    
C93   H21   1.083002 S    
C34   C58   1.416659 A    
O18   Cu2   1.949467 S    
N5    C116  1.437875 S    
C32   C46   1.412843 A    
C46   C56   1.417929 A    
C102  H30   1.083003 S    
C21   C39   1.412848 A    
C92   C106  1.404514 A    
Cu9   O50   1.903993 S    
C148  C153  1.447273 S    
C16   C112  1.469699 S    
Cu1   Cu3   2.646847 S    
C94   C108  1.404514 A    
Cu2   Cu4   2.646847 S    
O3    C3    1.288682 A    
C76   H4    1.082882 S    
C96   H24   1.083002 S    
C28   C42   1.412843 A    
C32   O48   1.348670 S    
Cu11  Cu12  2.643923 S    
C19   C33   1.412848 A    
O5    Cu1   1.938850 S    
C74   H2    1.082884 S    
C52   C53   1.418970 A    
O58   C158  1.313897 A    
C95   C107  1.404512 A    
C71   N23   1.433128 S    
C141  C149  1.212853 T    
O17   C9    1.287491 A    
C18   O34   1.348667 S    
C30   C48   1.412843 A    
C43   C67   1.416662 A    
C14   C110  1.469699 S    
C18   C36   1.412848 A    
Cu10  O56   1.903993 S    
N22   O91   1.300773 A    
C48   C72   1.416657 A    
O23   Cu3   1.949462 S    
N2    C119  1.437880 S    
C78   H6    1.082883 S    
C4    C124  1.447240 S    
C137  C145  1.212853 T    
C88   C120  1.401715 A    
C81   C117  1.401717 A    
C151  C160  1.447273 S    
C75   H3    1.082884 S    
C40   C64   1.416659 A    
C135  C143  1.423670 S    
C73   H1    1.082883 S    
C92   H20   1.083001 S    
C103  C111  1.404516 A    
O26   Cu6   1.949467 S    
N16   O79   1.300775 A    
C91   C105  1.404514 A    
Cu12  O63   1.903995 S    
C129  C137  1.423670 S    
O27   C13   1.287489 A    
O8    Cu2   1.938853 S    
O31   C15   1.287489 A    
O32   C16   1.287491 A    
C94   H22   1.083002 S    
C59   C72   1.400779 A    
O56   C154  1.313892 A    
C39   C51   1.417931 A    
C25   C43   1.412848 A    
C36   C50   1.417930 A    
C27   C41   1.412848 A    
C62   N14   1.433131 S    
Cu9   O52   1.903995 S    
N14   O76   1.300950 A    
C87   C103  1.393852 A    
C76   C114  1.401715 A    
C147  C156  1.447273 S    
C104  C112  1.404517 A    
O9    C5    1.288684 A    
C29   O45   1.348671 S    
C83   H11   1.082882 S    
O11   C7    1.288682 A    
C104  H32   1.083003 S    
C38   C62   1.416659 A    
C26   N6    1.364942 A    
O16   Cu6   1.938853 S    
C1    C121  1.447240 S    
C40   C52   1.417931 A    
N6    C115  1.437885 S    
C45   C55   1.417929 A    
C79   C95   1.393852 A    
O64   C158  1.313892 A    
C90   C106  1.404512 A    
O6    Cu4   1.938850 S    
C61   N13   1.433136 S    
C29   N7    1.364940 A    
N12   O72   1.300948 A    
N23   O94   1.300948 A    
C21   N3    1.364940 A    
C15   C111  1.469699 S    
C97   H25   1.083003 S    
N15   O78   1.300951 A    
O21   Cu1   1.949462 S    
C86   C102  1.393852 A    
C86   H14   1.082882 S    
O60   C160  1.313897 A    
O23   C11   1.287489 A    
Cu10  O54   1.903995 S    
Cu11  O59   1.903995 S    
C79   C115  1.401719 A    
C58   C69   1.400774 A    
N21   O90   1.300947 A    
C82   H10   1.082885 S    
C18   N2    1.364940 A    
C98   C110  1.404520 A    
O13   C7    1.288684 A    
C45   C69   1.416659 A    
O2    Cu2   1.938850 S    
C35   C49   1.417929 A    
C17   N1    1.364939 A    
C100  H28   1.083002 S    
C101  C111  1.404515 A    
O28   C14   1.287491 A    
O26   C14   1.287493 A    
O29   C15   1.287491 A    
O30   C16   1.287489 A    
C75   C113  1.401716 A    
O29   Cu5   1.949462 S    
N18   O84   1.300950 A    
N9    O65   1.300771 A    
C37   C51   1.417933 A    
C41   C65   1.416660 A    
C80   C116  1.401718 A    
O19   Cu3   1.949467 S    
O24   C12   1.287493 A    
C48   C56   1.417929 A    
C143  C151  1.212853 T    
C63   N15   1.433135 S    
C80   H8    1.082883 S    
C81   H9    1.082882 S    
N10   O67   1.300771 A    
O62   C160  1.313892 A    
N4    C117  1.437880 S    
C22   C40   1.412843 A    
C88   H16   1.082884 S    
C13   C109  1.469694 S    
O15   Cu7   1.938853 S    
C26   C44   1.412843 A    
C77   H5    1.082884 S    
C24   C38   1.412843 A    
C76   C92   1.393857 A    
N13   O73   1.300778 A    
C50   C55   1.418970 A    
C134  C142  1.423670 S    
O61   C157  1.313892 A    
O32   Cu6   1.949462 S    
O53   C153  1.313892 A    
C65   N17   1.433132 S    
C34   C50   1.417928 A    
N7    C114  1.437880 S    
O55   C155  1.313892 A    
N8    C113  1.437880 S    
O18   C10   1.287491 A    
C26   O42   1.348674 S    
C46   C70   1.416661 A    
O22   Cu4   1.949462 S    
C20   N2    1.364937 A    
Cu11  O57   1.903993 S    
C30   N8    1.364940 A    
C57   N9    1.433129 S    
C127  C135  1.212846 T    
C83   C99   1.393852 A    
C6    C126  1.447240 S    
C22   N4    1.364945 A    
O12   C8    1.288682 A    
O59   C159  1.313897 A    
C126  C134  1.212846 T    
O14   C6    1.288682 A    
C145  C154  1.447273 S    
C31   O47   1.348671 S    
C42   C66   1.416660 A    
Cu9   Cu10  2.643923 S    
Cu9   O49   1.903993 S    
C85   C119  1.401715 A    
C62   C65   1.400779 A    
O30   Cu8   1.949462 S    
C122  C130  1.212846 T    
N11   O69   1.300772 A    
C149  C158  1.447273 S    
C27   N5    1.364940 A    
C89   C105  1.404516 A    
C102  C112  1.404515 A    
C32   N8    1.364941 A    
C82   C98   1.393852 A    
O10   C6    1.288684 A    
C30   O46   1.348670 S    
N16   O80   1.300950 A    
C33   C57   1.416657 A    
C35   C59   1.416659 A    
C103  H31   1.083003 S    
C31   C45   1.412843 A    
C139  C147  1.212853 T    
C101  H29   1.083003 S    
C24   O40   1.348670 S    
O31   Cu7   1.949462 S    
O49   C153  1.313897 A    
C87   C119  1.401715 A    
O54   C156  1.313892 A    
O13   Cu5   1.938850 S    
C49   C56   1.418970 A    
N17   O82   1.300950 A    
N24   O95   1.300773 A    
C80   C96   1.393852 A    
O21   C11   1.287491 A    
C81   C97   1.393852 A    
O22   C12   1.287491 A    
C68   N20   1.433128 S    
Cu12  O64   1.903993 S    
C20   C34   1.412848 A    
C84   H12   1.082885 S    
C123  C131  1.212846 T    
C58   N10   1.433129 S    
C88   C104  1.393852 A    
C11   C107  1.469689 S    
N19   O85   1.300775 A    
C142  C150  1.212853 T    
C3    C123  1.447240 S    
C74   C114  1.401717 A    
C60   C71   1.400778 A    
C146  C155  1.447273 S    
Cu12  O62   1.903995 S    
N15   O77   1.300778 A    
O3    Cu3   1.938850 S    
Cu9   O51   1.903995 S    
O28   Cu8   1.949467 S    
C37   C61   1.416663 A    
C138  C146  1.212853 T    
C23   N3    1.364940 A    
C150  C159  1.447273 S    
C67   N19   1.433134 S    
C90   H18   1.083001 S    
O9    Cu5   1.938853 S    
C86   C120  1.401715 A    
O11   Cu7   1.938850 S    
C72   N24   1.433129 S    
N20   O87   1.300774 A    
O1    C1    1.288684 A    
C21   O37   1.348670 S    
C100  C110  1.404518 A    
O5    C3    1.288684 A    
C47   C55   1.417929 A    
Cu10  O55   1.903995 S    
C125  C133  1.212846 T    
O7    Cu3   1.938853 S    
C27   O43   1.348670 S    
C31   N7    1.364942 A    
N21   O89   1.300771 A    
C78   C116  1.401715 A    
C39   C63   1.416661 A    
C10   C106  1.469699 S    
C2    C122  1.447240 S    
O17   Cu1   1.949467 S    
C25   N5    1.364939 A    
N23   O93   1.300773 A    
C36   C60   1.416657 A    
C121  C129  1.212846 T    
C85   H13   1.082883 S    
C140  C148  1.212853 T    
C79   H7    1.082882 S    
C24   N4    1.364943 A    
O14   Cu8   1.938850 S    
O2    C2    1.288684 A    
C98   H26   1.083002 S    
C12   C108  1.469699 S    
C74   C90   1.393852 A    
O51   C155  1.313897 A    
O52   C156  1.313897 A    
C78   C94   1.393852 A    
O8    C4    1.288684 A    
O4    Cu4   1.938853 S    
C97   C109  1.404514 A    
N14   O75   1.300775 A    
N10   O68   1.300948 A    
C124  C132  1.212846 T    
C91   H19   1.083003 S    
N12   O71   1.300772 A    
C57   C70   1.400774 A    
C28   O44   1.348673 S    
O57   C157  1.313897 A    
C69   N21   1.433130 S    
C23   C37   1.412848 A    
C131  C139  1.423670 S    
O20   C10   1.287489 A    
C43   C53   1.417932 A    
C41   C53   1.417929 A    
C77   C115  1.401718 A    
C20   O36   1.348670 S    
C84   C118  1.401712 A    
C84   C100  1.393852 A    
C17   C35   1.412848 A    
C152  C157  1.447273 S    
C64   N16   1.433131 S    
O16   C8    1.288684 A    
C73   C89   1.393852 A    
C60   N12   1.433130 S    
Cu5   Cu7   2.646847 S    
O25   Cu5   1.949467 S    
O6    C2    1.288682 A    
Cu6   Cu8   2.646847 S    
Cu10  O53   1.903993 S    
O27   Cu7   1.949467 S    
Cu11  O60   1.903995 S    
C73   C113  1.401714 A    
N3    C118  1.437875 S    
O7    C1    1.288682 A    
O50   C154  1.313897 A    
C99   H27   1.083003 S    
C93   C107  1.404514 A    
N19   O86   1.300950 A    
O19   C9    1.287489 A    
C38   C52   1.417928 A    
C83   C117  1.401718 A    
C82   C118  1.401714 A    
C66   N18   1.433132 S    
O24   Cu2   1.949462 S    
O12   Cu8   1.938853 S    
C133  C141  1.423670 S    
N18   O83   1.300777 A    
N9    O66   1.300950 A    
N22   O92   1.300946 A    
C130  C138  1.423670 S    
N20   O88   1.300953 A    
C33   C49   1.417930 A    
C47   C71   1.416658 A    
C19   N1    1.364939 A    
C29   C47   1.412843 A    
C44   C54   1.417930 A    
C42   C54   1.417930 A    
C25   O41   1.348672 S    
C144  C152  1.212853 T    
C44   C68   1.416661 A    
C23   O39   1.348669 S    
C7    C127  1.447240 S    
N1    C120  1.437880 S    
O4    C4    1.288682 A    
C99   C109  1.404512 A    
C5    C125  1.447240 S    
C70   N22   1.433131 S    
C64   C67   1.400774 A    
C136  C144  1.423670 S    
C96   C108  1.404517 A    
O20   Cu4   1.949467 S    
C85   C101  1.393852 A    
C89   H17   1.083005 S    
N13   O74   1.300951 A    
C51   C54   1.418970 A    
C9    C105  1.469699 S    
O10   Cu6   1.938850 S    
C19   O35   1.348669 S    
C128  C136  1.212846 T    
C61   C66   1.400774 A    
C87   H15   1.082883 S    
O15   C5    1.288682 A    
C59   N11   1.433129 S    
C63   C68   1.400779 A    
C77   C93   1.393852 A    
C132  C140  1.423670 S    
C17   O33   1.348669 S    
C8    C128  1.447240 S    
O1    Cu1   1.938853 S    
C28   N6    1.364945 A    
N11   O70   1.300946 A    
C22   O38   1.348671 S    
