data_mof_unit_17955.cif
_audit_creation_date              2012-12-10T17:31:11-0500
_audit_creation_method            fapswitch 2.2
_symmetry_space_group_name_H-M    P1
_symmetry_Int_Tables_number       1
_space_group_crystal_system       triclinic
_cell_length_a                    12.004528
_cell_length_b                    12.888124
_cell_length_c                    15.3835
_cell_angle_alpha                 87.185199
_cell_angle_beta                  114.969381
_cell_angle_gamma                 93.289291
_cell_volume                      2153.24521069

loop_
_atom_site_label
_atom_site_type_symbol
_atom_type_description
_atom_site_fract_x
_atom_site_fract_y
_atom_site_fract_z
_atom_type_partial_charge
C1    C     C_R   0.477338 0.299507 0.498406 0.884377
C2    C     C_R   0.522781 0.700458 0.501873 0.905700
C3    C     C_R   0.674273 0.525370 0.121921 -0.020821
C4    C     C_R   0.424026 0.655223 0.915858 -0.045601
C5    C     C_R   0.755011 0.506714 0.081188 -0.292885
C6    C     C_R   0.338320 0.668272 0.953507 -0.277826
C7    C     C_R   0.536235 0.811714 0.502754 -0.060361
C8    C     C_R   0.464359 0.188175 0.498491 -0.062240
C9    C     C_R   0.359422 0.029368 0.515734 -0.202393
C10   C     C_R   0.641724 0.970514 0.486442 -0.199952
C11   C     C_R   0.365864 0.136919 0.510946 -0.188914
C12   C     C_R   0.634909 0.862990 0.490605 -0.179890
C13   C     C_R   0.555128 0.132713 0.489192 -0.269825
C14   C     C_R   0.445888 0.867106 0.512764 -0.259267
C15   C     C_R   0.549836 0.025932 0.494363 0.177439
C16   C     C_R   0.451364 0.973914 0.507917 0.179447
C17   C     C_R   0.023844 0.625193 0.443133 0.494325
C18   C     C_R   0.978197 0.377597 0.560439 0.461494
C19   C     C_R   0.140788 0.608999 0.444924 -0.128124
C20   C     C_R   0.859608 0.391137 0.555027 -0.132188
C21   C     C_R   0.149409 0.443636 0.520931 -0.012433
C22   C     C_R   0.854316 0.559519 0.485263 0.013909
C23   C     C_R   0.575963 0.495750 0.680386 0.882578
C24   C     C_R   0.424209 0.505442 0.319295 0.878544
C25   C     C_R   0.033342 0.455614 0.522155 -0.113373
C26   C     C_R   0.971006 0.548268 0.484379 -0.094056
C27   C     C_R   0.626004 0.502154 0.784282 -0.067982
C28   C     C_R   0.381980 0.527528 0.216379 -0.072203
C29   C     C_R   0.791824 0.480512 0.941660 -0.183696
C30   C     C_R   0.263124 0.631597 0.075817 -0.187765
C31   C     C_R   0.747338 0.475958 0.842533 -0.190226
C32   C     C_R   0.280583 0.588692 0.165525 -0.200567
C33   C     C_R   0.552483 0.538666 0.825182 -0.194713
C34   C     C_R   0.460191 0.505278 0.174625 -0.187400
C35   C     C_R   0.598846 0.551795 0.924043 0.120790
C36   C     C_R   0.456981 0.561652 0.093620 0.108935
C37   C     C_R   0.716277 0.514130 0.982661 0.150426
C38   C     C_R   0.351812 0.619867 0.040133 0.142120
C39   C     C_R   0.525349 0.590021 0.966254 -0.028469
C40   C     C_R   0.552666 0.558531 0.062464 -0.026859
H1    H     H_    0.847113 0.481760 0.126377 0.172630
H2    H     H_    0.261308 0.717759 0.915744 0.186998
H3    H     H_    0.815676 0.329446 0.581014 0.160605
H4    H     H_    0.185294 0.668890 0.417748 0.142133
H5    H     H_    0.526423 0.446382 0.209095 0.151752
H6    H     H_    0.457323 0.553385 0.779576 0.153738
H7    H     H_    0.218140 0.606579 0.196456 0.153636
H8    H     H_    0.806137 0.448607 0.811772 0.157369
H9    H     H_    0.883573 0.454786 0.986199 0.141404
H10   H     H_    0.183829 0.678118 0.036647 0.143911
H11   H     H_    0.370197 0.827346 0.523341 0.161708
H12   H     H_    0.630820 0.172407 0.478584 0.166211
H13   H     H_    0.705124 0.820250 0.482786 0.177542
H14   H     H_    0.295425 0.179706 0.518393 0.173652
H15   H     H_    0.283514 0.989754 0.525945 0.152546
H16   H     H_    0.717679 0.010137 0.476309 0.157985
H17   H     H_    0.804932 0.629941 0.456933 0.211728
H18   H     H_    0.199979 0.374224 0.551680 0.173791
N1    N     N_R   0.799120 0.480200 0.517090 -0.140354
N2    N     N_R   0.200880 0.519800 0.482910 -0.123837
O1    O     O_R   0.580150 0.341050 0.504560 -0.631641
O2    O     O_R   0.419850 0.658950 0.495440 -0.629389
O3    O     O_R   0.388090 0.353760 0.493600 -0.625520
O4    O     O_R   0.611910 0.646240 0.506400 -0.620526
O5    O     O_R   0.650890 0.490020 0.640860 -0.613653
O6    O     O_R   0.349110 0.509980 0.359140 -0.616815
O7    O     O_R   0.458830 0.502730 0.629890 -0.612370
O8    O     O_R   0.541170 0.497270 0.370110 -0.576723
Zn1   Zn    Zn3+2 0.628240 0.491510 0.507320 0.965722
Zn2   Zn    Zn3+2 0.371760 0.508490 0.492680 0.950386
O9    O     O_3   0.963530 0.717344 0.407767 -0.610858
C41   C     C_3   0.960254 0.745534 0.316855 -0.259424
H19   H     H_    0.942524 0.677394 0.270203 0.153774
H20   H     H_    0.046584 0.788743 0.324730 0.145854
H21   H     H_    0.883718 0.798703 0.279792 0.209556
O10   O     O_3   0.035313 0.284934 0.596175 -0.612343
C42   C     C_3   0.088278 0.286886 0.697175 -0.330069
H22   H     H_    0.016649 0.289156 0.725007 0.161389
H23   H     H_    0.155936 0.353594 0.724145 0.163843
H24   H     H_    0.138664 0.214504 0.726001 0.205597
C43   C     C_2   0.726546 0.516255 0.227297 0.867663
O11   O     O_2   0.711877 0.584352 0.273549 -0.622183
O12   O     O_R   0.791930 0.428304 0.273107 -0.811480
H25   H     H_    0.812242 0.423476 0.343853 0.343542
C44   C     C_2   0.413390 0.722530 0.831570 0.895257
O13   O     O_2   0.505920 0.757750 0.824172 -0.618366
O14   O     O_R   0.297281 0.748077 0.761910 -0.810910
H26   H     H_    0.302005 0.794388 0.708241 0.344486

loop_
_geom_bond_atom_site_label_1
_geom_bond_atom_site_label_2
_ccdc_geom_bond_type
O14   H26   S    
C8    C13   A    
C5    C37   A    
C1    C8    S    
C2    C7    S    
C22   H17   S    
C43   O11   D    
C29   H9    S    
C44   O13   D    
C27   C33   A    
C30   C38   A    
C17   C26   A    
C35   C37   A    
C9    C16   A    
C10   C15   A    
C15   C16   A    
O2    Zn2   S    
C23   O7    A    
C36   C40   A    
C5    H1    S    
C33   C35   A    
C7    C14   A    
C14   H11   S    
O8    Zn1   S    
C3    C43   S    
C6    C38   A    
C9    H15   S    
C23   C27   S    
C10   H16   S    
C34   C36   A    
C12   H13   S    
C24   O6    A    
C44   O14   S    
C30   H10   S    
C28   C34   A    
C33   H6    S    
C18   C25   A    
C41   H21   S    
C1    O3    A    
C43   O12   S    
C2    O4    A    
C42   H23   S    
C7    C12   A    
O3    Zn2   S    
C27   C31   A    
C28   C32   A    
O10   C42   S    
C21   N2    A    
C4    C6    A    
C22   N1    A    
C4    C44   S    
C25   C26   A    
C42   H22   S    
C35   C39   A    
C13   H12   S    
O12   H25   S    
C4    C39   A    
N2    Zn2   S    
C34   H5    S    
O4    Zn1   S    
C20   N1    A    
C9    C11   A    
C11   H14   S    
C10   C12   A    
N1    Zn1   S    
C41   H20   S    
C3    C40   A    
C17   O9    S    
C31   H8    S    
C13   C15   A    
C6    H2    S    
C32   H7    S    
C14   C16   A    
C39   C40   A    
C20   H3    S    
C19   H4    S    
C42   H24   S    
O1    Zn1   S    
C21   C25   A    
C18   O10   S    
C24   C28   S    
C41   H19   S    
C3    C5    A    
C1    O1    A    
C19   N2    A    
O7    Zn2   S    
C23   O5    A    
C36   C38   A    
C21   H18   S    
C29   C31   A    
C30   C32   A    
O6    Zn2   S    
C8    C11   A    
O5    Zn1   S    
C17   C19   A    
C18   C20   A    
C24   O8    A    
O9    C41   S    
C22   C26   A    
C29   C37   A    
C2    O2    A    
