data_mof_unit_29419.cif
_audit_creation_date              2012-12-10T18:46:18-0500
_audit_creation_method            fapswitch 2.2
_symmetry_space_group_name_H-M    P1
_symmetry_Int_Tables_number       1
_space_group_crystal_system       triclinic
_cell_length_a                    9.966634
_cell_length_b                    10.638294
_cell_length_c                    13.238134
_cell_angle_alpha                 92.379085
_cell_angle_beta                  70.969243
_cell_angle_gamma                 90.651818
_cell_volume                      1325.74914381

loop_
_atom_site_label
_atom_site_type_symbol
_atom_type_description
_atom_site_fract_x
_atom_site_fract_y
_atom_site_fract_z
_atom_type_partial_charge
C1    C     C_R   0.501448 0.739132 0.498251 0.960768
C2    C     C_R   0.478419 0.444775 0.958017 -0.033902
C3    C     C_R   0.467513 0.515946 0.874191 -0.066421
C4    C     C_R   0.566615 0.491533 0.016004 -0.146840
C5    C     C_R   0.675220 0.579360 0.969551 -0.024303
C6    C     C_R   0.662876 0.650918 0.885709 0.482252
C7    C     C_R   0.552809 0.623281 0.844435 -0.259661
C8    C     C_R   0.535491 0.467728 0.124617 0.367789
C9    C     C_R   0.754204 0.573690 0.124564 0.329958
C10   C     C_R   0.376448 0.475950 0.817375 -0.131567
C11   C     C_R   0.515388 0.936994 0.587120 0.424071
C12   C     C_R   0.421330 0.500028 0.703366 0.892050
C13   C     C_R   0.510642 0.068229 0.591322 0.001175
C14   C     C_R   0.497467 0.128117 0.502077 -0.158027
C15   C     C_R   0.487012 0.062999 0.410806 0.394548
C16   C     C_R   0.492161 0.931665 0.406568 -0.001694
C17   C     C_R   0.503797 0.871836 0.496314 -0.147296
C18   C     C_R   0.946473 0.404817 0.448891 0.455557
C19   C     C_R   0.091905 0.405665 0.446412 0.036690
C20   C     C_R   0.049272 0.593237 0.554102 0.158525
C21   C     C_R   0.907336 0.594153 0.552400 0.393413
C22   C     C_R   0.499016 0.260813 0.500794 1.012970
C23   C     C_R   0.578747 0.500803 0.296338 0.936511
C24   C     C_R   0.781640 0.603139 0.017341 0.135740
C25   C     C_R   0.626756 0.511119 0.179786 -0.250555
C26   C     C_R   0.277150 0.379703 0.856329 0.346726
C27   C     C_R   0.291547 0.306284 0.937629 -0.282223
C28   C     C_R   0.400576 0.329848 0.980137 0.446472
H1    H     H_    0.226925 0.223011 0.960557 0.177098
H2    H     H_    0.535453 0.684366 0.786743 0.180126
N1    N     N_R   0.142790 0.500030 0.500030 -0.119913
N2    N     N_R   0.857180 0.499940 0.500010 -0.170321
O1    O     O_R   0.385370 0.683250 0.500010 -0.642060
O2    O     O_R   0.614700 0.683220 0.500010 -0.602517
O3    O     O_R   0.328400 0.499990 0.653620 -0.569917
O4    O     O_R   0.557730 0.499960 0.653620 -0.659699
O5    O     O_R   0.385300 0.316780 0.499990 -0.610998
O6    O     O_R   0.614630 0.316750 0.499990 -0.564059
O7    O     O_R   0.442270 0.500040 0.346380 -0.582246
O8    O     O_R   0.671600 0.500010 0.346380 -0.570320
Zn1   Zn    Zn3+2 0.346870 0.500020 0.500000 0.982698
Zn2   Zn    Zn3+2 0.653130 0.499980 0.500000 1.018486
O9    O     O_3   0.847837 0.616272 0.175269 -0.728928
H3    H     H_    0.792364 0.667298 0.239314 0.342328
C29   C     C_3   0.513564 0.141649 0.691459 -0.838000
H4    H     H_    0.618434 0.130073 0.702476 0.242929
H5    H     H_    0.495034 0.243475 0.689904 0.234738
H6    H     H_    0.428483 0.107241 0.762188 0.246809
O10   O     O_3   0.478588 0.132119 0.326490 -0.763155
H7    H     H_    0.444695 0.079041 0.276811 0.365877
C30   C     C_3   0.492477 0.858044 0.305687 -0.862951
H8    H     H_    0.387812 0.867493 0.293885 0.248328
H9    H     H_    0.577279 0.894056 0.235543 0.253935
H10   H     H_    0.514059 0.756607 0.306824 0.217007
O11   O     O_3   0.892952 0.311741 0.397220 -0.702628
H11   H     H_    0.942223 0.231501 0.396931 0.325628
C31   C     C_3   0.187348 0.302270 0.381772 -0.673599
H12   H     H_    0.299387 0.325687 0.360096 0.339859
H13   H     H_    0.167249 0.214426 0.426796 0.207582
H14   H     H_    0.168723 0.285131 0.304079 0.240153
C32   C     C_3   0.094367 0.697064 0.616892 -0.683678
H15   H     H_    0.167041 0.661990 0.656599 0.249417
H16   H     H_    0.143907 0.774235 0.563376 0.234990
H17   H     H_    0.003223 0.737423 0.682671 0.256228
O12   O     O_3   0.822042 0.693481 0.603679 -0.755737
H18   H     H_    0.724046 0.662939 0.627526 0.389593
O13   O     O_3   0.746821 0.755886 0.854280 -0.785096
H19   H     H_    0.717979 0.799531 0.799916 0.359175
C33   C     C_3   0.922503 0.661990 0.957531 -0.644859
H20   H     H_    0.917162 0.765497 0.972886 0.251705
H21   H     H_    0.008842 0.623534 0.983236 0.245260
H22   H     H_    0.952672 0.639178 0.870381 0.238844
O14   O     O_3   0.407448 0.415029 0.181420 -0.717803
H23   H     H_    0.331768 0.456934 0.161481 0.347285
O15   O     O_3   0.180177 0.348466 0.804960 -0.739066
H24   H     H_    0.120639 0.277788 0.841415 0.336573
O16   O     O_3   0.432690 0.235415 0.036979 -0.716623
H25   H     H_    0.533315 0.244457 0.033034 0.355278
O17   O     O_3   0.525791 0.867788 0.670714 -0.804643
H26   H     H_    0.556889 0.921256 0.721612 0.348161

loop_
_geom_bond_atom_site_label_1
_geom_bond_atom_site_label_2
_ccdc_geom_bond_type
O11   H11   S    
C27   H1    S    
O14   H23   S    
O4    Zn2   S    
O2    Zn2   S    
C16   C30   S    
C4    C8    A    
C19   N1    A    
C9    C25   A    
O7    Zn1   S    
O16   H25   S    
C19   C31   S    
C15   O10   S    
C26   C27   A    
O6    Zn2   S    
C3    C7    A    
C5    C6    A    
C31   H13   S    
C15   C16   A    
C22   O6    A    
C32   H16   S    
C18   C19   A    
C20   C32   S    
C33   H21   S    
C16   C17   A    
C24   C33   S    
C12   O4    A    
C10   C26   A    
O8    Zn2   S    
C7    H2    S    
C13   C14   A    
C8    C25   A    
C33   H20   S    
C10   C12   S    
C1    O2    A    
C29   H5    S    
C21   N2    A    
C9    O9    S    
C1    O1    A    
O13   H19   S    
C31   H14   S    
C29   H4    S    
C22   O5    A    
C30   H8    S    
C30   H9    S    
C32   H17   S    
C2    C4    A    
O15   H24   S    
C26   O15   S    
C12   O3    A    
C28   O16   S    
C11   O17   S    
C18   O11   S    
C6    O13   S    
O12   H18   S    
O9    H3    S    
C18   N2    A    
C33   H22   S    
C29   H6    S    
C11   C17   A    
N1    Zn1   S    
C21   O12   S    
C4    C5    A    
C9    C24   A    
C6    C7    A    
C1    C17   S    
C30   H10   S    
O1    Zn1   S    
C14   C22   S    
C2    C3    A    
C3    C10   A    
C13   C29   S    
C11   C13   A    
C31   H12   S    
C5    C24   A    
C23   O7    A    
C8    O14   S    
C23   C25   S    
O5    Zn1   S    
C32   H15   S    
O3    Zn1   S    
O17   H26   S    
C20   C21   A    
O10   H7    S    
C27   C28   A    
N2    Zn2   S    
C14   C15   A    
C2    C28   A    
C23   O8    A    
C20   N1    A    
