data_mof_unit_19130.cif
_audit_creation_date              2012-12-10T17:52:25-0500
_audit_creation_method            fapswitch 2.2
_symmetry_space_group_name_H-M    P1
_symmetry_Int_Tables_number       1
_space_group_crystal_system       triclinic
_cell_length_a                    19.018558
_cell_length_b                    10.753143
_cell_length_c                    9.927861
_cell_angle_alpha                 87.385705
_cell_angle_beta                  89.759007
_cell_angle_gamma                 94.178201
_cell_volume                      2022.77826377

loop_
_atom_site_label
_atom_site_type_symbol
_atom_type_description
_atom_site_fract_x
_atom_site_fract_y
_atom_site_fract_z
_atom_type_partial_charge
Br1   Br    Br    0.560251 0.886705 0.221620 -0.549829
C1    C     C_R   0.503140 0.260112 0.503967 0.912163
C2    C     C_R   0.857408 0.573038 0.501572 0.024388
C3    C     C_R   0.478687 0.093165 0.759757 -0.069758
C4    C     C_R   0.365617 0.504745 0.500081 0.876374
C5    C     C_R   0.441084 0.020894 0.859953 -0.132900
C6    C     C_R   0.408188 0.906016 0.829877 -0.156215
C7    C     C_R   0.419158 0.858205 0.704099 -0.145652
C8    C     C_R   0.463008 0.926194 0.606333 0.051501
C9    C     C_R   0.483397 0.051300 0.626797 0.085088
C10   C     C_R   0.507570 0.126875 0.512576 -0.188337
C11   C     C_R   0.527049 0.073233 0.394126 -0.236898
C12   C     C_R   0.291478 0.530062 0.500302 -0.116915
C13   C     C_R   0.521488 0.946404 0.384325 0.268428
C14   C     C_R   0.489853 0.871656 0.491499 -0.194648
C15   C     C_R   0.399874 0.350145 0.156111 -0.147210
C16   C     C_R   0.496455 0.739400 0.496873 0.899062
C17   C     C_R   0.343195 0.286769 0.099892 -0.305626
C18   C     C_R   0.338046 0.284970 0.962893 -0.274790
C19   C     C_R   0.391580 0.343932 0.877063 0.541427
C20   C     C_R   0.447708 0.424625 0.933632 0.030119
C21   C     C_R   0.449455 0.425908 0.078548 0.117362
C22   C     C_R   0.548467 0.570479 0.067143 -0.077321
C23   C     C_R   0.933959 0.596821 0.501594 0.303725
C24   C     C_R   0.548319 0.570840 0.924379 -0.098457
C25   C     C_R   0.634821 0.501289 0.499802 0.903710
C26   C     C_R   0.261605 0.573778 0.616738 -0.309124
C27   C     C_R   0.192838 0.610236 0.615589 0.559818
C28   C     C_R   0.152070 0.595942 0.498213 -0.037710
C29   C     C_R   0.182757 0.554319 0.381100 -0.232296
C30   C     C_R   0.252080 0.522127 0.381969 -0.196489
C31   C     C_3   0.334241 0.248992 0.690739 -0.323193
C32   C     C_3   0.188633 0.779551 0.742425 -0.318843
C33   C     C_3   0.726676 0.487964 0.843174 -0.278006
C34   C     C_R   0.076270 0.610880 0.500278 0.314120
C35   C     C_R   0.823221 0.513625 0.614940 -0.262333
C36   C     C_R   0.750132 0.487116 0.616069 0.528954
C37   C     C_R   0.711684 0.517065 0.499375 -0.140541
C38   C     C_R   0.746413 0.573712 0.385011 -0.258390
C39   C     C_R   0.818702 0.602016 0.386291 -0.154521
H1    H     H_    0.291832 0.582265 0.708562 0.171023
H2    H     H_    0.587742 0.629177 0.867572 0.149565
H3    H     H_    0.152564 0.542738 0.289697 0.181521
H4    H     H_    0.274547 0.489923 0.290530 0.177116
H5    H     H_    0.853451 0.484826 0.701502 0.164118
H6    H     H_    0.717412 0.599212 0.295441 0.180996
H7    H     H_    0.844189 0.646882 0.297222 0.164187
H8    H     H_    0.548188 0.130442 0.308498 0.202875
H9    H     H_    0.287091 0.302482 0.705270 0.163603
H10   H     H_    0.326042 0.151379 0.732496 0.163392
H11   H     H_    0.342076 0.242968 0.580520 0.168570
H12   H     H_    0.505497 0.178735 0.790686 0.183034
H13   H     H_    0.163485 0.815748 0.832229 0.204169
H14   H     H_    0.173396 0.837446 0.652823 0.158483
H15   H     H_    0.246710 0.790105 0.757072 0.149505
H16   H     H_    0.718365 0.589003 0.826244 0.145192
H17   H     H_    0.779693 0.475706 0.886019 0.163938
H18   H     H_    0.687358 0.449089 0.919611 0.192708
H19   H     H_    0.436454 0.055238 0.960213 0.162419
H20   H     H_    0.376487 0.851838 0.905508 0.147593
H21   H     H_    0.393958 0.767379 0.684539 0.144529
H22   H     H_    0.588442 0.627790 0.117329 0.171283
H23   H     H_    0.402833 0.335660 0.261865 0.218905
H24   H     H_    0.304360 0.233498 0.163542 0.174404
H25   H     H_    0.293742 0.227668 0.926777 0.156323
N1    N     N_R   0.040352 0.624199 0.383375 -0.183090
N2    N     N_R   0.970350 0.617670 0.384041 -0.174023
N3    N     N_R   0.969919 0.587423 0.618649 -0.174640
N4    N     N_R   0.039785 0.594067 0.617924 -0.099796
N5    N     N_R   0.499340 0.498800 0.142780 -0.108872
N6    N     N_R   0.499320 0.498720 0.857170 -0.106635
O1    O     O_R   0.500000 0.316780 0.614690 -0.560863
O2    O     O_3   0.164547 0.653247 0.731690 -0.595672
O3    O     O_3   0.716602 0.421342 0.724616 -0.593865
O4    O     O_R   0.499990 0.316750 0.385360 -0.654097
O5    O     O_R   0.398140 0.500000 0.614700 -0.570677
O6    O     O_R   0.398130 0.499970 0.385370 -0.646840
O7    O     O_R   0.500010 0.683250 0.614640 -0.629142
O8    O     O_R   0.500000 0.683220 0.385310 -0.565634
O9    O     O_R   0.601870 0.500030 0.614630 -0.577427
O10   O     O_R   0.601860 0.500000 0.385300 -0.625415
O11   O     O_3   0.395612 0.310200 0.744750 -0.563472
Zn1   Zn    Zn3+2 0.500000 0.500020 0.653130 0.996982
Zn2   Zn    Zn3+2 0.500000 0.499980 0.346870 0.963488

loop_
_geom_bond_atom_site_label_1
_geom_bond_atom_site_label_2
_ccdc_geom_bond_type
C32   H15   S    
C39   H7    S    
C36   O3    S    
C33   H16   S    
C19   O11   S    
C18   C19   A    
C11   H8    S    
C6    C7    A    
C36   C37   A    
C3    H12   S    
C35   C36   A    
C37   C38   A    
O4    Zn2   S    
C1    C10   S    
C16   O8    A    
C17   C18   A    
C23   N2    A    
N3    N4    A    
O7    Zn1   S    
C22   H22   S    
C7    C8    A    
C33   H17   S    
C24   N6    A    
C15   H23   S    
N5    Zn2   S    
C8    C9    A    
C4    C12   S    
C7    H21   S    
N1    N2    A    
C20   C21   A    
C22   N5    A    
C2    C23   S    
O9    Zn1   S    
C1    O1    A    
C27   O2    S    
O5    Zn1   S    
N6    Zn1   S    
C32   H13   S    
C30   H4    S    
C3    C5    A    
C38   C39   A    
C25   C37   S    
O6    Zn2   S    
C25   O9    A    
C31   H11   S    
C28   C29   A    
C26   H1    S    
C29   C30   A    
C35   H5    S    
C31   H10   S    
C33   O3    S    
C38   H6    S    
C32   O2    S    
C20   N6    A    
C2    C39   A    
C25   O10   A    
C29   H3    S    
C4    O6    A    
C6    H20   S    
O10   Zn2   S    
C32   H14   S    
C14   C16   S    
C27   C28   A    
C15   C21   A    
C5    H19   S    
C12   C30   A    
C11   C13   A    
C24   H2    S    
C10   C11   A    
C5    C6    A    
C31   O11   S    
C28   C34   S    
C34   N1    A    
C4    O5    A    
C8    C14   A    
C17   H24   S    
O8    Zn2   S    
C2    C35   A    
C16   O7    A    
C18   H25   S    
C22   C24   A    
C31   H9    S    
O1    Zn1   S    
C9    C10   A    
C23   N3    A    
C19   C20   A    
C34   N4    A    
C15   C17   A    
C26   C27   A    
C33   H18   S    
C13   C14   A    
C12   C26   A    
Br1   C13   S    
C3    C9    A    
C21   N5    A    
C1    O4    A    
