data_mof_unit_15571.cif
_audit_creation_date              2013-03-05T15:46:34-0500
_audit_creation_method            fapswitch 2.2
_symmetry_space_group_name_H-M    P1
_symmetry_Int_Tables_number       1
_space_group_crystal_system       triclinic
_cell_length_a                    10.638947
_cell_length_b                    11.035123
_cell_length_c                    9.84237
_cell_angle_alpha                 110.938606
_cell_angle_beta                  98.551534
_cell_angle_gamma                 90.942268
_cell_volume                      1064.17767132

loop_
_atom_site_label
_atom_site_type_symbol
_atom_site_description
_atom_site_fract_x
_atom_site_fract_y
_atom_site_fract_z
_atom_type_partial_charge
O1    O     O_R   0.511880 0.332340 0.577400 -0.578272
O2    O     O_R   0.488120 0.667660 0.422600 -0.578274
O3    O     O_R   0.474280 0.295500 0.332650 -0.577426
O4    O     O_R   0.525720 0.704500 0.667350 -0.577426
C1    C     C_R   0.490723 0.254234 0.440822 0.883271
C2    C     C_R   0.509277 0.745766 0.559178 0.883270
O5    O     O_R   0.335640 0.518390 0.622350 -0.571570
O6    O     O_R   0.664360 0.481610 0.377650 -0.571541
O7    O     O_R   0.298050 0.481550 0.377590 -0.574917
O8    O     O_R   0.701950 0.518450 0.622410 -0.574911
C3    C     C_R   0.259588 0.500511 0.500645 0.865277
C4    C     C_R   0.740412 0.499488 0.499355 0.865290
Cu1   Cu    Cu3+1 0.522260 0.521810 0.644920 0.991447
Cu2   Cu    Cu3+1 0.477740 0.478190 0.355080 0.991449
C5    C     C_3   0.045661 0.408603 0.544874 0.401548
C6    C     C_3   0.954337 0.591397 0.455125 0.401545
C7    C     C_3   0.943981 0.382233 0.407223 -0.269546
C8    C     C_3   0.056018 0.617768 0.592776 -0.269635
H1    H     H_    0.896691 0.285753 0.333954 0.183637
H2    H     H_    0.103307 0.714248 0.666045 0.183643
C9    C     C_3   0.876824 0.498702 0.499417 -0.151864
C10   C     C_3   0.123176 0.501298 0.500582 -0.151915
C11   C     C_3   0.977535 0.522713 0.638605 -0.210322
C12   C     C_3   0.022464 0.477287 0.361394 -0.210321
H3    H     H_    0.957574 0.538990 0.751124 0.198887
H4    H     H_    0.042426 0.461010 0.248875 0.198882
H5    H     H_    0.480692 0.864973 0.368454 0.181117
H6    H     H_    0.519309 0.135027 0.631546 0.181119
C13   C     C_2   0.485701 0.115042 0.407525 -0.291905
C14   C     C_2   0.514300 0.884957 0.592475 -0.291903
C15   C     C_2   0.502246 0.069533 0.516680 -0.104073
C16   C     C_2   0.497756 0.930467 0.483320 -0.104077
H7    H     H_    0.531461 0.950764 0.707136 0.151494
H8    H     H_    0.468539 0.049236 0.292864 0.151492
H9    H     H_    0.415813 0.416395 0.845284 0.188270
H10   H     H_    0.584187 0.583604 0.154716 0.188319
N1    N     N_2   0.444270 0.445410 0.137360 -0.287757
N2    N     N_2   0.555730 0.554590 0.862640 -0.287741
C17   C     C_2   0.510593 0.510664 0.081433 -0.053408
C18   C     C_2   0.489407 0.489335 0.918567 -0.053430
H11   H     H_    0.624527 0.623680 0.934902 0.216624
H12   H     H_    0.375473 0.376320 0.065098 0.216600
N3    N     N_R   0.099927 0.307666 0.593369 0.127110
O9    O     O_R   0.090868 0.308364 0.723991 -0.357801
O10   O     O_R   0.158046 0.216562 0.506140 -0.359770
N4    N     N_R   0.900056 0.692325 0.406624 0.127134
O11   O     O_R   0.908875 0.691485 0.275901 -0.357885
O12   O     O_R   0.841965 0.783459 0.493883 -0.359732

loop_
_geom_bond_atom_site_label_1
_geom_bond_atom_site_label_2
_geom_bond_distance
_ccdc_geom_bond_type
C14   C16   1.330300 D    
O7    Cu2   1.956405 S    
H6    C15   1.088161 S    
C6    C9    1.521291 S    
N1    C17   1.304420 D    
N3    O10   1.300594 A    
C6    C12   1.536428 S    
C3    C10   1.451361 S    
C1    C13   1.449770 S    
C15   C16   1.448422 S    
O5    Cu1   1.962938 S    
O6    C4    1.290762 A    
C5    C11   1.536428 S    
H9    C18   1.085132 S    
C5    N3    1.456359 S    
C13   C15   1.330301 D    
Cu1   Cu2   2.683882 S    
Cu2   N1    2.016035 S    
O5    C3    1.290763 A    
O7    C3    1.283426 A    
Cu1   N2    2.016035 S    
O2    C2    1.294642 A    
O3    Cu2   1.947155 S    
O8    C4    1.283427 A    
O1    C1    1.294642 A    
C4    C9    1.451362 S    
O4    C2    1.290443 A    
N2    C18   1.304421 D    
C12   H4    1.110339 S    
C8    H2    1.110142 S    
C9    C11   1.545845 S    
N3    O9    1.300766 A    
O2    Cu2   1.950092 S    
C10   C12   1.545857 S    
C7    C12   1.556370 S    
O1    Cu1   1.950092 S    
C8    C11   1.556378 S    
C17   C18   1.515562 S    
N4    O12   1.300731 A    
N1    H12   1.030582 S    
C11   H3    1.110337 S    
N2    H11   1.030583 S    
C6    C8    1.537018 S    
C6    N4    1.456373 S    
O4    Cu1   1.947154 S    
C5    C7    1.537017 S    
N4    O11   1.300647 A    
C7    H1    1.110143 S    
O6    Cu2   1.962938 S    
C14   H7    1.087607 S    
C2    C14   1.449770 S    
H5    C16   1.088161 S    
C8    C10   1.541174 S    
C13   H8    1.087607 S    
H10   C17   1.085132 S    
C5    C10   1.521292 S    
C7    C9    1.541167 S    
O3    C1    1.290443 A    
O8    Cu1   1.956405 S    
