data_mof_unit_43478.cif
_audit_creation_date              2012-12-11T16:30:20-0500
_audit_creation_method            fapswitch 2.2
_symmetry_space_group_name_H-M    P1
_symmetry_Int_Tables_number       1
_space_group_crystal_system       triclinic
_cell_length_a                    8.448239
_cell_length_b                    17.394589
_cell_length_c                    22.983447
_cell_angle_alpha                 95.782238
_cell_angle_beta                  89.678993
_cell_angle_gamma                 96.546198
_cell_volume                      3338.34901453

loop_
_atom_site_label
_atom_site_type_symbol
_atom_type_description
_atom_site_fract_x
_atom_site_fract_y
_atom_site_fract_z
_atom_type_partial_charge
Ba1   Ba    Ba6+2 0.852790 0.535910 0.472200 1.742225
Ba2   Ba    Ba6+2 0.337030 0.464150 0.527810 1.759420
C1    C     C_3   0.640319 0.812944 0.301830 -0.322914
C2    C     C_R   0.098090 0.573291 0.942627 -0.037653
C3    C     C_R   0.050938 0.570221 0.882798 0.635347
C4    C     C_3   0.147050 0.757528 0.314899 0.258822
C5    C     C_R   0.934748 0.438593 0.885566 0.610281
C6    C     C_R   0.982823 0.439623 0.944555 -0.012307
C7    C     C_R   0.064458 0.507138 0.973464 -0.038491
C8    C     C_R   0.178225 0.641109 0.972480 -0.056973
C9    C     C_R   0.223096 0.643204 0.031275 -0.031486
C10   C     C_R   0.190507 0.577416 0.062488 -0.017437
C11   C     C_R   0.111685 0.508610 0.033375 -0.031491
C12   C     C_3   0.623388 0.736396 0.329121 0.362612
C13   C     C_R   0.952209 0.373184 0.974744 -0.066818
C14   C     C_R   0.002519 0.372461 0.032705 -0.138449
C15   C     C_R   0.080543 0.441458 0.063775 -0.091853
C16   C     C_3   0.095435 0.803315 0.265923 -0.224341
C17   C     C_R   0.126030 0.446229 0.124035 0.604420
C18   C     C_R   0.234852 0.579453 0.122110 0.613011
C19   C     C_2   0.785198 0.460908 0.770906 0.004099
C20   C     C_3   0.767671 0.432907 0.706470 0.036150
C21   C     C_1   0.004149 0.521291 0.688671 -0.023821
C22   C     C_2   0.045560 0.527125 0.745426 -0.130732
C23   C     C_3   0.403968 0.311197 0.344147 0.177676
C24   C     C_2   0.927907 0.498131 0.791256 0.174495
C25   C     C_R   0.403620 0.547791 0.233596 -0.055449
C26   C     C_R   0.448411 0.550656 0.292655 -0.011430
C27   C     C_R   0.186816 0.489356 0.316254 0.047177
C28   C     C_3   0.134647 0.713752 0.614287 0.232609
C29   C     C_R   0.139337 0.488688 0.257270 -0.031479
C30   C     C_R   0.247214 0.517991 0.214789 0.223687
C31   C     C_2   0.863449 0.487718 0.669709 -0.205025
C32   C     C_R   0.445121 0.713962 0.455522 -0.219548
C33   C     C_R   0.574147 0.739809 0.493753 0.108449
C34   C     C_3   0.318418 0.228983 0.332796 -0.296959
C35   C     C_R   0.630156 0.819521 0.500093 -0.104918
C36   C     C_R   0.548845 0.872951 0.473429 -0.028087
C37   C     C_R   0.402191 0.847342 0.445367 -0.119993
C38   C     C_R   0.346135 0.767853 0.438646 -0.051685
C39   C     C_R   0.614595 0.158609 0.468283 -0.049615
C40   C     C_3   0.142324 0.795172 0.646547 -0.375966
C41   C     C_R   0.655502 0.240070 0.479305 -0.105080
C42   C     C_R   0.894688 0.217342 0.532005 -0.046272
C43   C     C_R   0.854938 0.135808 0.521165 -0.068639
C44   C     C_R   0.711991 0.106563 0.490130 0.019369
C45   C     C_3   0.121453 0.294714 0.685314 0.309004
C46   C     C_1   0.657056 0.023430 0.484138 0.146040
C47   C     C_1   0.608318 0.954817 0.479363 0.097460
C48   C     C_R   0.794504 0.267707 0.511588 -0.303287
C49   C     C_3   0.932463 0.293547 0.382571 0.153797
C50   C     C_3   0.859303 0.216828 0.346782 -0.234712
C51   C     C_3   0.697831 0.683804 0.661467 0.307777
C52   C     C_3   0.704761 0.743569 0.716398 -0.139352
C53   C     C_2   0.921779 0.143430 0.363090 0.891161
C54   C     C_2   0.866897 0.223232 0.281636 0.630274
C55   C     C_2   0.606477 0.608712 0.674739 0.468908
C56   C     C_3   0.130444 0.263393 0.746092 -0.302777
C57   C     C_2   0.783591 0.823218 0.706607 0.873661
C58   C     C_2   0.432788 0.344498 0.285857 0.842383
C59   C     C_2   0.193249 0.789555 0.211979 0.532668
C60   C     C_2   0.253392 0.310212 0.787022 0.880625
C61   C     C_2   0.973219 0.257125 0.776744 0.541884
C62   C     C_2   0.514135 0.223949 0.605793 0.496508
C63   C     C_2   0.694609 0.116417 0.675240 0.805180
C64   C     C_2   0.427056 0.132833 0.717169 0.944140
C65   C     C_2   0.973931 0.296823 0.057810 1.010111
C66   C     C_2   0.468902 0.126233 0.435289 0.835290
C67   C     C_3   0.584230 0.245905 0.666056 0.186191
C68   C     C_2   0.963647 0.082265 0.541804 0.568001
C69   C     C_2   0.841588 0.351019 0.522323 0.545522
C70   C     C_2   0.110195 0.889204 0.285082 0.504338
C71   C     C_2   0.244813 0.713921 0.564863 0.558168
C72   C     C_3   0.588395 0.174561 0.702483 -0.211447
C73   C     C_R   0.339545 0.522377 0.333386 -0.306056
H1    H     H_    0.671229 0.747793 0.374415 0.052569
H2    H     H_    0.767996 0.721018 0.752336 0.075883
H3    H     H_    0.581269 0.750710 0.731268 0.101100
H4    H     H_    0.494397 0.714838 0.329547 -0.120489
H5    H     H_    0.558814 0.852369 0.323793 0.112998
H6    H     H_    0.331112 0.349847 0.371056 0.040830
H7    H     H_    0.281345 0.208257 0.374888 0.168629
H8    H     H_    0.210537 0.227367 0.305393 0.165443
H9    H     H_    0.398896 0.189381 0.310346 0.137584
H10   H     H_    0.609923 0.802673 0.254538 0.135810
H11   H     H_    0.237905 0.323562 0.673332 0.074383
H12   H     H_    0.267820 0.820398 0.655517 0.147289
H13   H     H_    0.036463 0.339041 0.685623 0.017862
H14   H     H_    0.162764 0.203280 0.738805 0.159878
H15   H     H_    0.710162 0.270738 0.660386 0.002151
H16   H     H_    0.139098 0.694567 0.299041 0.010375
H17   H     H_    0.642855 0.198278 0.745042 0.106481
H18   H     H_    0.891968 0.319983 0.952505 0.138593
H19   H     H_    0.283836 0.696949 0.052311 0.154999
H20   H     H_    0.491083 0.568091 0.202377 0.114147
H21   H     H_    0.206290 0.693149 0.950484 0.143274
H22   H     H_    0.165528 0.551367 0.758649 0.166489
H23   H     H_    0.082579 0.834120 0.620510 0.117250
H24   H     H_    0.692694 0.441079 0.800635 0.157145
H25   H     H_    0.020183 0.463539 0.244332 0.133418
H26   H     H_    0.376986 0.522408 0.378329 0.077099
H27   H     H_    0.272726 0.779408 0.326430 -0.023792
H28   H     H_    0.809373 0.506255 0.631696 0.061220
H29   H     H_    0.328931 0.889175 0.431042 0.134070
H30   H     H_    0.733243 0.840194 0.527518 0.131857
H31   H     H_    0.405836 0.652437 0.447631 0.105087
H32   H     H_    0.968533 0.783083 0.255004 0.113149
H33   H     H_    0.014861 0.695654 0.597908 0.064077
H34   H     H_    0.083096 0.791541 0.689314 0.169267
H35   H     H_    0.900893 0.026179 0.351861 0.318786
H36   H     H_    0.808641 0.267994 0.263615 0.036967
H37   H     H_    0.585097 0.562170 0.639905 0.025898
H38   H     H_    0.811049 0.911057 0.655373 0.319524
H39   H     H_    0.669772 0.378302 0.298857 0.303453
H40   H     H_    0.322407 0.798295 0.214566 0.035497
H41   H     H_    0.159293 0.409219 0.782451 0.262396
H42   H     H_    0.955524 0.221725 0.813028 0.057707
H43   H     H_    0.502121 0.268931 0.577908 0.047284
H44   H     H_    0.715897 0.021006 0.619322 0.304326
H45   H     H_    0.834716 0.328782 0.394467 0.038709
H46   H     H_    0.479664 0.134643 0.803480 0.306339
H47   H     H_    0.208398 0.287183 0.066127 0.297775
H48   H     H_    0.373574 0.060609 0.364107 0.353550
H49   H     H_    0.042207 0.100609 0.578864 0.102783
H50   H     H_    0.910378 0.382113 0.490529 0.020655
H51   H     H_    0.008318 0.921174 0.281500 0.038237
H52   H     H_    0.319435 0.766570 0.556810 -0.104920
H53   H     H_    0.989641 0.281425 0.423298 0.036220
H54   H     H_    0.731009 0.208146 0.357256 0.023695
H55   H     H_    0.818813 0.672126 0.649289 -0.194123
H56   H     H_    0.763889 0.841699 0.307526 0.107704
N1    N     N_R   0.970657 0.502870 0.854110 -0.422759
N2    N     N_R   0.201085 0.514704 0.152808 -0.428066
O1    O     O_2   0.894270 0.458150 0.360790 -0.473677
O2    O     O_2   0.223654 0.228836 0.543930 -0.414194
O3    O     O_3   0.074924 0.231600 0.643570 -0.584817
O4    O     O_3   0.134750 0.458940 0.431830 -0.482593
O5    O     O_3   0.566070 0.591710 0.528970 -0.467607
O6    O     O_2   0.362610 0.313970 0.472520 -0.446465
O7    O     O_3   0.549630 0.307208 0.371683 -0.704348
O8    O     O_2   0.436801 0.446895 0.711132 -0.442676
O9    O     O_3   0.496865 0.301966 0.696646 -0.621416
O10   O     O_2   0.079608 0.628033 0.856779 -0.565233
O11   O     O_2   0.861485 0.379284 0.862214 -0.563309
O12   O     O_3   0.619338 0.714584 0.617065 -0.630728
O13   O     O_2   0.099391 0.389203 0.150926 -0.531220
O14   O     O_2   0.302732 0.639504 0.146810 -0.588374
O15   O     O_3   0.663190 0.596710 0.395570 -0.492178
O16   O     O_2   0.776573 0.539936 0.292857 -0.450920
O17   O     O_3   0.048468 0.334533 0.350374 -0.648593
O18   O     O_3   0.710563 0.682801 0.296901 -0.578381
O19   O     O_2   0.827090 0.686050 0.527520 -0.488432
O20   O     O_3   0.077580 0.635890 0.424230 -0.439068
O21   O     O_2   0.036265 0.773645 0.475532 -0.465895
O22   O     O_2   0.023703 0.145835 0.400897 -0.613085
O23   O     O_3   0.045386 0.768033 0.363014 -0.578096
O24   O     O_R   0.854782 0.071431 0.336276 -0.684531
O25   O     O_2   0.937259 0.179319 0.248676 -0.499102
O26   O     O_2   0.556229 0.598872 0.723721 -0.576406
O27   O     O_2   0.874730 0.858692 0.743757 -0.568317
O28   O     O_R   0.747652 0.858243 0.656936 -0.729556
O29   O     O_2   0.320564 0.343970 0.252521 -0.541891
O30   O     O_R   0.583248 0.376187 0.268454 -0.712893
O31   O     O_2   0.128153 0.769427 0.164731 -0.528811
O32   O     O_2   0.357522 0.278094 0.807965 -0.522672
O33   O     O_R   0.248190 0.389156 0.803173 -0.695798
O34   O     O_2   0.295430 0.541870 0.639250 -0.428439
O35   O     O_2   0.865452 0.292157 0.762230 -0.582483
O36   O     O_2   0.471917 0.156834 0.586739 -0.514686
O37   O     O_2   0.834767 0.122077 0.689648 -0.585341
O38   O     O_R   0.632352 0.055007 0.634861 -0.690203
O39   O     O_2   0.329262 0.109293 0.678731 -0.481052
O40   O     O_R   0.389875 0.116961 0.774488 -0.688750
O41   O     O_2   0.837718 0.266076 0.062263 -0.517110
O42   O     O_R   0.100659 0.258450 0.074354 -0.637645
O43   O     O_2   0.338397 0.134265 0.456540 -0.521354
O44   O     O_R   0.481448 0.081635 0.381755 -0.744834
O45   O     O_3   0.054960 0.541130 0.568170 -0.439936
O46   O     O_2   0.969873 0.017325 0.516846 -0.567933
O47   O     O_2   0.808132 0.385510 0.568338 -0.621719
O48   O     O_2   0.236737 0.923944 0.303422 -0.578528
O49   O     O_2   0.251428 0.653667 0.533677 -0.589951
O50   O     O_3   0.526510 0.403350 0.604440 -0.459915
O51   O     O_3   0.179614 0.663731 0.652918 -0.614602
O52   O     O_3   0.623640 0.408350 0.471030 -0.451684
O53   O     O_3   0.112120 0.364170 0.575770 -0.497823
P1    P     P_3+3 0.063260 0.435680 0.369690 0.993223
P2    P     P_3+3 0.650710 0.674870 0.544690 1.026545
P3    P     P_3+3 0.130334 0.736270 0.424260 1.010267
P4    P     P_3+3 0.126450 0.564380 0.630310 1.080091
P5    P     P_3+3 0.077827 0.261805 0.573001 0.990881
P6    P     P_3+3 0.649790 0.590639 0.318990 1.010018
P7    P     P_3+3 0.539445 0.312843 0.448577 0.946201
P8    P     P_3+3 0.559077 0.397784 0.679326 1.007888

loop_
_geom_bond_atom_site_label_1
_geom_bond_atom_site_label_2
_ccdc_geom_bond_type
O15   P6    S    
C19   C24   D    
C56   C60   S    
C45   O3    S    
C1    H10   S    
C59   O31   D    
C25   H20   S    
H48   O44   S    
C58   O30   S    
C66   O43   D    
Ba1   O4    S    
C5    C6    A    
C36   C47   S    
O20   P3    S    
C43   C44   A    
C53   O22   D    
C63   O38   S    
C1    H56   S    
C49   H53   S    
C64   O39   D    
C33   C35   A    
C40   H34   S    
C22   C24   S    
C70   O48   D    
Ba1   Ba2   S    
C40   H23   S    
C42   P5    S    
C30   N2    S    
C61   H42   S    
C68   O46   D    
C3    O10   D    
C55   H37   S    
C65   O41   D    
H47   O42   S    
C64   C72   S    
C66   O44   S    
O53   P5    S    
O50   P8    S    
C62   H43   S    
Ba1   O19   S    
C32   C33   A    
Ba1   O45   S    
C72   H17   S    
C62   O36   D    
O34   P4    D    
C7    C11   A    
C16   H32   S    
C54   O25   D    
C3    N1    Am   
H46   O40   S    
C38   P3    S    
C49   O17   S    
C65   O42   S    
C14   C15   A    
C21   C31   D    
C12   O18   S    
C59   H40   S    
C46   C47   T    
C58   O29   D    
C21   C22   D    
C64   O40   S    
C23   C58   S    
C18   N2    Am   
O7    P7    S    
C54   H36   S    
C50   C53   S    
O19   P2    D    
Ba2   O50   S    
C52   H2    S    
O23   P3    S    
C55   O26   D    
C19   C20   S    
C23   H6    S    
C39   C41   A    
H41   O33   S    
C28   C40   S    
C1    H5    S    
C26   P6    S    
C5    O11   D    
C39   C66   S    
C52   C57   S    
Ba1   P1    S    
C16   C70   S    
C4    C16   S    
C44   C46   S    
C17   O13   D    
C13   C14   A    
O3    P5    S    
C22   H22   S    
C32   H31   S    
C45   H11   S    
C37   H29   S    
C23   O7    S    
C34   H7    S    
C37   C38   A    
C28   C71   S    
C51   C55   S    
C6    C7    A    
O12   P2    S    
C67   O9    S    
C51   C52   S    
C63   C72   S    
C27   P1    S    
C70   H51   S    
Ba2   O5    S    
C69   O47   D    
O5    P2    S    
C48   C69   S    
Ba2   O53   S    
C35   H30   S    
C35   C36   A    
C57   O28   S    
C57   O27   D    
C29   C30   A    
C8    H21   S    
C39   C44   A    
C10   C18   A    
C51   O12   S    
C49   H45   S    
O9    P8    S    
C18   O14   D    
C67   C72   S    
C16   C59   S    
C14   C65   S    
C29   H25   S    
Ba1   O20   S    
C1    C12   S    
O2    P5    D    
C5    N1    Am   
H35   O24   S    
C9    H19   S    
O18   P6    S    
C60   O33   S    
O21   P3    D    
C6    C13   A    
C32   C38   A    
C4    H16   S    
C50   H54   S    
Ba2   O6    S    
C67   H15   S    
Ba1   O1    S    
O17   P1    S    
C24   N1    S    
C42   C43   A    
C19   H24   S    
Ba1   P2    S    
C42   C48   A    
C56   C61   S    
C20   C31   S    
C61   O35   D    
O16   P6    D    
Ba2   O45   S    
C28   H33   S    
C43   C68   S    
C31   H28   S    
Ba2   O4    S    
C28   O51   S    
O1    P1    D    
C20   P8    S    
Ba2   P4    S    
O52   P7    S    
C2    C3    A    
C13   H18   S    
C9    C10   A    
C41   C48   A    
C27   C73   A    
Ba1   O52   S    
C17   N2    Am   
C62   C67   S    
C11   C15   A    
C63   O37   D    
C41   P7    S    
C45   H13   S    
Ba2   O52   S    
C49   C50   S    
C27   C29   A    
C71   H52   S    
C45   C56   S    
C71   O49   D    
H39   O30   S    
C36   C37   A    
C50   C54   S    
C34   H9    S    
O45   P4    S    
C15   C17   A    
O51   P4    S    
O8    P8    D    
C4    H27   S    
C56   H14   S    
C40   H12   S    
C12   H4    S    
C8    C9    A    
C25   C30   A    
C23   C34   S    
H38   O28   S    
C68   H49   S    
C53   O24   S    
C60   O32   D    
C10   C11   A    
C33   P2    S    
H44   O38   S    
C25   C26   A    
C73   H26   S    
C69   H50   S    
Ba1   O15   S    
C51   H55   S    
C34   H8    S    
C52   H3    S    
C2    C7    A    
C26   C73   A    
C2    C8    A    
Ba2   O34   S    
C21   P4    S    
C4    O23   S    
Ba1   O5    S    
O6    P7    D    
C12   H1    S    
O4    P1    S    
