data_mof_unit_26883.cif
_audit_creation_date              2013-03-05T15:56:36-0500
_audit_creation_method            fapswitch 2.2
_symmetry_space_group_name_H-M    P1
_symmetry_Int_Tables_number       1
_space_group_crystal_system       triclinic
_cell_length_a                    6.958035
_cell_length_b                    14.576932
_cell_length_c                    15.971706
_cell_angle_alpha                 90.274079
_cell_angle_beta                  89.122977
_cell_angle_gamma                 89.768455
_cell_volume                      1619.73705652

loop_
_atom_site_label
_atom_site_type_symbol
_atom_site_description
_atom_site_fract_x
_atom_site_fract_y
_atom_site_fract_z
_atom_type_partial_charge
O1    O     O_R   0.361600 0.167310 0.164620 -0.614771
O2    O     O_R   0.638400 0.832690 0.835380 -0.614873
O3    O     O_R   0.691080 0.157570 0.338750 -0.589295
O4    O     O_R   0.308920 0.842430 0.661250 -0.589240
O5    O     O_R   0.861410 0.336420 0.339360 -0.565625
O6    O     O_R   0.138590 0.663580 0.660640 -0.565662
C1    C     C_R   0.521342 0.136967 0.368686 1.050763
C2    C     C_R   0.478658 0.863033 0.631313 1.050957
O7    O     O_R   0.691320 0.156280 0.165240 -0.603214
O8    O     O_R   0.308680 0.843720 0.834760 -0.602959
O9    O     O_R   0.861640 0.335130 0.164600 -0.571293
O10   O     O_R   0.138360 0.664870 0.835400 -0.571951
C3    C     C_R   0.523078 0.133836 0.136050 0.965889
C4    C     C_R   0.476922 0.866165 0.863949 0.965406
O11   O     O_R   0.361370 0.168600 0.339370 -0.590658
O12   O     O_R   0.638630 0.831400 0.660630 -0.590593
O13   O     O_3   0.527990 0.310540 0.251980 -0.216827
O14   O     O_3   0.472010 0.689460 0.748020 -0.217540
V1    V     V_3+5 0.802830 0.240980 0.251990 1.304212
V2    V     V_3+5 0.197170 0.759020 0.748010 1.303891
O15   O     O_R   0.191360 0.346160 0.165220 -0.568426
O16   O     O_R   0.808640 0.653840 0.834780 -0.568953
C5    C     C_R   0.023091 0.367735 0.135930 1.098898
C6    C     C_R   0.976915 0.632237 0.864050 1.100321
O17   O     O_R   0.191130 0.347440 0.338740 -0.552194
O18   O     O_R   0.808870 0.652560 0.661260 -0.551918
C7    C     C_R   0.020252 0.368732 0.367661 1.194137
C8    C     C_R   0.979748 0.631267 0.632341 1.194668
V3    V     V_3+5 0.302840 0.262750 0.251990 1.340138
V4    V     V_3+5 0.697160 0.737250 0.748010 1.339600
O19   O     O_3   0.027820 0.193180 0.251990 -0.313736
O20   O     O_3   0.972180 0.806820 0.748010 -0.313533
C9    C     C_3   0.902984 0.426066 0.524251 0.204877
C10   C     C_3   0.097014 0.573931 0.475755 0.204749
C11   C     C_3   0.080914 0.463773 0.569061 0.250300
C12   C     C_3   0.919083 0.536223 0.430946 0.250164
C13   C     C_3   0.996521 0.562551 0.562373 -0.589418
C14   C     C_3   0.003476 0.437444 0.437632 -0.589343
C15   C     C_3   0.820419 0.523700 0.517765 0.221763
C16   C     C_3   0.179579 0.476296 0.482241 0.221687
C17   C     C_R   0.862578 0.488293 0.936698 0.256423
C18   C     C_R   0.137503 0.511571 0.063199 0.257827
C19   C     C_R   0.875942 0.423826 0.002076 0.289976
C20   C     C_R   0.124133 0.576073 0.997864 0.288028
C21   C     C_R   0.012944 0.435192 0.066016 -0.478860
C22   C     C_R   0.987086 0.564725 0.933923 -0.478865
C23   C     C_R   0.646334 0.997429 0.439342 -0.197568
C24   C     C_R   0.353665 0.002571 0.560658 -0.197554
H1    H     H_    0.758844 0.993550 0.391781 0.174430
H2    H     H_    0.241156 0.006450 0.608219 0.174443
C25   C     C_R   0.637771 0.929506 0.500941 0.401640
C26   C     C_R   0.362228 0.070494 0.499059 0.401634
C27   C     C_R   0.490795 0.931810 0.563085 -0.271781
C28   C     C_R   0.509205 0.068190 0.436915 -0.271701
C29   C     C_R   0.679177 0.025314 0.031245 -0.056633
C30   C     C_R   0.320825 0.974693 0.968750 -0.056507
H3    H     H_    0.819625 0.043741 0.054093 0.127490
H4    H     H_    0.180376 0.956266 0.945901 0.127585
C31   C     C_R   0.667209 0.961297 0.965687 -0.091956
C32   C     C_R   0.332793 0.038709 0.034308 -0.092035
H5    H     H_    0.799440 0.932316 0.940367 0.132976
H6    H     H_    0.200562 0.067690 0.059629 0.132922
C33   C     C_R   0.487843 0.935032 0.933375 -0.127256
C34   C     C_R   0.512158 0.064972 0.066622 -0.127500
Br1   Br    Br    0.189729 0.409154 0.668325 -0.215803
Br2   Br    Br    0.810239 0.590846 0.331690 -0.215728
N1    N     N_R   0.797153 0.346062 0.553730 0.304191
O21   O     O_R   0.727192 0.344600 0.629662 -0.222484
O22   O     O_R   0.778427 0.274381 0.505897 -0.331095
N2    N     N_R   0.202846 0.653937 0.446283 0.304199
O23   O     O_R   0.272839 0.655401 0.370357 -0.222390
O24   O     O_R   0.221559 0.725616 0.494119 -0.331113
N3    N     N_R   0.628414 0.554820 0.540687 0.269675
O25   O     O_R   0.572106 0.634113 0.513416 -0.309938
O26   O     O_R   0.546465 0.521866 0.607652 -0.301200
N4    N     N_R   0.371583 0.445176 0.459319 0.269663
O27   O     O_R   0.453526 0.478126 0.392351 -0.301382
O28   O     O_R   0.427894 0.365885 0.486593 -0.309925
N5    N     N_R   0.730884 0.472094 0.869979 0.270121
O29   O     O_R   0.546437 0.474914 0.884354 -0.284743
O30   O     O_R   0.794926 0.460154 0.793743 -0.321935
N6    N     N_R   0.269155 0.527736 0.129907 0.270274
O31   O     O_R   0.204735 0.541356 0.205877 -0.320926
O32   O     O_R   0.453581 0.522003 0.116052 -0.284127
N7    N     N_R   0.760008 0.342677 0.999433 0.257557
O33   O     O_R   0.841140 0.262466 0.991478 -0.407227
O34   O     O_R   0.575057 0.348127 0.011690 -0.324704
N8    N     N_R   0.240347 0.657148 0.000487 0.257229
O35   O     O_R   0.425935 0.651316 0.990539 -0.325406
O36   O     O_R   0.159493 0.737520 0.007499 -0.407634
Br3   Br    Br    0.823725 0.832459 0.492314 -0.396359
Br4   Br    Br    0.176271 0.167540 0.507684 -0.396345

loop_
_geom_bond_atom_site_label_1
_geom_bond_atom_site_label_2
_geom_bond_distance
_ccdc_geom_bond_type
C14   C16   1.535666 S    
C5    C21   1.493705 S    
C29   C31   1.402866 A    
C10   C13   1.550439 S    
O13   V3    1.717075 S    
N3    O25   1.298302 A    
C18   N6    1.434937 S    
O4    C2    1.304078 A    
V1    O19   1.710975 S    
C23   H1    1.083563 S    
N7    O33   1.301144 A    
O9    V1    2.001130 S    
C9    C15   1.537178 S    
C10   C16   1.537183 S    
C11   C13   1.557579 S    
N4    O28   1.298302 A    
O3    C1    1.304078 A    
C9    C11   1.541415 S    
C12   Br2   1.940256 S    
C11   Br1   1.940267 S    
C7    C14   1.500057 S    
O12   V4    2.007065 S    
C32   H6    1.082760 S    
O9    C5    1.299314 A    
O7    C3    1.308858 A    
C25   Br3   1.916304 S    
O5    C7    1.290409 A    
O7    V1    2.017531 S    
O6    C8    1.290407 A    
C20   C22   1.417420 A    
C17   C22   1.414538 A    
O3    V1    1.998470 S    
N2    O23   1.300174 A    
O14   V4    1.717077 S    
C10   N2    1.457933 S    
C10   C12   1.541415 S    
C1    O11   1.297963 A    
C2    O12   1.297962 A    
C17   C19   1.412008 A    
C18   C20   1.411834 A    
C26   C28   1.414373 A    
O11   V3    2.007067 S    
N7    O34   1.300785 A    
O17   V3    1.997713 S    
C24   C27   1.403354 A    
C31   H5    1.082760 S    
N1    O21   1.300180 A    
C19   N7    1.435282 S    
N4    O27   1.299333 A    
O8    C4    1.308860 A    
O8    V2    2.017530 S    
N5    O30   1.300841 A    
C23   C25   1.399931 A    
O15   V3    2.010478 S    
C30   C32   1.402865 A    
C25   C27   1.414372 A    
C18   C21   1.414157 A    
C29   C34   1.405467 A    
O10   V2    2.001132 S    
O1    V3    2.002322 S    
C30   C33   1.405467 A    
C19   C21   1.417221 A    
C23   C28   1.403354 A    
N8    O36   1.301202 A    
O18   V4    1.997712 S    
N6    O32   1.301124 A    
C29   H3    1.082794 S    
O16   C6    1.305303 A    
C26   Br4   1.916304 S    
O1    C3    1.298643 A    
N3    O26   1.299333 A    
C12   C14   1.557587 S    
C9    N1    1.457930 S    
V2    O20   1.710975 S    
O16   V4    2.010481 S    
C31   C33   1.411448 A    
C12   C15   1.549746 S    
C2    C27   1.485972 S    
C17   N5    1.435331 S    
O5    V1    2.013041 S    
O17   C7    1.304679 A    
O6    V2    2.013041 S    
O10   C6    1.299317 A    
O18   C8    1.304671 A    
C9    C14   1.550450 S    
O2    V4    2.002325 S    
C32   C34   1.411448 A    
C6    C22   1.493756 S    
O15   C5    1.305292 A    
C11   C16   1.549750 S    
V3    O19   2.169328 S    
V4    O20   2.169326 S    
C3    C34   1.495197 S    
C8    C13   1.500037 S    
C4    C33   1.495201 S    
C24   H2    1.083562 S    
O13   V1    2.160912 S    
C30   H4    1.082793 S    
O14   V2    2.160914 S    
C15   N3    1.450239 S    
O2    C4    1.298641 A    
N5    O29   1.300751 A    
O4    V2    1.998467 S    
C16   N4    1.450237 S    
C24   C26   1.399931 A    
N8    O35   1.301037 A    
C13   C15   1.535655 S    
N6    O31   1.301129 A    
N2    O24   1.299588 A    
C1    C28   1.485971 S    
N1    O22   1.299587 A    
C20   N8    1.435487 S    
