data_mof_unit_28873.cif
_audit_creation_date              2012-12-10T18:47:40-0500
_audit_creation_method            fapswitch 2.2
_symmetry_space_group_name_H-M    P1
_symmetry_Int_Tables_number       1
_space_group_crystal_system       triclinic
_cell_length_a                    9.849167
_cell_length_b                    10.71703
_cell_length_c                    15.50085
_cell_angle_alpha                 90.098455
_cell_angle_beta                  67.726996
_cell_angle_gamma                 89.960559
_cell_volume                      1514.09253431

loop_
_atom_site_label
_atom_site_type_symbol
_atom_type_description
_atom_site_fract_x
_atom_site_fract_y
_atom_site_fract_z
_atom_type_partial_charge
C1    C     C_R   0.499967 0.740109 0.500072 0.872749
C2    C     C_R   0.500060 0.259894 0.499887 0.869222
C3    C     C_R   0.315297 0.490287 0.108622 -0.236134
C4    C     C_R   0.634966 0.361578 0.911976 -0.231242
C5    C     C_R   0.213958 0.509171 0.067523 -0.116762
C6    C     C_R   0.735832 0.342870 0.953714 -0.140531
C7    C     C_R   0.609348 0.936083 0.519052 -0.181478
C8    C     C_R   0.390773 0.063937 0.480792 -0.182296
C9    C     C_R   0.609472 0.063924 0.518906 -0.154763
C10   C     C_R   0.390638 0.936094 0.480950 -0.154096
C11   C     C_R   0.500146 0.127449 0.499819 -0.022346
C12   C     C_R   0.499941 0.872566 0.500062 -0.023237
C13   C     C_R   0.964190 0.425659 0.439613 0.665656
C14   C     C_R   0.035852 0.574411 0.560326 0.671373
C15   C     C_R   0.107959 0.425679 0.439712 -0.312686
C16   C     C_R   0.892095 0.574417 0.560208 -0.304759
C17   C     C_R   0.408287 0.498584 0.676048 0.915088
C18   C     C_R   0.591554 0.498447 0.323915 0.906075
C19   C     C_R   0.349822 0.491357 0.777458 -0.162619
C20   C     C_R   0.646304 0.477385 0.223595 -0.155022
C21   C     C_R   0.159377 0.530915 0.928182 0.672830
C22   C     C_R   0.810153 0.371776 0.085366 0.689095
C23   C     C_R   0.206047 0.527492 0.831410 -0.254339
C24   C     C_R   0.778683 0.415113 0.175923 -0.246464
C25   C     C_R   0.443582 0.451545 0.820233 -0.254931
C26   C     C_R   0.548903 0.499606 0.179779 -0.240109
C27   C     C_R   0.399582 0.452806 0.917076 0.022041
C28   C     C_R   0.570848 0.446839 0.093302 0.020903
C29   C     C_R   0.256307 0.496609 0.971412 0.043080
C30   C     C_R   0.706692 0.387122 0.043584 0.041217
C31   C     C_R   0.498980 0.421927 0.960254 0.116585
C32   C     C_R   0.461516 0.454127 0.054908 0.104474
H1    H     H_    0.103800 0.538559 0.110933 0.198483
H2    H     H_    0.837986 0.295405 0.914623 0.200422
H3    H     H_    0.453659 0.556433 0.215989 0.167461
H4    H     H_    0.554211 0.426753 0.776074 0.173922
H5    H     H_    0.854572 0.395894 0.209745 0.211229
H6    H     H_    0.132177 0.558039 0.798700 0.214951
H7    H     H_    0.275103 0.501797 0.183323 0.157637
H8    H     H_    0.664404 0.323702 0.842743 0.149630
H9    H     H_    0.693849 0.887383 0.534564 0.165030
H10   H     H_    0.306282 0.112644 0.465272 0.165242
H11   H     H_    0.694053 0.112618 0.534314 0.171940
H12   H     H_    0.306047 0.887399 0.465554 0.172653
H13   H     H_    0.191282 0.366215 0.391520 0.192306
H14   H     H_    0.808827 0.634003 0.608308 0.193853
N1    N     N_R   0.142780 0.500030 0.500020 -0.153340
N2    N     N_R   0.857220 0.499970 0.499980 -0.153515
O1    O     O_R   0.385370 0.683250 0.500010 -0.580620
O2    O     O_R   0.614630 0.316750 0.499990 -0.581957
O3    O     O_R   0.614700 0.683220 0.500000 -0.629876
O4    O     O_R   0.385300 0.316780 0.500000 -0.630363
O5    O     O_R   0.319830 0.500020 0.632250 -0.568418
O6    O     O_R   0.680170 0.499980 0.367750 -0.568763
O7    O     O_R   0.549160 0.499990 0.632240 -0.628722
O8    O     O_R   0.450840 0.500010 0.367760 -0.627748
Zn1   Zn    Zn3+2 0.346870 0.500020 0.500000 1.002442
Zn2   Zn    Zn3+2 0.653130 0.499980 0.500000 1.001275
F1    F     F_    0.022689 0.574380 0.978951 -0.670875
F2    F     F_    0.938582 0.310694 0.040238 -0.668166
F3    F     F_    0.932512 0.351211 0.379014 -0.659369
F4    F     F_    0.067587 0.648942 0.620858 -0.653319

loop_
_geom_bond_atom_site_label_1
_geom_bond_atom_site_label_2
_ccdc_geom_bond_type
C21   C29   A    
C13   N2    A    
C19   C23   A    
N2    Zn2   S    
C14   N1    A    
C2    O4    A    
C14   C16   A    
C18   O8    A    
N1    Zn1   S    
C23   H6    S    
C1    O3    A    
C17   O7    A    
C26   C28   A    
C31   C32   A    
C15   N1    A    
C14   F4    S    
C16   N2    A    
C28   C30   A    
C24   H5    S    
C17   O5    A    
C3    H7    S    
O3    Zn2   S    
C9    C11   A    
C7    C12   A    
C1    C12   S    
C20   C26   A    
C8    C11   A    
C2    C11   S    
C10   C12   A    
C4    C6    A    
C17   C19   S    
C8    H10   S    
C21   F1    S    
C5    C29   A    
C13   C15   A    
C21   C23   A    
C22   F2    S    
C3    C32   A    
C19   C25   A    
C22   C24   A    
C9    H11   S    
C4    C31   A    
C27   C29   A    
O4    Zn1   S    
C15   H13   S    
C25   H4    S    
C10   H12   S    
O2    Zn2   S    
C6    H2    S    
C26   H3    S    
C28   C32   A    
C13   F3    S    
O8    Zn1   S    
C18   C20   S    
C8    C10   A    
O6    Zn2   S    
O7    Zn2   S    
C16   H14   S    
C2    O2    A    
C7    C9    A    
C18   O6    A    
O5    Zn1   S    
C22   C30   A    
C6    C30   A    
C27   C31   A    
C20   C24   A    
O1    Zn1   S    
C4    H8    S    
C7    H9    S    
C5    H1    S    
C3    C5    A    
C25   C27   A    
C1    O1    A    
