data_mof_unit_46903.cif
_audit_creation_date              2012-12-11T14:06:45-0500
_audit_creation_method            fapswitch 2.2
_symmetry_space_group_name_H-M    P1
_symmetry_Int_Tables_number       1
_space_group_crystal_system       triclinic
_cell_length_a                    6.922517
_cell_length_b                    17.297264
_cell_length_c                    24.116668
_cell_angle_alpha                 104.515212
_cell_angle_beta                  90.431321
_cell_angle_gamma                 89.971301
_cell_volume                      2795.4887812

loop_
_atom_site_label
_atom_site_type_symbol
_atom_type_description
_atom_site_fract_x
_atom_site_fract_y
_atom_site_fract_z
_atom_type_partial_charge
O1    O     O_R   0.494290 0.391990 0.999150 -0.534663
O2    O     O_R   0.827170 0.534410 0.082350 -0.544469
O3    O     O_R   0.994360 0.608010 0.000850 -0.535543
C1    C     C_R   0.658606 0.549957 0.106147 0.698965
O4    O     O_R   0.824210 0.388010 0.004470 -0.550942
O5    O     O_R   0.991370 0.460560 0.922410 -0.531377
C2    C     C_R   0.654550 0.354851 0.001421 0.784065
O6    O     O_R   0.497270 0.539440 0.077590 -0.542869
O7    O     O_3   0.659770 0.523970 0.973170 -0.364003
V1    V     V_3+5 0.935840 0.495550 0.004980 1.421749
O8    O     O_R   0.320910 0.465590 0.917650 -0.533548
C3    C     C_R   0.151640 0.447801 0.894195 0.707012
O9    O     O_R   0.323870 0.611990 0.995530 -0.547589
C4    C     C_R   0.154382 0.645124 0.998517 0.772607
V2    V     V_3+5 0.435470 0.504450 0.995020 1.436651
O10   O     O_3   0.161670 0.476030 0.026830 -0.377532
C5    C     C_2   0.142776 0.730255 0.998095 -0.340272
H1    H     H_    0.277245 0.761069 0.994717 0.150095
C6    C     C_2   0.972774 0.769783 0.002028 -0.340095
H2    H     H_    0.838305 0.738969 0.005407 0.150032
C7    C     C_R   0.246887 0.282956 0.619352 0.606222
N1    N     N_R   0.102562 0.330585 0.648357 -0.551757
C8    C     C_R   0.943347 0.348776 0.619730 0.595274
C9    C     C_R   0.924053 0.318328 0.560011 -0.027003
C10   C     C_R   0.070244 0.268852 0.529878 -0.019338
C11   C     C_R   0.233457 0.251080 0.559632 -0.045470
C12   C     C_R   0.762126 0.335927 0.529812 -0.152961
C13   C     C_R   0.745845 0.304914 0.470565 -0.150041
C14   C     C_R   0.890509 0.255119 0.440043 -0.027622
C15   C     C_R   0.052912 0.236878 0.469873 -0.017814
C16   C     C_R   0.197912 0.186650 0.439858 -0.030675
C17   C     C_R   0.360230 0.169278 0.470025 -0.121090
C18   C     C_R   0.377985 0.201239 0.529129 -0.117304
C19   C     C_R   0.877509 0.223544 0.380265 0.582898
N2    N     N_R   0.019197 0.174014 0.351358 -0.556202
C20   C     C_R   0.176738 0.154793 0.380334 0.592754
O11   O     O_2   0.401598 0.265339 0.648250 -0.506318
O12   O     O_2   0.804332 0.396530 0.648869 -0.518788
H3    H     H_    0.647072 0.373577 0.551851 0.168906
H4    H     H_    0.618856 0.319756 0.448848 0.173250
O13   O     O_2   0.725574 0.243337 0.351288 -0.522261
O14   O     O_2   0.311995 0.104250 0.351853 -0.522837
H5    H     H_    0.474671 0.131190 0.448050 0.171880
H6    H     H_    0.505354 0.186663 0.550809 0.178137
C21   C     C_R   0.839106 0.100411 0.264494 -0.076098
H7    H     H_    0.721575 0.089935 0.291090 0.168298
C22   C     C_R   0.824699 0.071019 0.204881 -0.202675
H8    H     H_    0.695508 0.038853 0.186770 0.141615
C23   C     C_R   0.976980 0.081839 0.169232 -0.058442
C24   C     C_R   0.142602 0.123678 0.194571 -0.202264
H9    H     H_    0.261832 0.133697 0.168376 0.132738
C25   C     C_R   0.155111 0.154471 0.253957 -0.084299
H10   H     H_    0.282756 0.187730 0.272174 0.156488
C26   C     C_R   0.004248 0.142784 0.289714 0.353522
C27   C     C_R   0.265504 0.410508 0.735926 -0.073971
H11   H     H_    0.372595 0.429713 0.709698 0.168938
C28   C     C_R   0.277567 0.437661 0.795654 -0.217021
H12   H     H_    0.393415 0.478187 0.814257 0.159864
C29   C     C_R   0.139875 0.414294 0.830992 -0.157010
C30   C     C_R   0.990800 0.360388 0.804724 0.318998
C31   C     C_R   0.978097 0.335449 0.744843 -0.067754
H13   H     H_    0.863887 0.294708 0.725182 0.171266
C32   C     C_R   0.114934 0.359611 0.710028 0.278660
C33   C     C_R   0.431454 0.869263 0.612159 0.586903
N3    N     N_R   0.504238 0.826244 0.648317 -0.556722
C34   C     C_R   0.593042 0.754111 0.627051 0.567767
C35   C     C_R   0.614592 0.723195 0.567627 -0.005048
C36   C     C_R   0.538268 0.765877 0.529769 -0.056225
C37   C     C_R   0.439422 0.838635 0.551749 -0.131537
C38   C     C_R   0.711038 0.650574 0.545315 -0.147629
C39   C     C_R   0.733285 0.620840 0.486289 -0.150148
C40   C     C_R   0.659653 0.662904 0.447952 -0.009541
C41   C     C_R   0.561800 0.735571 0.469764 -0.017578
C42   C     C_R   0.488196 0.777966 0.431611 -0.106818
C43   C     C_R   0.388508 0.849657 0.453480 -0.136599
C44   C     C_R   0.358142 0.878961 0.512343 0.369177
C45   C     C_R   0.679839 0.633633 0.388166 0.573607
N4    N     N_R   0.606306 0.675483 0.351381 -0.555393
C46   C     C_R   0.512976 0.746861 0.372159 0.594540
O15   O     O_2   0.358318 0.942541 0.634784 -0.502316
O16   O     O_2   0.660582 0.712227 0.663342 -0.523839
H14   H     H_    0.770501 0.616477 0.573434 0.174580
H15   H     H_    0.808627 0.564754 0.470841 0.171416
O17   O     O_2   0.769801 0.563315 0.367059 -0.521208
O18   O     O_2   0.444632 0.787921 0.335450 -0.520473
H16   H     H_    0.327346 0.882398 0.424696 0.192973
C47   C     C_R   0.802492 0.630561 0.263284 -0.079167
H17   H     H_    0.933344 0.645463 0.288578 0.127314
C48   C     C_R   0.815613 0.599784 0.203735 -0.198605
H18   H     H_    0.957172 0.591495 0.184378 0.127278
C49   C     C_R   0.647621 0.580864 0.169667 -0.056668
C50   C     C_R   0.466711 0.592979 0.196908 -0.196307
H19   H     H_    0.334072 0.579014 0.172364 0.130663
C51   C     C_R   0.453973 0.623450 0.256260 -0.087247
H20   H     H_    0.313123 0.631973 0.276078 0.122475
C52   C     C_R   0.621383 0.642935 0.290044 0.371812
C53   C     C_R   0.659457 0.875828 0.743439 -0.079759
H21   H     H_    0.799952 0.866242 0.723464 0.120820
C54   C     C_R   0.647817 0.905831 0.802890 -0.193660
H22   H     H_    0.780885 0.918377 0.827375 0.130959
C55   C     C_R   0.467307 0.919300 0.830298 -0.058256
C56   C     C_R   0.298698 0.902181 0.796337 -0.192983
H23   H     H_    0.157396 0.911590 0.815794 0.127865
C57   C     C_R   0.310690 0.871946 0.736749 -0.083908
H24   H     H_    0.179270 0.858552 0.711540 0.121332
C58   C     C_R   0.491246 0.858234 0.709780 0.375857
C59   C     C_2   0.642922 0.269683 0.001790 -0.337312
H25   H     H_    0.777579 0.238790 0.005098 0.147875
C60   C     C_2   0.472627 0.230230 0.997926 -0.335543
H26   H     H_    0.337975 0.261121 0.994604 0.147277
O19   O     O_R   0.618210 0.960470 0.922400 -0.540826
O20   O     O_R   0.291310 0.111960 0.995450 -0.546789
O21   O     O_R   0.124210 0.039530 0.077580 -0.539649
C61   C     C_R   0.460981 0.145095 0.998400 0.774382
O22   O     O_R   0.288310 0.965490 0.917650 -0.542929
O23   O     O_R   0.121180 0.892010 0.999220 -0.535241
C62   C     C_R   0.456832 0.949989 0.893843 0.707318
O24   O     O_R   0.621230 0.107990 0.000760 -0.534791
O25   O     O_3   0.455770 0.976060 0.026840 -0.370522
V3    V     V_3+5 0.179680 0.004440 0.995020 1.414384
O26   O     O_R   0.791670 0.888040 0.004570 -0.546579
C63   C     C_R   0.961160 0.854904 0.001580 0.774400
O27   O     O_R   0.794680 0.034510 0.082370 -0.543341
C64   C     C_R   0.964211 0.050301 0.106004 0.705266
V4    V     V_3+5 0.680070 0.995560 0.005010 1.415227
O28   O     O_3   0.953840 0.023940 0.973160 -0.371370
O29   O     O_3   0.858157 0.328884 0.835468 -0.632587
H27   H     H_    0.918419 0.325772 0.872183 0.285393
O30   O     O_3   0.244908 0.946061 0.529176 -0.609899
H28   H     H_    0.148581 0.934939 0.556370 0.325183

loop_
_geom_bond_atom_site_label_1
_geom_bond_atom_site_label_2
_ccdc_geom_bond_type
C47   H17   S    
C6    C63   S    
C55   C56   A    
C59   C60   D    
C41   C42   A    
C20   O14   S    
N2    C20   A    
C9    C12   A    
C1    O6    A    
C57   C58   A    
C53   H21   S    
O27   C64   A    
C22   C23   A    
C21   H7    S    
C14   C15   A    
O23   C63   A    
C13   C14   A    
O5    C3    A    
C15   C16   A    
C56   C57   A    
V3    O28   S    
C28   C29   A    
C13   H4    S    
V2    O10   S    
C37   C44   A    
C19   N2    A    
C31   C32   A    
C11   C18   A    
N1    C32   S    
C3    C29   S    
O8    V2    S    
C16   C17   A    
N4    C52   S    
C36   C37   A    
O22   C62   A    
C27   C32   A    
O19   V4    S    
C24   C25   A    
C8    C9    A    
C38   C39   A    
O1    V2    S    
O24   V4    S    
C48   C49   A    
O7    V1    S    
C1    C49   S    
C34   C35   A    
C29   C30   A    
O9    C4    A    
N2    C26   S    
C33   O15   S    
C4    C5    S    
C56   H23   S    
C19   O13   S    
O20   C61   A    
C57   H24   S    
C53   C54   A    
C7    C11   A    
C25   C26   A    
C24   H9    S    
C39   H15   S    
C21   C22   A    
C42   C43   A    
C35   C36   A    
C9    C10   A    
C12   H3    S    
C49   C50   A    
O20   V3    S    
N4    C46   A    
C45   O17   S    
C36   C41   A    
C45   N4    A    
C23   C64   S    
C14   C19   A    
O23   V3    S    
C30   C31   A    
O2    C1    A    
C43   C44   A    
O26   V4    S    
C40   C45   A    
O21   V3    S    
C44   O30   S    
C43   H16   S    
C22   H8    S    
O9    V2    S    
C59   H25   S    
C47   C52   A    
C27   H11   S    
C50   C51   A    
C5    H1    S    
C51   H20   S    
C33   C37   A    
C51   C52   A    
O26   C63   A    
C61   O24   A    
O3    C4    A    
C60   C61   S    
C53   C58   A    
O25   V4    S    
C54   C55   A    
C21   C26   A    
O22   V3    S    
O6    V2    S    
C42   C46   A    
C27   C28   A    
V4    O28   S    
C23   C24   A    
C2    C59   S    
O29   H27   S    
O2    V1    S    
N3    C58   S    
C46   O18   S    
C25   H10   S    
O4    C2    A    
O30   H28   S    
C10   C15   A    
O1    C2    A    
C18   H6    S    
C30   O29   S    
C40   C41   A    
O5    V1    S    
O25   V3    S    
C8    O12   S    
C54   H22   S    
O19   C62   A    
C35   C38   A    
C55   C62   S    
C17   C18   A    
C6    H2    S    
C47   C48   A    
C10   C11   A    
O4    V1    S    
O3    V1    S    
V1    O10   S    
C60   H26   S    
C33   N3    A    
C34   O16   S    
C28   H12   S    
O21   C64   A    
C50   H19   S    
C5    C6    D    
C17   H5    S    
N1    C8    A    
O7    V2    S    
C31   H13   S    
C38   H14   S    
O27   V4    S    
C39   C40   A    
C7    O11   S    
N3    C34   A    
C12   C13   A    
C16   C20   A    
C48   H18   S    
C7    N1    A    
O8    C3    A    
