data_mof_unit_22951.cif
_audit_creation_date              2012-12-10T18:21:17-0500
_audit_creation_method            fapswitch 2.2
_symmetry_space_group_name_H-M    P1
_symmetry_Int_Tables_number       1
_space_group_crystal_system       triclinic
_cell_length_a                    14.91525
_cell_length_b                    14.192619
_cell_length_c                    10.671317
_cell_angle_alpha                 91.199463
_cell_angle_beta                  86.770123
_cell_angle_gamma                 90.777165
_cell_volume                      2254.71724138

loop_
_atom_site_label
_atom_site_type_symbol
_atom_type_description
_atom_site_fract_x
_atom_site_fract_y
_atom_site_fract_z
_atom_type_partial_charge
C1    C     C_R   0.327125 0.499735 0.498764 0.875444
C2    C     C_3   0.591049 0.459156 0.914171 -0.407345
C3    C     C_R   0.815853 0.434600 0.427135 -0.285476
C4    C     C_R   0.768521 0.501088 0.501854 -0.067621
C5    C     C_R   0.812165 0.568189 0.574537 -0.261926
C6    C     C_R   0.905009 0.568448 0.574487 0.120852
C7    C     C_R   0.953550 0.502610 0.497186 0.055795
C8    C     C_R   0.908703 0.436121 0.422117 0.122678
C9    C     C_R   0.949969 0.632851 0.650623 -0.217310
C10   C     C_R   0.043123 0.631643 0.651176 -0.223261
C11   C     C_R   0.091580 0.566994 0.574130 0.129741
C12   C     C_R   0.501982 0.499264 0.257508 0.852188
C13   C     C_R   0.046870 0.502870 0.495547 0.055147
C14   C     C_R   0.095532 0.438683 0.415842 0.122929
C15   C     C_R   0.050599 0.374342 0.339616 -0.226564
C16   C     C_R   0.957263 0.372532 0.343528 -0.221348
C17   C     C_R   0.184164 0.564598 0.574935 -0.282960
C18   C     C_R   0.231638 0.500582 0.496591 -0.045018
C19   C     C_R   0.188418 0.439573 0.414962 -0.269555
C20   C     C_R   0.565281 0.798232 0.430097 -0.102644
C21   C     C_R   0.566637 0.201318 0.433159 -0.117447
C22   C     C_R   0.434184 0.800231 0.568190 0.185681
C23   C     C_R   0.431165 0.200491 0.563447 0.171131
C24   C     C_R   0.427588 0.899342 0.553973 0.022235
C25   C     C_R   0.428416 0.100028 0.557767 0.020348
C26   C     C_R   0.672836 0.500478 0.502918 0.877347
C27   C     C_R   0.497118 0.949334 0.489586 0.063565
C28   C     C_R   0.497228 0.050262 0.490538 0.065699
C29   C     C_R   0.566848 0.898680 0.426608 0.012970
C30   C     C_R   0.567224 0.100913 0.428020 0.016618
C31   C     C_R   0.354776 0.950420 0.607981 -0.234674
C32   C     C_R   0.358320 0.047458 0.617966 -0.239001
C33   C     C_R   0.636162 0.049644 0.362742 -0.198394
C34   C     C_R   0.635905 0.949921 0.361866 -0.197736
C35   C     C_R   0.498622 0.500358 0.742050 0.848270
C36   C     C_3   0.485952 0.599974 0.075255 -0.390668
C37   C     C_3   0.422778 0.437438 0.076555 -0.490078
C38   C     C_3   0.488307 0.600023 0.932909 -0.420192
C39   C     C_3   0.422404 0.436075 0.932696 -0.443555
C40   C     C_3   0.598273 0.465993 0.058948 0.876486
C41   C     C_3   0.503431 0.498250 0.120477 0.033705
C42   C     C_3   0.500145 0.499222 0.878083 0.079664
H1    H     H_    0.536568 0.651840 0.108278 0.221572
H2    H     H_    0.421753 0.364863 0.112555 0.169859
H3    H     H_    0.077262 0.681172 0.711425 0.146041
H4    H     H_    0.219344 0.611367 0.637586 0.137660
H5    H     H_    0.227120 0.392882 0.351634 0.131944
H6    H     H_    0.087561 0.324840 0.278434 0.145159
H7    H     H_    0.923081 0.321743 0.285143 0.147163
H8    H     H_    0.617308 0.758625 0.378782 0.139432
H9    H     H_    0.619877 0.240699 0.383982 0.152456
H10   H     H_    0.295904 0.916309 0.650893 0.163574
H11   H     H_    0.304939 0.078807 0.676066 0.158269
H12   H     H_    0.690931 0.086606 0.313305 0.137980
H13   H     H_    0.690341 0.912954 0.311574 0.140516
H14   H     H_    0.419281 0.625250 0.113696 0.182994
H15   H     H_    0.358672 0.468477 0.115694 0.186242
H16   H     H_    0.423210 0.625832 0.904721 0.200382
H17   H     H_    0.356793 0.462060 0.903397 0.171955
H18   H     H_    0.543481 0.647472 0.896617 0.199237
H19   H     H_    0.429115 0.362328 0.896466 0.177063
H20   H     H_    0.646604 0.500332 0.865948 0.167862
H21   H     H_    0.600576 0.386709 0.875321 0.155471
H22   H     H_    0.780280 0.383500 0.370634 0.152539
H23   H     H_    0.773673 0.618531 0.632711 0.152712
H24   H     H_    0.913098 0.683367 0.710337 0.148519
N1    N     N_R   0.500070 0.750030 0.500050 -0.119213
N2    N     N_R   0.500070 0.249970 0.500050 -0.119696
O1    O     O_R   0.367860 0.580280 0.500020 -0.639406
O2    O     O_R   0.367860 0.419720 0.500020 -0.634685
O3    O     O_R   0.500000 0.580270 0.314790 -0.621105
O4    O     O_R   0.500000 0.419730 0.314790 -0.623018
O5    O     O_R   0.632160 0.580270 0.499960 -0.619928
O6    O     O_R   0.632160 0.419730 0.499960 -0.614529
O7    O     O_R   0.500030 0.580270 0.685200 -0.642869
O8    O     O_R   0.500030 0.419730 0.685200 -0.645654
Zn1   Zn    Zn3+2 0.500020 0.607200 0.499990 0.925805
Zn2   Zn    Zn3+2 0.500020 0.392800 0.499990 0.924020
C43   C     C_3   0.370173 0.752937 0.664249 -0.392202
C44   C     C_3   0.380057 0.792223 0.799097 -0.389552
C45   C     C_3   0.299978 0.762825 0.886004 -0.923771
H25   H     H_    0.285430 0.686146 0.876562 0.253273
H26   H     H_    0.314334 0.779863 0.984972 0.260503
H27   H     H_    0.239326 0.801756 0.862126 0.261747
H28   H     H_    0.443928 0.767884 0.834148 0.220368
H29   H     H_    0.385616 0.869858 0.805309 0.236798
H30   H     H_    0.300288 0.760611 0.635439 0.179533
H31   H     H_    0.380966 0.677542 0.668813 0.257094
C46   C     C_3   0.359089 0.250891 0.645127 -0.381938
C47   C     C_3   0.266849 0.250004 0.586025 -0.339710
C48   C     C_3   0.196261 0.298911 0.672864 -0.868367
H32   H     H_    0.185005 0.258998 0.760895 0.250284
H33   H     H_    0.218261 0.371796 0.696804 0.261582
H34   H     H_    0.131822 0.301929 0.625916 0.261255
H35   H     H_    0.272354 0.284300 0.494132 0.243473
H36   H     H_    0.241769 0.178146 0.564711 0.206256
H37   H     H_    0.353168 0.218422 0.739119 0.155374
H38   H     H_    0.378477 0.323254 0.667655 0.254947
O9    O     O_3   0.660890 0.542205 0.075938 -0.664873
C49   C     C_3   0.720725 0.529399 0.171734 0.171179
H39   H     H_    0.771764 0.475923 0.141458 0.181281
H40   H     H_    0.684042 0.507119 0.259141 0.147320
C50   C     C_3   0.769163 0.622104 0.197616 -0.870379
H41   H     H_    0.719787 0.676888 0.228183 0.248568
H42   H     H_    0.816704 0.613103 0.272722 0.227557
H43   H     H_    0.807373 0.645543 0.111255 0.257918
O10   O     O_3   0.632811 0.381023 0.108742 -0.668031
C51   C     C_3   0.583803 0.296160 0.090552 0.049109
H44   H     H_    0.539831 0.295545 0.010797 0.134917
H45   H     H_    0.542149 0.280563 0.177087 0.185257
C52   C     C_3   0.649814 0.216059 0.068271 -0.852912
H46   H     H_    0.694949 0.213127 0.147350 0.249152
H47   H     H_    0.612768 0.147921 0.061058 0.216058
H48   H     H_    0.690952 0.227217 0.979683 0.258892

loop_
_geom_bond_atom_site_label_1
_geom_bond_atom_site_label_2
_ccdc_geom_bond_type
O2    Zn2   S    
C20   N1    A    
O1    Zn1   S    
C52   H46   S    
N1    Zn1   S    
C24   C27   A    
C21   H9    S    
C31   H10   S    
C6    C9    A    
C43   H30   S    
C45   H25   S    
C7    C8    A    
C3    H22   S    
C25   C28   A    
C35   O7    A    
C1    C18   S    
C12   C41   S    
O8    Zn2   S    
C22   C43   S    
C38   C42   S    
C5    C6    A    
C19   H5    S    
C27   C29   A    
C15   C16   A    
C26   O5    A    
C51   H44   S    
C18   C19   A    
C35   C42   S    
C9    H24   S    
O4    Zn2   S    
C38   H16   S    
C50   H42   S    
O9    C49   S    
C20   H8    S    
O10   C51   S    
C23   C46   S    
C50   H43   S    
C9    C10   A    
C25   C32   A    
C12   O4    A    
C34   H13   S    
C8    C16   A    
C13   C14   A    
C36   C41   S    
C15   H6    S    
C40   O9    S    
C43   H31   S    
C45   H26   S    
C33   C34   A    
C39   C42   S    
C20   C29   A    
N2    Zn2   S    
C39   H19   S    
C35   O8    A    
C47   H35   S    
C17   H4    S    
C5    H23   S    
C3    C8    A    
C48   H32   S    
C4    C5    A    
C29   C34   A    
C49   C50   S    
C1    O1    A    
C46   H37   S    
C23   N2    A    
C44   H28   S    
C36   H14   S    
C48   H33   S    
C31   C32   A    
C39   H17   S    
C10   H3    S    
C49   H40   S    
C17   C18   A    
C52   H47   S    
C16   H7    S    
O7    Zn1   S    
C40   O10   S    
C38   H18   S    
C40   C41   S    
C12   O3    A    
C21   N2    A    
C22   C24   A    
C3    C4    A    
C32   H11   S    
O3    Zn1   S    
C45   H27   S    
C2    H21   S    
C33   H12   S    
C11   C17   A    
C30   C33   A    
C14   C19   A    
C44   C45   S    
C4    C26   S    
C47   H36   S    
C6    C7    A    
C21   C30   A    
C44   H29   S    
C1    O2    A    
C51   C52   S    
C46   H38   S    
C37   H2    S    
C36   C38   S    
C24   C31   A    
C37   C39   S    
C48   H34   S    
C11   C13   A    
C47   C48   S    
C2    C42   S    
C28   C30   A    
C49   H39   S    
C26   O6    A    
C51   H45   S    
C52   H48   S    
C23   C25   A    
C37   C41   S    
C22   N1    A    
C10   C11   A    
C43   C44   S    
C2    C40   S    
C7    C13   A    
O6    Zn2   S    
C50   H41   S    
O5    Zn1   S    
C14   C15   A    
C36   H1    S    
C46   C47   S    
C37   H15   S    
C2    H20   S    
C27   C28   A    
