data_mof_unit_13914.cif
_audit_creation_date              2013-03-05T16:07:32-0500
_audit_creation_method            fapswitch 2.2
_symmetry_space_group_name_H-M    P1
_symmetry_Int_Tables_number       1
_space_group_crystal_system       triclinic
_cell_length_a                    10.966885
_cell_length_b                    10.963886
_cell_length_c                    9.639229
_cell_angle_alpha                 91.412498
_cell_angle_beta                  91.41796
_cell_angle_gamma                 92.103651
_cell_volume                      1157.50300311

loop_
_atom_site_label
_atom_site_type_symbol
_atom_site_description
_atom_site_fract_x
_atom_site_fract_y
_atom_site_fract_z
_atom_type_partial_charge
O1    O     O_R   0.499990 0.319660 0.618740 -0.592768
O2    O     O_R   0.500010 0.680340 0.381260 -0.596609
O3    O     O_R   0.499990 0.319630 0.381170 -0.580465
O4    O     O_R   0.500010 0.680370 0.618830 -0.572901
C1    C     C_R   0.499539 0.262318 0.498082 0.781323
C2    C     C_R   0.498655 0.737509 0.501965 0.783959
O5    O     O_R   0.319650 0.500020 0.618780 -0.592801
O6    O     O_R   0.680350 0.499980 0.381220 -0.596631
O7    O     O_R   0.319640 0.500000 0.381210 -0.580656
O8    O     O_R   0.680360 0.500000 0.618790 -0.573004
C3    C     C_R   0.262314 0.499599 0.498110 0.781126
C4    C     C_R   0.737513 0.498667 0.501941 0.783802
Cu1   Cu    Cu3+1 0.500000 0.500020 0.640660 0.950018
Cu2   Cu    Cu3+1 0.500000 0.499980 0.359340 0.936017
H1    H     H_    0.140849 0.350321 0.852188 0.119548
H2    H     H_    0.768126 0.374611 0.120073 0.128986
C5    C     C_R   0.160037 0.497661 0.005279 -0.164249
C6    C     C_R   0.804116 0.314727 0.912422 -0.147045
H3    H     H_    0.195191 0.563375 0.933674 0.130201
H4    H     H_    0.772629 0.221666 0.928427 0.103538
C7    C     C_R   0.144421 0.532779 0.143637 -0.112229
C8    C     C_R   0.847380 0.348091 0.783502 -0.104145
H5    H     H_    0.162344 0.627045 0.176579 0.112322
H6    H     H_    0.848055 0.280307 0.699852 0.103519
C9    C     C_R   0.101232 0.446784 0.237375 0.140176
C10   C     C_R   0.891367 0.468109 0.763225 0.149842
C11   C     C_R   0.073407 0.326166 0.191372 -0.166948
C12   C     C_R   0.893273 0.553930 0.873098 -0.158828
H7    H     H_    0.034624 0.260301 0.261442 0.118325
H8    H     H_    0.928753 0.646195 0.859166 0.109046
C13   C     C_R   0.086174 0.292628 0.052422 -0.120431
C14   C     C_R   0.850069 0.520115 0.001999 -0.138967
H9    H     H_    0.057519 0.201947 0.015667 0.113263
H10   H     H_    0.850853 0.587522 0.085722 0.110033
C15   C     C_R   0.130447 0.377742 0.959585 -0.117446
C16   C     C_R   0.804041 0.400875 0.021281 -0.082983
C17   C     C_R   0.930201 0.493468 0.379073 -0.249272
C18   C     C_R   0.069332 0.511221 0.622226 -0.253683
H11   H     H_    0.876973 0.485907 0.284168 0.159155
H12   H     H_    0.122261 0.519715 0.717549 0.156659
C19   C     C_R   0.871612 0.498113 0.505168 -0.093816
C20   C     C_R   0.128185 0.501025 0.495446 -0.089483
C21   C     C_R   0.942765 0.499490 0.628918 -0.001727
C22   C     C_R   0.056031 0.486544 0.372481 0.003518
C23   C     C_R   0.486530 0.056060 0.372455 0.003324
C24   C     C_R   0.499269 0.942742 0.628923 -0.001907
C25   C     C_R   0.493441 0.930206 0.379037 -0.249259
C26   C     C_R   0.510920 0.069325 0.622237 -0.253798
H13   H     H_    0.485939 0.876985 0.284106 0.159209
H14   H     H_    0.519226 0.122256 0.717558 0.156669
C27   C     C_R   0.498030 0.871605 0.505161 -0.093678
C28   C     C_R   0.500891 0.128186 0.495443 -0.089423
C29   C     C_R   0.423201 0.423620 0.069679 0.011076
C30   C     C_R   0.577018 0.576491 0.930234 0.039241
H15   H     H_    0.361284 0.361889 0.121497 0.161215
H16   H     H_    0.639047 0.638252 0.878561 0.123416
C31   C     C_R   0.423318 0.423751 0.921534 -0.026306
C32   C     C_R   0.576988 0.576464 0.078385 -0.041188
H17   H     H_    0.361877 0.362509 0.862133 0.123498
H18   H     H_    0.638989 0.638180 0.137059 0.112048
N1    N     N_R   0.500030 0.500030 0.852070 -0.169025
N2    N     N_R   0.499970 0.499970 0.147930 -0.178680
C33   C     C_R   0.446782 0.101347 0.237378 0.140395
C34   C     C_R   0.326018 0.074115 0.191683 -0.166705
C35   C     C_R   0.292323 0.086940 0.052783 -0.120774
C36   C     C_R   0.377438 0.130749 0.959715 -0.117642
C37   C     C_R   0.497477 0.159891 0.005157 -0.163338
C38   C     C_R   0.532757 0.144120 0.143433 -0.112238
H19   H     H_    0.260114 0.035763 0.261962 0.118333
H20   H     H_    0.201490 0.058693 0.016261 0.113409
H21   H     H_    0.349917 0.141160 0.852349 0.119549
H22   H     H_    0.563209 0.194629 0.933392 0.129913
H23   H     H_    0.627118 0.161563 0.176141 0.112069
C39   C     C_R   0.467864 0.891310 0.763222 0.150113
C40   C     C_R   0.347796 0.847626 0.783583 -0.104483
C41   C     C_R   0.314432 0.804347 0.912502 -0.147201
C42   C     C_R   0.400649 0.803895 0.021255 -0.082662
C43   C     C_R   0.519949 0.849596 0.001885 -0.138816
C44   C     C_R   0.553750 0.892866 0.873003 -0.158548
H24   H     H_    0.279974 0.848567 0.700007 0.103558
H25   H     H_    0.221331 0.773110 0.928572 0.103615
H26   H     H_    0.374397 0.767973 0.120049 0.128876
H27   H     H_    0.587397 0.850096 0.085539 0.109939
H28   H     H_    0.646065 0.928104 0.859007 0.108915

loop_
_geom_bond_atom_site_label_1
_geom_bond_atom_site_label_2
_geom_bond_distance
_ccdc_geom_bond_type
C32   N2    1.367452 A    
C11   H7    1.083647 S    
O7    Cu2   1.994379 S    
C25   H13   1.072857 S    
C42   C43   1.402242 A    
O5    C3    1.308315 A    
O1    C1    1.308208 A    
C14   C16   1.402371 A    
C18   C20   1.400039 A    
C44   H28   1.083076 S    
C31   H17   1.077709 S    
C32   H18   1.080916 S    
C35   H20   1.080180 S    
Cu2   N2    2.037819 S    
C3    C20   1.471235 S    
C37   H22   1.077385 S    
C23   C25   1.387628 A    
O4    Cu1   1.993648 S    
C43   H27   1.080443 S    
C13   H9    1.080245 S    
C1    C28   1.470826 S    
C2    C27   1.470056 S    
C40   H24   1.083356 S    
C26   H14   1.074715 S    
C36   C37   1.400253 A    
Cu1   Cu2   2.711698 S    
C19   C21   1.408625 A    
O2    C2    1.308597 A    
C20   C22   1.411161 A    
C9    C22   1.466840 S    
H1    C15   1.080794 S    
C10   C21   1.468325 S    
C30   H16   1.081180 S    
C29   H15   1.080910 S    
C24   C26   1.392253 A    
C39   C40   1.404605 A    
C11   C13   1.391946 A    
C37   C38   1.395308 A    
C12   C14   1.394535 A    
C41   C42   1.394468 A    
O4    C2    1.302415 A    
C29   C31   1.428067 A    
C43   C44   1.394549 A    
C25   C27   1.389672 A    
C23   C28   1.411011 A    
C38   H23   1.083166 S    
C24   C27   1.408619 A    
C23   C33   1.466807 S    
C5    C7    1.395374 A    
C14   H10   1.080431 S    
C40   C41   1.393596 A    
C4    C19   1.470450 S    
C29   N2    1.365355 A    
C36   H21   1.080780 S    
O5    Cu1   1.983894 S    
O6    C4    1.308699 A    
C34   H19   1.083555 S    
O7    C3    1.303876 A    
O3    Cu2   1.993648 S    
O8    C4    1.302502 A    
C39   C44   1.398523 A    
C7    H5    1.083261 S    
C8    H6    1.083367 S    
O1    Cu1   1.983513 S    
C24   C39   1.468417 S    
C30   C32   1.428078 A    
C7    C9    1.400042 A    
C33   C38   1.399897 A    
O6    Cu2   1.983893 S    
C6    C8    1.393578 A    
O3    C1    1.303770 A    
O8    Cu1   1.994378 S    
C41   H25   1.080995 S    
C31   N1    1.363582 A    
C30   N1    1.367009 A    
C9    C11   1.404764 A    
C10   C12   1.398499 A    
C34   C35   1.391955 A    
C17   C22   1.387760 A    
C12   H8    1.083115 S    
C18   C21   1.392513 A    
C17   H11   1.072751 S    
H2    C16   1.081042 S    
C18   H12   1.074847 S    
C42   H26   1.081018 S    
C13   C15   1.391689 A    
C5    H3    1.077687 S    
C6    H4    1.081016 S    
C17   C19   1.389526 A    
O2    Cu2   1.983513 S    
C33   C34   1.404574 A    
C26   C28   1.399922 A    
Cu1   N1    2.037819 S    
C35   C36   1.391617 A    
C8    C10   1.404685 A    
C5    C15   1.400356 A    
C6    C16   1.394421 A    
