data_mof_unit_66235.cif
_audit_creation_date              2012-12-11T14:24:14-0500
_audit_creation_method            fapswitch 2.2
_symmetry_space_group_name_H-M    P1
_symmetry_Int_Tables_number       1
_space_group_crystal_system       triclinic
_cell_length_a                    6.951413
_cell_length_b                    17.456606
_cell_length_c                    18.859135
_cell_angle_alpha                 105.40602
_cell_angle_beta                  89.58229
_cell_angle_gamma                 90.398658
_cell_volume                      2206.1989827

loop_
_atom_site_label
_atom_site_type_symbol
_atom_type_description
_atom_site_fract_x
_atom_site_fract_y
_atom_site_fract_z
_atom_type_partial_charge
O1    O     O_R   0.494360 0.416740 0.414860 -0.538401
O2    O     O_R   0.818980 0.432970 0.557290 -0.532972
O3    O     O_R   0.994290 0.583260 0.585140 -0.540278
C1    C     C_R   0.649917 0.415825 0.580510 0.703515
O4    O     O_R   0.823740 0.407570 0.413690 -0.507799
O5    O     O_R   0.999090 0.557670 0.440510 -0.521131
C2    C     C_R   0.655259 0.384839 0.386429 0.774539
O6    O     O_R   0.489560 0.442330 0.559490 -0.523420
O7    O     O_3   0.662450 0.549280 0.508970 -0.365974
V1    V     V_3+5 0.935350 0.490860 0.498340 1.433332
O8    O     O_R   0.329100 0.567030 0.442710 -0.525490
C3    C     C_R   0.161017 0.584041 0.419368 0.729043
O9    O     O_R   0.324330 0.592430 0.586310 -0.538343
C4    C     C_R   0.154765 0.614978 0.613481 0.740268
V2    V     V_3+5 0.435960 0.509140 0.501660 1.415618
O10   O     O_3   0.158990 0.450720 0.491030 -0.362119
C5    C     C_2   0.278773 0.788371 0.784767 -0.128336
C6    C     C_2   0.113906 0.817167 0.819760 -0.311972
H1    H     H_    0.414683 0.815346 0.806539 0.136694
H2    H     H_    0.976303 0.791148 0.799781 0.128505
C7    C     C_2   0.290924 0.720475 0.717236 -0.132486
C8    C     C_2   0.137930 0.682439 0.680056 -0.308795
H3    H     H_    0.434667 0.701666 0.697438 0.134856
H4    H     H_    0.993027 0.700302 0.698206 0.129670
C9    C     C_1   0.110529 0.863966 0.132688 -0.213856
C10   C     C_1   0.118132 0.821410 0.176261 0.000137
C11   C     C_1   0.127745 0.771195 0.228147 -0.000367
C12   C     C_1   0.135975 0.728898 0.271932 0.000758
C13   C     C_1   0.145590 0.678658 0.323797 0.003439
C14   C     C_1   0.153196 0.636062 0.367337 -0.211682
C15   C     C_1   0.641200 0.363761 0.632421 -0.211888
C16   C     C_1   0.636870 0.321110 0.675934 -0.000362
C17   C     C_1   0.633266 0.270873 0.727823 -0.000639
C18   C     C_1   0.630539 0.228601 0.771679 0.000448
C19   C     C_1   0.626905 0.178450 0.823648 0.001778
C20   C     C_1   0.622532 0.135940 0.867291 -0.210267
C21   C     C_2   0.778258 0.211551 0.214158 -0.226941
C22   C     C_2   0.612485 0.179418 0.182839 -0.374382
H5    H     H_    0.913054 0.189920 0.186851 0.156258
H6    H     H_    0.475046 0.198457 0.208714 0.133288
C23   C     C_2   0.794760 0.273898 0.286052 0.455619
C24   C     C_2   0.642531 0.318313 0.318518 -0.391157
H7    H     H_    0.500666 0.307013 0.294601 0.108784
O11   O     O_R   0.774180 0.057760 0.940580 -0.522206
O12   O     O_R   0.439830 0.092440 0.086330 -0.541553
O13   O     O_R   0.264640 0.942310 0.059470 -0.523223
C25   C     C_R   0.608081 0.114582 0.113904 0.776277
O14   O     O_R   0.444740 0.067040 0.942730 -0.525590
O15   O     O_R   0.269590 0.916730 0.914840 -0.534525
C26   C     C_R   0.613796 0.084073 0.919393 0.719124
O16   O     O_R   0.769230 0.083340 0.085210 -0.535840
O17   O     O_3   0.601340 0.950770 0.991070 -0.363566
V3    V     V_3+5 0.328370 0.009130 0.001660 1.409300
O18   O     O_R   0.939550 0.907490 0.913620 -0.541908
C27   C     C_R   0.108599 0.884953 0.886453 0.746209
O19   O     O_R   0.934640 0.932890 0.057220 -0.525454
C28   C     C_R   0.102714 0.915936 0.080612 0.715520
V4    V     V_3+5 0.827780 0.990750 0.998250 1.406300
O20   O     O_3   0.104690 0.049230 0.008930 -0.361748
O21   O     O_3   0.977465 0.292680 0.315195 -0.558778
C29   C     C_3   0.053594 0.228751 0.339077 0.076799
H8    H     H_    0.212934 0.233390 0.337341 0.131376
H9    H     H_    0.015751 0.169106 0.302771 0.096784
C30   C     C_3   0.991492 0.234677 0.418516 -0.293006
H10   H     H_    0.035719 0.293341 0.454519 0.220141
H11   H     H_    0.832363 0.229512 0.421475 0.168708
C31   C     C_3   0.082691 0.169371 0.446895 -0.846548
H12   H     H_    0.038317 0.109931 0.412457 0.233956
H13   H     H_    0.034831 0.175283 0.504397 0.236950
H14   H     H_    0.242051 0.174407 0.446003 0.229008

loop_
_geom_bond_atom_site_label_1
_geom_bond_atom_site_label_2
_ccdc_geom_bond_type
O5    V1    S    
C29   C30   S    
O2    C1    A    
O8    C3    A    
C21   C22   D    
O1    V2    S    
C23   C24   D    
C19   C20   T    
V3    O20   S    
O9    V2    S    
C1    O6    A    
C31   H14   S    
C16   C17   S    
C4    C8    S    
O14   C26   A    
C5    C6    D    
O7    V2    S    
O12   V3    S    
O4    V1    S    
C21   H5    S    
O3    V1    S    
V1    O10   S    
O9    C4    A    
O17   V3    S    
C21   C23   S    
C22   C25   S    
C13   C14   T    
O3    C4    A    
O17   V4    S    
C6    C27   S    
O1    C2    A    
O15   V3    S    
V2    O10   S    
O13   V3    S    
C7    C8    D    
C12   C13   S    
C5    H1    S    
O19   V4    S    
C17   C18   T    
O6    V2    S    
C6    H2    S    
O12   C25   A    
C7    H3    S    
O5    C3    A    
O14   V3    S    
O18   V4    S    
C8    H4    S    
V4    O20   S    
C1    C15   S    
C29   H8    S    
C31   H12   S    
O2    V1    S    
C30   C31   S    
C9    C28   S    
O7    V1    S    
C20   C26   S    
O19   C28   A    
O4    C2    A    
C18   C19   S    
C24   H7    S    
C2    C24   S    
O11   C26   A    
C11   C12   T    
O16   V4    S    
O18   C27   A    
C10   C11   S    
C25   O16   A    
C3    C14   S    
C9    C10   T    
O15   C27   A    
O8    V2    S    
O13   C28   A    
C22   H6    S    
C29   H9    S    
C5    C7    S    
C15   C16   T    
C23   O21   S    
O11   V4    S    
O21   C29   S    
C31   H13   S    
C30   H10   S    
C30   H11   S    
