data_mof_unit_46687.cif
_audit_creation_date              2012-12-10T17:03:44-0500
_audit_creation_method            fapswitch 2.2
_symmetry_space_group_name_H-M    P1
_symmetry_Int_Tables_number       1
_space_group_crystal_system       triclinic
_cell_length_a                    10.039824
_cell_length_b                    10.72828
_cell_length_c                    13.124171
_cell_angle_alpha                 90.367156
_cell_angle_beta                  70.267303
_cell_angle_gamma                 90.426881
_cell_volume                      1330.54703085

loop_
_atom_site_label
_atom_site_type_symbol
_atom_type_description
_atom_site_fract_x
_atom_site_fract_y
_atom_site_fract_z
_atom_type_partial_charge
C1    C     C_R   0.500959 0.737337 0.499254 0.919040
C2    C     C_R   0.370335 0.480335 0.821400 -0.112980
C3    C     C_2   0.601465 0.067691 0.522536 -0.165621
C4    C     C_R   0.421495 0.492850 0.703857 0.836322
C5    C     C_2   0.489005 0.131669 0.520236 -0.339641
C6    C     C_2   0.597120 0.933327 0.527342 -0.163137
C7    C     C_2   0.504638 0.869260 0.494217 -0.321060
C8    C     C_2   0.109183 0.458889 0.419739 -0.224557
C9    C     C_2   0.953718 0.434345 0.431183 0.599513
C10   C     C_R   0.497625 0.262763 0.504441 0.930412
C11   C     C_R   0.578503 0.499426 0.295909 0.872805
C12   C     C_R   0.431027 0.468404 0.984581 0.085100
C13   C     C_R   0.772049 0.375544 0.018525 -0.215684
C14   C     C_R   0.625226 0.481703 0.179527 -0.056430
C15   C     C_R   0.235981 0.526172 0.881413 -0.197746
C16   C     C_R   0.196222 0.537340 0.993128 -0.144613
C17   C     C_R   0.293696 0.512224 0.044480 -0.200601
C18   C     C_3   0.021185 0.262955 0.313152 0.012458
C19   C     C_3   0.957952 0.156935 0.266495 -0.779748
C20   C     C_3   0.818298 0.631647 0.637347 0.201716
C21   C     C_3   0.898418 0.725184 0.682911 -0.927595
C22   C     C_R   0.461301 0.436808 0.874973 0.089498
C23   C     C_R   0.539604 0.455191 0.029572 0.078990
C24   C     C_R   0.666125 0.391113 0.972006 0.187136
C25   C     C_R   0.683727 0.342241 0.869793 -0.275881
C26   C     C_R   0.582482 0.364604 0.821695 -0.227672
C27   C     C_R   0.526979 0.507380 0.129417 -0.269233
C28   C     C_R   0.750508 0.418981 0.123253 -0.201980
H1    H     H_    0.827940 0.398978 0.161622 0.179795
H2    H     H_    0.257849 0.524738 0.131187 0.128580
H3    H     H_    0.091756 0.570955 0.039550 0.151249
H4    H     H_    0.599551 0.323647 0.742800 0.172740
H5    H     H_    0.699504 0.113711 0.519470 0.180380
H6    H     H_    0.191265 0.438779 0.343383 0.141038
H7    H     H_    0.070509 0.221720 0.369480 0.142809
H8    H     H_    0.102564 0.310090 0.244532 0.149369
H9    H     H_    0.908138 0.194006 0.209280 0.248762
H10   H     H_    0.042434 0.090560 0.222468 0.208264
H11   H     H_    0.876794 0.106393 0.332519 0.254924
H12   H     H_    0.386606 0.088835 0.532705 0.152195
H13   H     H_    0.802258 0.545083 0.686728 0.131867
H14   H     H_    0.715111 0.674056 0.645488 0.191553
H15   H     H_    0.915238 0.813310 0.636153 0.265021
H16   H     H_    0.836336 0.745615 0.768880 0.220033
H17   H     H_    0.002663 0.687101 0.678667 0.258978
H18   H     H_    0.673993 0.886843 0.555498 0.173141
H19   H     H_    0.431149 0.912224 0.460879 0.150683
H20   H     H_    0.071515 0.499119 0.574176 0.188518
H21   H     H_    0.777127 0.289078 0.826002 0.146594
H22   H     H_    0.868673 0.326110 0.975592 0.141119
H23   H     H_    0.438055 0.565494 0.172024 0.153395
H24   H     H_    0.163204 0.556592 0.841760 0.157434
N1    N     N_2   0.148270 0.498670 0.498870 -0.173565
N2    N     N_2   0.852610 0.498640 0.498840 0.022790
O1    O     O_R   0.386950 0.680940 0.500020 -0.600526
O2    O     O_3   0.896007 0.608961 0.527524 -0.572712
O3    O     O_R   0.613110 0.680900 0.499980 -0.603159
O4    O     O_R   0.330780 0.500000 0.653640 -0.617407
O5    O     O_R   0.556930 0.499960 0.653610 -0.658268
O6    O     O_R   0.386890 0.319100 0.500020 -0.623127
O7    O     O_R   0.613050 0.319060 0.499980 -0.586663
O8    O     O_R   0.443070 0.500040 0.346390 -0.617840
O9    O     O_R   0.669220 0.500000 0.346360 -0.574112
O10   O     O_3   0.913097 0.347537 0.367329 -0.611712
Zn1   Zn    Zn3+2 0.349000 0.500030 0.500020 0.938460
Zn2   Zn    Zn3+2 0.651000 0.499970 0.499980 1.000590

loop_
_geom_bond_atom_site_label_1
_geom_bond_atom_site_label_2
_ccdc_geom_bond_type
C8    N1    D    
C2    C22   A    
C10   O6    A    
C23   C24   A    
C13   C28   A    
C26   H4    S    
C6    C7    D    
N2    Zn2   S    
C19   H10   S    
C23   C27   A    
C14   C27   A    
C21   H16   S    
N1    Zn1   S    
C18   H7    S    
O4    Zn1   S    
C2    C4    S    
C2    C15   A    
O3    Zn2   S    
C20   O2    S    
C11   O8    A    
C3    C6    S    
C20   H13   S    
C1    O1    A    
O9    Zn2   S    
C5    C10   S    
C8    H6    S    
C15   H24   S    
C24   C25   A    
C12   C17   A    
C20   H14   S    
C12   C23   A    
C18   O10   S    
C16   C17   A    
C17   H2    S    
C21   H17   S    
C19   H11   S    
C4    O5    A    
C28   H1    S    
O1    Zn1   S    
C27   H23   S    
O6    Zn1   S    
C1    O3    A    
O5    Zn2   S    
C6    H18   S    
H20   N1    S    
C11   C14   S    
C25   H21   S    
C10   O7    A    
C3    H5    S    
C13   H22   S    
C9    O10   S    
C12   C22   A    
C20   C21   S    
C18   C19   S    
C22   C26   A    
C5    H12   S    
C4    O4    A    
C3    C5    D    
C8    C9    S    
C9    N2    D    
C19   H9    S    
O8    Zn1   S    
C14   C28   A    
C25   C26   A    
C1    C7    S    
C11   O9    A    
C18   H8    S    
O7    Zn2   S    
C21   H15   S    
C15   C16   A    
C13   C24   A    
N2    O2    S    
C16   H3    S    
C7    H19   S    
