data_mof_unit_55666.cif
_audit_creation_date              2012-12-10T17:58:18-0500
_audit_creation_method            fapswitch 2.2
_symmetry_space_group_name_H-M    P1
_symmetry_Int_Tables_number       1
_space_group_crystal_system       triclinic
_cell_length_a                    9.51486
_cell_length_b                    10.83312
_cell_length_c                    15.544212
_cell_angle_alpha                 89.840697
_cell_angle_beta                  74.120845
_cell_angle_gamma                 89.998526
_cell_volume                      1541.08328323

loop_
_atom_site_label
_atom_site_type_symbol
_atom_type_description
_atom_site_fract_x
_atom_site_fract_y
_atom_site_fract_z
_atom_type_partial_charge
C1    C     C_R   0.999888 0.262062 0.500173 0.816056
C2    C     C_R   0.000028 0.737941 0.500012 0.782753
C3    C     C_R   0.568776 0.588081 0.084608 -0.182751
C4    C     C_R   0.412560 0.499130 0.901948 -0.239062
C5    C     C_R   0.711383 0.615778 0.037325 -0.240508
C6    C     C_R   0.264077 0.498465 0.947137 -0.215769
C7    C     C_R   0.871288 0.063851 0.502274 -0.153233
C8    C     C_R   0.128394 0.936174 0.498443 -0.182925
C9    C     C_R   0.871366 0.936141 0.502126 -0.186142
C10   C     C_R   0.128331 0.063881 0.498554 -0.186665
C11   C     C_R   0.999934 0.871791 0.500175 -0.015086
C12   C     C_R   0.999819 0.128227 0.500372 -0.011324
C13   C     C_R   0.551685 0.416950 0.550693 -0.026833
C14   C     C_R   0.448035 0.583821 0.450004 0.065258
C15   C     C_R   0.402875 0.416932 0.550628 -0.037769
C16   C     C_R   0.597016 0.583360 0.449635 -0.017663
C17   C     C_R   0.917955 0.498955 0.671919 0.877138
C18   C     C_R   0.082899 0.496330 0.327621 0.798735
C19   C     C_R   0.872525 0.509634 0.769465 -0.046887
C20   C     C_R   0.130771 0.494333 0.228759 -0.111418
C21   C     C_R   0.907677 0.609578 0.900971 -0.217956
C22   C     C_R   0.070377 0.499436 0.086647 -0.209072
C23   C     C_R   0.959307 0.578990 0.811208 -0.245663
C24   C     C_R   0.026735 0.502396 0.179899 -0.211316
C25   C     C_R   0.734318 0.465866 0.819589 -0.059547
C26   C     C_R   0.280905 0.485475 0.181953 -0.061277
C27   C     C_R   0.671167 0.518247 0.904827 0.003618
C28   C     C_R   0.324771 0.507694 0.088975 0.008212
C29   C     C_R   0.764003 0.580729 0.948031 0.168937
C30   C     C_R   0.219051 0.501972 0.040619 0.155786
C31   C     C_R   0.519442 0.511329 0.949032 0.052009
C32   C     C_R   0.472185 0.531602 0.042225 0.062328
Cu1   Cu    Cu3+1 0.140660 0.500020 0.500000 0.968419
Cu2   Cu    Cu3+1 0.859340 0.499980 0.500000 0.967916
H1    H     H_    0.780871 0.664184 0.070918 0.144391
H2    H     H_    0.184723 0.492812 0.908917 0.152590
H3    H     H_    0.911058 0.506262 0.213740 0.175877
H4    H     H_    0.066446 0.611431 0.773957 0.162698
H5    H     H_    0.977720 0.661119 0.932426 0.143429
H6    H     H_    0.987933 0.497256 0.050618 0.149555
H7    H     H_    0.531381 0.620863 0.152605 0.189771
H8    H     H_    0.442506 0.497843 0.829590 0.146230
H9    H     H_    0.770745 0.111880 0.503870 0.152025
H10   H     H_    0.228923 0.888154 0.496891 0.145715
H11   H     H_    0.770895 0.888093 0.503572 0.147181
H12   H     H_    0.228810 0.111931 0.497089 0.150854
H13   H     H_    0.589512 0.350407 0.591298 0.157773
H14   H     H_    0.410013 0.650831 0.409775 0.126771
H15   H     H_    0.328584 0.350444 0.591223 0.124958
H16   H     H_    0.671293 0.649871 0.409052 0.114290
N1    N     N_R   0.352080 0.500030 0.499980 -0.156972
N2    N     N_R   0.647920 0.499970 0.500020 -0.164474
O1    O     O_R   0.118740 0.319660 0.500000 -0.594108
O2    O     O_R   0.881260 0.680340 0.500000 -0.595636
O3    O     O_R   0.881170 0.319630 0.500010 -0.576077
O4    O     O_R   0.118830 0.680370 0.499990 -0.599518
O5    O     O_R   0.055570 0.500030 0.629830 -0.601157
O6    O     O_R   0.944430 0.499970 0.370170 -0.587880
O7    O     O_R   0.818000 0.500000 0.629840 -0.552119
O8    O     O_R   0.182000 0.500000 0.370160 -0.532114
C33   C     C_2   0.384149 0.417310 0.221440 0.359940
H17   H     H_    0.409302 0.321730 0.202854 0.065076
O9    O     O_2   0.445822 0.467687 0.271100 -0.556066
C34   C     C_2   0.670877 0.350683 0.792191 0.307799
H18   H     H_    0.570672 0.311552 0.834210 0.090062
O10   O     O_2   0.734715 0.292231 0.725981 -0.559159

loop_
_geom_bond_atom_site_label_1
_geom_bond_atom_site_label_2
_ccdc_geom_bond_type
C10   H12   S    
C19   C23   A    
C8    C10   A    
C9    H11   S    
C15   N1    A    
Cu1   N1    S    
C23   H4    S    
Cu1   O5    S    
C26   C28   A    
C31   C32   A    
C21   H5    S    
C13   C15   A    
C25   C27   A    
C22   H6    S    
C34   H18   S    
C33   H17   S    
Cu1   O4    S    
C28   C30   A    
Cu1   Cu2   S    
C1    O3    A    
Cu2   O3    S    
C20   C26   A    
C2    O4    A    
C20   C24   A    
C9    C11   A    
C7    C12   A    
C1    C12   S    
C4    H8    S    
C17   O7    A    
C8    C11   A    
C19   C25   A    
C2    C11   S    
C5    H1    S    
C22   C24   A    
C18   O8    A    
C13   H13   S    
C6    C30   A    
C26   C33   S    
C6    H2    S    
Cu2   O2    S    
Cu1   O8    S    
C18   C20   S    
C15   H15   S    
C21   C23   A    
Cu1   O1    S    
C3    C32   A    
C10   C12   A    
C14   C16   A    
C4    C31   A    
C27   C29   A    
C27   C31   A    
C13   N2    A    
C5    C29   A    
C7    C9    A    
C28   C32   A    
C14   N1    A    
C4    C6    A    
C2    O2    A    
C17   O5    A    
C24   H3    S    
Cu2   O6    S    
C1    O1    A    
C3    H7    S    
C14   H14   S    
Cu2   N2    S    
C22   C30   A    
C25   C34   S    
C17   C19   S    
Cu2   O7    S    
C21   C29   A    
C18   O6    A    
C33   O9    D    
C16   N2    A    
C8    H10   S    
C16   H16   S    
C3    C5    A    
C7    H9    S    
C34   O10   D    
