data_mof_unit_10502.cif
_audit_creation_date              2012-12-10T17:45:19-0500
_audit_creation_method            fapswitch 2.2
_symmetry_space_group_name_H-M    P1
_symmetry_Int_Tables_number       1
_space_group_crystal_system       triclinic
_cell_length_a                    15.110606
_cell_length_b                    13.682129
_cell_length_c                    23.517589
_cell_angle_alpha                 90.001321
_cell_angle_beta                  90.634025
_cell_angle_gamma                 88.506435
_cell_volume                      4860.20043395

loop_
_atom_site_label
_atom_site_type_symbol
_atom_type_description
_atom_site_fract_x
_atom_site_fract_y
_atom_site_fract_z
_atom_type_partial_charge
C1    C     C_R   0.328555 0.501357 0.501903 0.875417
C2    C     C_R   0.538653 0.572255 0.707279 0.238188
C3    C     C_R   0.471300 0.569005 0.233039 0.364952
C4    C     C_R   0.524557 0.569160 0.766972 0.371973
C5    C     C_R   0.506572 0.482182 0.208479 0.193643
C6    C     C_R   0.493500 0.482333 0.791573 0.200762
C7    C     C_R   0.821056 0.409943 0.509753 0.412635
C8    C     C_R   0.182458 0.588574 0.520631 0.345624
C9    C     C_R   0.769638 0.497551 0.504016 -0.193230
C10   C     C_R   0.231606 0.504452 0.502969 -0.204861
C11   C     C_R   0.812603 0.586998 0.499913 -0.229649
C12   C     C_R   0.671903 0.498869 0.502120 0.892629
C13   C     C_R   0.187685 0.420583 0.485849 -0.264280
C14   C     C_R   0.904608 0.589737 0.501245 0.081519
C15   C     C_R   0.096116 0.418105 0.487305 0.090933
C16   C     C_R   0.497388 0.499907 0.390655 0.868979
C17   C     C_R   0.502830 0.499751 0.609365 0.923467
C18   C     C_R   0.954420 0.501946 0.497881 -0.034034
C19   C     C_R   0.046929 0.504687 0.497654 -0.024918
C20   C     C_R   0.911803 0.411125 0.496456 -0.080739
C21   C     C_R   0.090220 0.593277 0.509193 -0.063839
C22   C     C_R   0.947105 0.679191 0.504011 -0.292463
C23   C     C_R   0.538936 0.406389 0.243098 -0.149737
C24   C     C_R   0.053428 0.330372 0.477248 -0.302762
C25   C     C_R   0.040201 0.682577 0.509596 0.544941
C26   C     C_R   0.961140 0.324523 0.483494 0.545223
C27   C     C_R   0.437897 0.794668 0.468662 0.199776
C28   C     C_R   0.552621 0.204984 0.537410 0.141930
C29   C     C_R   0.561625 0.791779 0.531240 0.132779
C30   C     C_R   0.443341 0.208656 0.464581 0.065212
C31   C     C_R   0.560778 0.894798 0.533862 -0.126294
C32   C     C_R   0.437999 0.105543 0.465760 -0.133017
C33   C     C_R   0.435633 0.898005 0.467453 -0.137524
C34   C     C_R   0.465222 0.406301 0.756988 -0.163849
C35   C     C_R   0.555737 0.101864 0.537388 -0.123039
C36   C     C_R   0.497379 0.948275 0.501184 -0.054601
C37   C     C_R   0.496970 0.051804 0.501452 -0.050625
C38   C     C_R   0.622049 0.945143 0.568031 0.405895
C39   C     C_R   0.375685 0.055303 0.432107 0.420495
C40   C     C_R   0.374045 0.951984 0.433206 0.411600
C41   C     C_R   0.616144 0.048137 0.572269 0.395278
C42   C     C_R   0.575253 0.460665 0.879944 0.604690
C43   C     C_R   0.425881 0.459948 0.120125 0.612819
C44   C     C_R   0.417071 0.464181 0.881095 0.626256
C45   C     C_R   0.537059 0.415329 0.301745 -0.244259
C46   C     C_R   0.583856 0.464388 0.118957 0.625195
C47   C     C_R   0.417706 0.457838 0.940682 -0.030719
C48   C     C_R   0.583538 0.458148 0.059372 -0.028055
C49   C     C_R   0.499548 0.456511 0.970021 -0.013796
C50   C     C_R   0.501772 0.456432 0.030037 -0.013545
C51   C     C_R   0.579149 0.456724 0.939496 -0.026651
C52   C     C_R   0.422176 0.456110 0.060566 -0.028639
C53   C     C_R   0.338763 0.455498 0.971584 -0.136453
C54   C     C_R   0.662588 0.456334 0.028472 -0.137771
C55   C     C_R   0.340994 0.454166 0.030919 -0.124800
C56   C     C_R   0.466995 0.415103 0.698340 -0.274040
C57   C     C_R   0.660422 0.455154 0.969140 -0.126243
C58   C     C_3   0.039544 0.848893 0.533282 -0.239822
C59   C     C_3   0.961957 0.153598 0.486123 -0.187901
C60   C     C_3   0.763505 0.886033 0.569232 -0.220264
C61   C     C_3   0.243277 0.137308 0.424194 -0.316052
C62   C     C_3   0.240551 0.876446 0.425293 -0.128223
C63   C     C_3   0.638158 0.102683 0.662047 -0.216969
C64   C     C_R   0.496926 0.497392 0.327601 -0.212801
C65   C     C_R   0.503339 0.497167 0.672456 -0.187811
C66   C     C_R   0.457786 0.572388 0.292829 0.227586
Cu1   Cu    Cu3+1 0.500000 0.597420 0.500000 1.079484
Cu2   Cu    Cu3+1 0.500000 0.402580 0.500000 0.984614
H1    H     H_    0.275011 0.455887 0.950069 0.197651
H2    H     H_    0.440750 0.340159 0.775828 0.178175
H3    H     H_    0.566074 0.356406 0.327115 0.199605
H4    H     H_    0.441019 0.355983 0.673038 0.185079
H5    H     H_    0.774555 0.655257 0.498262 0.175470
H6    H     H_    0.225036 0.355301 0.473732 0.164611
H7    H     H_    0.907040 0.745838 0.502169 0.129742
H8    H     H_    0.092678 0.266508 0.465435 0.126147
H9    H     H_    0.008325 0.826991 0.573874 0.181685
H10   H     H_    0.989819 0.882366 0.503547 0.123266
H11   H     H_    0.087908 0.905979 0.543756 0.195798
H12   H     H_    0.726314 0.457029 0.049986 0.197178
H13   H     H_    0.995373 0.160627 0.528336 0.160176
H14   H     H_    0.010103 0.130868 0.452995 0.124595
H15   H     H_    0.913613 0.094353 0.489900 0.193398
H16   H     H_    0.812859 0.842241 0.594336 0.202294
H17   H     H_    0.791798 0.959144 0.561692 0.185935
H18   H     H_    0.753239 0.847458 0.528085 0.107612
H19   H     H_    0.259024 0.177512 0.464031 0.123227
H20   H     H_    0.200884 0.074688 0.434043 0.157402
H21   H     H_    0.204209 0.188003 0.396297 0.204283
H22   H     H_    0.232842 0.907827 0.468842 0.127575
H23   H     H_    0.390136 0.753993 0.444780 0.211274
H24   H     H_    0.240036 0.795547 0.428215 0.223880
H25   H     H_    0.181495 0.899908 0.399855 0.184527
H26   H     H_    0.628909 0.028961 0.680746 0.218658
H27   H     H_    0.574300 0.145194 0.661454 0.120714
H28   H     H_    0.684735 0.141942 0.690156 0.198724
H29   H     H_    0.298763 0.559036 0.364038 0.333687
H30   H     H_    0.701995 0.557545 0.639292 0.357943
H31   H     H_    0.495322 0.720788 0.106228 0.380096
H32   H     H_    0.489716 0.721851 0.892906 0.378951
H33   H     H_    0.711220 0.308734 0.631267 0.374256
H34   H     H_    0.592587 0.244926 0.566986 0.204989
H35   H     H_    0.277421 0.557395 0.629342 0.332468
H36   H     H_    0.611183 0.749357 0.554386 0.220887
H37   H     H_    0.401069 0.251716 0.436247 0.167069
H38   H     H_    0.278875 0.453597 0.053440 0.200275
H39   H     H_    0.722562 0.454991 0.946620 0.200406
H40   H     H_    0.566652 0.340309 0.224276 0.183898
N1    N     N_R   0.495119 0.468338 0.852179 -0.441089
N2    N     N_R   0.505611 0.468064 0.147883 -0.439651
N3    N     N_R   0.500000 0.743810 0.500000 -0.223471
N4    N     N_R   0.500000 0.256190 0.500000 -0.215353
O1    O     O_R   0.370260 0.582280 0.500010 -0.511133
O2    O     O_2   0.350416 0.456680 0.150148 -0.497294
O3    O     O_2   0.339278 0.468730 0.852378 -0.501614
O4    O     O_2   0.661413 0.469348 0.147663 -0.507083
O5    O     O_3   0.085274 0.770148 0.506843 -0.557980
O6    O     O_3   0.915666 0.240238 0.469505 -0.528125
O7    O     O_3   0.684453 0.893768 0.600429 -0.517488
O8    O     O_3   0.319956 0.106187 0.394847 -0.527618
O9    O     O_3   0.317261 0.904888 0.396285 -0.512289
O10   O     O_3   0.674850 0.096184 0.607286 -0.543521
O11   O     O_2   0.436005 0.747925 0.340940 -0.219356
O12   O     O_R   0.629740 0.417720 0.499990 -0.525925
O13   O     O_2   0.314033 0.694740 0.280347 -0.173529
O14   O     O_3   0.331138 0.615703 0.379060 -0.569658
O15   O     O_2   0.554131 0.746477 0.657651 -0.209405
O16   O     O_2   0.676163 0.695151 0.720769 -0.180050
O17   O     O_3   0.666552 0.612741 0.622851 -0.557045
O18   O     O_2   0.357265 0.671562 0.166196 -0.219636
O19   O     O_2   0.464099 0.766174 0.221146 -0.183589
O20   O     O_3   0.520448 0.671712 0.133275 -0.537344
O21   O     O_2   0.631766 0.672865 0.834520 -0.224028
O22   O     O_2   0.521451 0.766380 0.778095 -0.192859
O23   O     O_R   0.629740 0.582280 0.499990 -0.602900
O24   O     O_3   0.467760 0.672460 0.865770 -0.531765
O25   O     O_2   0.739787 0.238628 0.513414 -0.248728
O26   O     O_2   0.857991 0.263538 0.583626 -0.280351
O27   O     O_3   0.708965 0.356050 0.599388 -0.580193
O28   O     O_2   0.270478 0.753952 0.541228 -0.268113
O29   O     O_2   0.159691 0.709303 0.610950 -0.252514
O30   O     O_3   0.308084 0.611814 0.610823 -0.500800
O31   O     O_R   0.370260 0.417720 0.500010 -0.620905
O32   O     O_R   0.499980 0.582290 0.417880 -0.533553
O33   O     O_R   0.500020 0.417710 0.582120 -0.610625
O34   O     O_R   0.500020 0.582290 0.582120 -0.490681
O35   O     O_R   0.499980 0.417710 0.417880 -0.602994
O36   O     O_2   0.650886 0.457887 0.849929 -0.501474
S1    S     S_3+6 0.383612 0.661385 0.322678 0.074186
S2    S     S_3+6 0.609769 0.660474 0.677771 0.085858
S3    S     S_3+6 0.450789 0.673133 0.188571 0.093777
S4    S     S_3+6 0.538722 0.673768 0.811199 0.094098
S5    S     S_3+6 0.782173 0.312228 0.551672 0.039029
S6    S     S_3+6 0.229532 0.670008 0.571401 0.060953

loop_
_geom_bond_atom_site_label_1
_geom_bond_atom_site_label_2
_ccdc_geom_bond_type
C2    S2    S    
O11   S1    D    
C34   C56   A    
C23   C45   A    
C45   H3    S    
C14   C18   A    
O19   S3    D    
C59   H14   S    
C2    C65   A    
C42   O36   S    
Cu2   O12   S    
H33   O27   S    
C47   C49   A    
C27   C33   A    
C15   C19   A    
C40   O9    S    
C63   H26   S    
H31   O20   S    
C60   O7    S    
C16   O35   A    
C36   C37   A    
C35   C37   A    
C42   N1    A    
C59   H15   S    
O15   S2    D    
O14   S1    S    
C43   C52   A    
C5    N2    S    
O27   S5    S    
C56   C65   A    
C63   H27   S    
C33   C36   A    
Cu2   O31   S    
C18   C19   A    
Cu2   N4    S    
C32   C39   A    
C61   H19   S    
C58   H9    S    
C44   O3    S    
C49   C51   A    
C12   O23   A    
C62   H24   S    
C50   C52   A    
C27   H23   S    
C51   C57   A    
C43   N2    A    
C8    S6    S    
C34   H2    S    
C44   C47   A    
C42   C51   A    
C47   C53   A    
C44   N1    A    
C48   C50   A    
C27   N3    A    
C61   O8    S    
O21   S4    D    
C1    O1    A    
C22   H7    S    
Cu1   O32   S    
O24   S4    S    
C61   H21   S    
C54   H12   S    
C53   C55   A    
C4    S4    S    
C46   C48   A    
C33   C40   A    
C55   H38   S    
Cu1   Cu2   S    
C59   H13   S    
C28   C35   A    
C38   C41   A    
C4    C6    A    
C11   H5    S    
C39   C40   A    
C60   H18   S    
C24   H8    S    
C56   H4    S    
C53   H1    S    
C63   H28   S    
C22   C25   A    
C58   O5    S    
C28   N4    A    
C6    C34   A    
C29   H36   S    
C30   N4    A    
C64   C66   A    
C41   O10   S    
C48   C54   A    
Cu1   O23   S    
C1    O31   A    
C61   H20   S    
C2    C4    A    
C5    C23   A    
O22   S4    D    
Cu1   O34   S    
C8    C21   A    
O25   S5    D    
C32   C37   A    
O30   S6    S    
C9    C11   A    
Cu2   O35   S    
O13   S1    D    
C58   H11   S    
C66   S1    S    
C38   O7    S    
O26   S5    D    
Cu1   N3    S    
C15   C24   A    
C57   H39   S    
C49   C50   A    
C59   O6    S    
C13   C15   A    
C30   H37   S    
C17   O33   A    
C6    N1    S    
C3    C66   A    
H35   O30   S    
C63   O10   S    
O16   S2    D    
C7    C9    A    
C21   C25   A    
C16   O32   A    
C3    S3    S    
C29   N3    A    
C8    C10   A    
C1    C10   S    
C26   O6    S    
C24   C26   A    
H29   O14   S    
C3    C5    A    
C10   C13   A    
C25   O5    S    
C60   H17   S    
C52   C55   A    
C45   C64   A    
C17   C65   S    
C31   C38   A    
C46   O4    S    
C14   C22   A    
C46   N2    A    
C17   O34   A    
Cu1   O1    S    
O17   S2    S    
C43   O2    S    
C30   C32   A    
C60   H16   S    
C20   C26   A    
C7    S5    S    
C23   H40   S    
C62   H22   S    
H30   O17   S    
C11   C14   A    
C18   C20   A    
C39   O8    S    
C35   C41   A    
C9    C12   S    
C58   H10   S    
C28   H34   S    
C13   H6    S    
C29   C31   A    
C7    C20   A    
C62   H25   S    
O18   S3    D    
O20   S3    S    
C31   C36   A    
C16   C64   S    
O29   S6    D    
C12   O12   A    
C62   O9    S    
Cu2   O33   S    
H32   O24   S    
O28   S6    D    
C19   C21   A    
C54   C57   A    
