data_mof_unit_43886.cif
_audit_creation_date              2012-12-11T16:34:37-0500
_audit_creation_method            fapswitch 2.2
_symmetry_space_group_name_H-M    P1
_symmetry_Int_Tables_number       1
_space_group_crystal_system       triclinic
_cell_length_a                    8.449077
_cell_length_b                    17.574262
_cell_length_c                    27.2142
_cell_angle_alpha                 95.979845
_cell_angle_beta                  93.013571
_cell_angle_gamma                 82.78805
_cell_volume                      3983.95634477

loop_
_atom_site_label
_atom_site_type_symbol
_atom_type_description
_atom_site_fract_x
_atom_site_fract_y
_atom_site_fract_z
_atom_type_partial_charge
Ba1   Ba    Ba6+2 0.856110 0.463800 0.523550 1.663500
Ba2   Ba    Ba6+2 0.333710 0.536130 0.476450 1.672765
C1    C     C_3   0.738197 0.180987 0.655453 -0.011883
C2    C     C_R   0.940200 0.575567 0.180943 0.636640
C3    C     C_2   0.758270 0.547188 0.269997 0.376582
C4    C     C_3   0.234014 0.236483 0.648925 0.478954
C5    C     C_3   0.733081 0.573335 0.325007 -0.117951
C6    C     C_1   0.983250 0.491018 0.343933 0.069256
C7    C     C_2   0.025235 0.487559 0.296870 -0.149317
C8    C     C_2   0.905856 0.512892 0.256525 0.180868
C9    C     C_R   0.025798 0.502172 0.103587 -0.135273
C10   C     C_R   0.048563 0.435131 0.128866 -0.019329
C11   C     C_R   0.108509 0.365186 0.102915 -0.056191
C12   C     C_3   0.658115 0.262565 0.648530 0.376641
C13   C     C_R   0.969859 0.573145 0.129798 -0.088100
C14   C     C_2   0.846457 0.528548 0.359481 -0.270763
C15   C     C_2   0.357600 0.496780 0.648894 -0.211065
C16   C     C_3   0.216204 0.196679 0.696318 0.609200
C17   C     C_R   0.170565 0.425134 0.976541 0.017494
C18   C     C_R   0.054310 0.560370 0.974539 0.038472
C19   C     C_R   0.129827 0.491079 0.950141 0.051059
C20   C     C_R   0.255163 0.359179 0.951386 -0.105702
C21   C     C_R   0.294748 0.357690 0.902120 -0.066409
C22   C     C_R   0.249950 0.421401 0.875148 -0.021578
C23   C     C_3   0.482408 0.674130 0.630114 0.382725
C24   C     C_R   0.165536 0.487824 0.898885 -0.080941
C25   C     C_R   0.117468 0.551060 0.871447 -0.032385
C26   C     C_R   0.152511 0.546668 0.820576 0.576975
C27   C     C_R   0.289468 0.419697 0.825021 0.550876
C28   C     C_3   0.221753 0.288486 0.393392 0.449615
C29   C     C_2   0.428851 0.448263 0.729659 -0.035008
C30   C     C_3   0.454173 0.434068 0.674774 -0.176373
C31   C     C_1   0.207049 0.517038 0.659883 0.079398
C32   C     C_2   0.160324 0.508270 0.705282 -0.061842
C33   C     C_2   0.280413 0.478309 0.744992 0.192564
C34   C     C_3   0.420859 0.723358 0.676799 0.820069
C35   C     C_R   0.127168 0.427502 0.027006 0.035694
C36   C     C_R   0.060443 0.498243 0.052181 0.046993
C37   C     C_R   0.029410 0.565219 0.026484 -0.036597
C38   C     C_R   0.147756 0.361419 0.053415 -0.098315
C39   C     C_R   0.945150 0.640096 0.104230 0.442093
C40   C     C_3   0.290357 0.225319 0.353917 0.423044
C41   C     C_R   0.004543 0.622394 0.945734 -0.104199
C42   C     C_R   0.034799 0.617604 0.895475 -0.071911
C43   C     C_R   0.977218 0.635609 0.053935 -0.158570
C44   C     C_R   0.403655 0.276019 0.512517 0.103988
C45   C     C_3   0.993802 0.742137 0.343391 0.462852
C46   C     C_R   0.549369 0.251624 0.490190 0.012014
C47   C     C_R   0.606282 0.171566 0.484993 0.041500
C48   C     C_R   0.518370 0.119103 0.504545 0.018741
C49   C     C_R   0.376580 0.145758 0.529044 -0.209913
C50   C     C_R   0.318852 0.224259 0.532987 -0.061932
C51   C     C_R   0.581534 0.834519 0.506152 0.293179
C52   C     C_3   0.952678 0.705937 0.598410 0.417653
C53   C     C_R   0.637299 0.755173 0.502071 0.007932
C54   C     C_R   0.872698 0.779650 0.460716 0.033941
C55   C     C_R   0.819871 0.859547 0.465728 0.003120
C56   C     C_3   0.967251 0.798425 0.302816 -0.096867
C57   C     C_R   0.672370 0.886738 0.487416 -0.054256
C58   C     C_1   0.616934 0.968711 0.492355 0.081563
C59   C     C_1   0.571041 0.037031 0.497825 0.043854
C60   C     C_R   0.778980 0.728290 0.477622 -0.154393
C61   C     C_3   0.877252 0.775361 0.631234 -0.270955
C62   C     C_3   0.692305 0.372205 0.377498 0.317097
C63   C     C_3   0.708381 0.351746 0.322093 -0.327514
C64   C     C_3   0.344573 0.224026 0.270838 0.174196
C65   C     C_3   0.312258 0.852423 0.687310 0.124829
C66   C     C_3   0.367018 0.703519 0.757603 0.219692
C67   C     C_3   0.509488 0.743473 0.369563 0.339635
C68   C     C_3   0.573847 0.637171 0.234377 0.271037
C69   C     C_3   0.737768 0.735645 0.114657 0.226062
C70   C     C_3   0.440533 0.895652 0.571777 0.206200
C71   C     C_3   0.380722 0.393247 0.554539 -0.187798
C72   C     C_3   0.062048 0.297899 0.744510 0.229920
C73   C     C_3   0.515180 0.819613 0.346644 -0.157810
C74   C     C_R   0.008978 0.439059 0.179342 0.609865
H1    H     H_    0.638377 0.265597 0.607996 -0.093878
H2    H     H_    0.796240 0.299658 0.315022 0.133794
H3    H     H_    0.748951 0.399719 0.304874 0.045000
H4    H     H_    0.591333 0.340663 0.304373 0.164870
H5    H     H_    0.542087 0.271684 0.666567 -0.083793
H6    H     H_    0.670800 0.138610 0.632577 0.012256
H7    H     H_    0.379046 0.650054 0.610031 0.047953
H8    H     H_    0.527348 0.749243 0.694396 -0.110119
H9    H     H_    0.875855 0.743909 0.359769 -0.079951
H10   H     H_    0.858793 0.786742 0.279676 0.090613
H11   H     H_    0.943969 0.858324 0.320625 0.093475
H12   H     H_    0.186577 0.196554 0.337129 0.036106
H13   H     H_    0.633921 0.722506 0.381195 -0.090404
H14   H     H_    0.439228 0.753354 0.403482 0.100701
H15   H     H_    0.637184 0.837181 0.352388 0.071892
H16   H     H_    0.255952 0.297446 0.658181 -0.151435
H17   H     H_    0.490648 0.811938 0.306025 0.119845
H18   H     H_    0.146045 0.464911 0.286966 0.138904
H19   H     H_    0.126102 0.312478 0.120966 0.110247
H20   H     H_    0.524124 0.429003 0.755425 0.110888
H21   H     H_    0.360774 0.305640 0.885059 0.118830
H22   H     H_    0.296706 0.308022 0.969202 0.068853
H23   H     H_    0.856184 0.672509 0.582985 0.017945
H24   H     H_    0.190727 0.304994 0.036443 0.064481
H25   H     H_    0.937438 0.675160 0.960731 0.064758
H26   H     H_    0.338820 0.205099 0.629472 -0.207038
H27   H     H_    0.993582 0.666995 0.875464 0.115270
H28   H     H_    0.037156 0.526148 0.714565 0.130310
H29   H     H_    0.964948 0.689488 0.037686 0.082752
H30   H     H_    0.807747 0.522078 0.395856 0.050820
H31   H     H_    0.406002 0.519225 0.618346 0.003939
H32   H     H_    0.309094 0.105430 0.543823 0.088192
H33   H     H_    0.320518 0.317293 0.412786 0.037539
H34   H     H_    0.810393 0.756138 0.660745 0.095469
H35   H     H_    0.216879 0.234146 0.258298 0.073012
H36   H     H_    0.386219 0.161207 0.268854 0.017352
H37   H     H_    0.415347 0.249650 0.245052 0.073941
H38   H     H_    0.514044 0.188100 0.382167 0.216864
H39   H     H_    0.419559 0.118213 0.351586 0.175507
H40   H     H_    0.085209 0.685165 0.537501 0.208369
H41   H     H_    0.126267 0.763422 0.574347 0.224911
H42   H     H_    0.630502 0.575304 0.613866 0.211735
H43   H     H_    0.701040 0.634790 0.660522 0.177567
H44   H     H_    0.425565 0.872653 0.678061 0.011969
H45   H     H_    0.794825 0.813173 0.608663 0.050600
H46   H     H_    0.306767 0.852662 0.727968 0.028659
H47   H     H_    0.212317 0.894159 0.674943 0.065163
H48   H     H_    0.259015 0.744954 0.765682 0.072810
H49   H     H_    0.477367 0.730282 0.769246 -0.032550
H50   H     H_    0.366272 0.655184 0.780622 0.104172
H51   H     H_    0.760172 0.213564 0.730751 0.233242
H52   H     H_    0.637304 0.145863 0.714870 0.189028
H53   H     H_    0.374744 0.264518 0.735344 0.184886
H54   H     H_    0.328288 0.190814 0.765537 0.205531
H55   H     H_    0.968333 0.651369 0.292509 0.155156
H56   H     H_    0.970503 0.809462 0.649022 0.138079
H57   H     H_    0.158901 0.659069 0.310148 0.225621
H58   H     H_    0.106400 0.742749 0.246932 0.221537
H59   H     H_    0.208927 0.791253 0.292193 0.213230
H60   H     H_    0.428531 0.890220 0.406717 0.193372
H61   H     H_    0.287020 0.866931 0.363719 0.224183
H62   H     H_    0.640055 0.678009 0.259190 0.008849
H63   H     H_    0.447164 0.642923 0.244445 0.065823
H64   H     H_    0.573963 0.654945 0.196494 0.056713
H65   H     H_    0.658831 0.690227 0.117586 0.006180
H66   H     H_    0.729067 0.753425 0.076500 0.003543
H67   H     H_    0.809405 0.384855 0.394140 0.017109
H68   H     H_    0.693058 0.786587 0.139891 0.069161
H69   H     H_    0.533188 0.865364 0.595607 0.034799
H70   H     H_    0.323867 0.896239 0.588689 0.073626
H71   H     H_    0.461766 0.956557 0.571607 -0.004031
H72   H     H_    0.024838 0.908733 0.468055 0.205952
H73   H     H_    0.931563 0.899332 0.411380 0.175348
H74   H     H_    0.787596 0.181437 0.438159 0.209119
H75   H     H_    0.836133 0.122706 0.483305 0.207324
H76   H     H_    0.450188 0.439138 0.547446 0.183580
H77   H     H_    0.424104 0.358140 0.585364 0.463858
H78   H     H_    0.602016 0.423568 0.383671 0.058701
H79   H     H_    0.280785 0.429224 0.568972 0.104632
H80   H     H_    0.935625 0.320945 0.750517 0.084853
H81   H     H_    0.113784 0.339918 0.724335 0.023859
H82   H     H_    0.120274 0.293591 0.781724 0.056969
H83   H     H_    0.747641 0.618286 0.452677 0.203586
H84   H     H_    0.871519 0.626392 0.504291 0.189106
H85   H     H_    0.324907 0.091114 0.666300 0.129614
H86   H     H_    0.124707 0.103503 0.656997 0.181843
H87   H     H_    0.106948 0.296486 0.457418 0.229065
H88   H     H_    0.202041 0.207762 0.441971 0.139871
H89   H     H_    0.860394 0.173422 0.641619 0.165841
N1    N     N_R   0.952409 0.508712 0.204797 -0.411280
N2    N     N_3   0.402538 0.882282 0.368681 -0.491485
N3    N     N_3   0.913844 0.913606 0.449072 -0.483664
N4    N     N_3   0.745868 0.140919 0.457906 -0.483670
N5    N     N_3   0.834510 0.647988 0.470898 -0.472366
N6    N     N_3   0.217635 0.113538 0.682852 -0.459527
N7    N     N_3   0.132178 0.254499 0.428028 -0.499215
N8    N     N_R   0.239840 0.481608 0.797471 -0.424901
N9    N     N_3   0.403178 0.167618 0.376603 -0.542343
N10   N     N_3   0.033178 0.733466 0.558965 -0.526992
N11   N     N_3   0.598951 0.611810 0.645362 -0.502970
N12   N     N_3   0.745500 0.163949 0.707081 -0.463746
N13   N     N_3   0.352565 0.207103 0.731085 -0.543064
N14   N     N_3   0.043579 0.663338 0.322943 -0.477734
N15   N     N_3   0.102708 0.793511 0.270781 -0.479137
O1    O     O_2   0.910880 0.540430 0.617910 -0.482775
O2    O     O_2   0.202654 0.771704 0.470388 -0.442761
O3    O     O_3   0.109746 0.765825 0.378648 -0.606359
O4    O     O_3   0.142880 0.540370 0.557740 -0.511434
O5    O     O_3   0.562610 0.408580 0.475460 -0.462811
O6    O     O_2   0.365880 0.685750 0.523280 -0.439880
O7    O     O_3   0.556636 0.720263 0.601334 -0.693604
O8    O     O_2   0.404925 0.541918 0.323237 -0.469056
O9    O     O_3   0.440543 0.689617 0.335361 -0.621492
O10   O     O_2   0.023699 0.380291 0.200367 -0.603775
O11   O     O_2   0.367677 0.362200 0.805960 -0.644757
O12   O     O_3   0.644326 0.309183 0.397557 -0.630783
O13   O     O_2   0.904644 0.637741 0.204449 -0.597984
O14   O     O_2   0.106900 0.601581 0.797264 -0.613443
O15   O     O_3   0.675650 0.402220 0.588450 -0.535820
O16   O     O_2   0.779439 0.465624 0.676075 -0.458514
O17   O     O_3   0.064746 0.662888 0.627228 -0.593678
O18   O     O_3   0.754853 0.318276 0.669326 -0.565745
O19   O     O_2   0.823810 0.314230 0.476690 -0.457862
O20   O     O_3   0.086630 0.363340 0.564170 -0.448268
O21   O     O_2   0.988948 0.228797 0.529215 -0.476585
O22   O     O_3   0.368339 0.260366 0.318895 -0.638481
O23   O     O_3   0.093915 0.234012 0.619182 -0.593890
O24   O     O_3   0.294824 0.778991 0.662701 -0.654911
O25   O     O_3   0.362066 0.673612 0.707437 -0.657025
O26   O     O_3   0.639207 0.559002 0.233309 -0.641821
O27   O     O_3   0.897649 0.711570 0.128987 -0.602115
O28   O     O_3   0.430204 0.858893 0.523327 -0.617262
O29   O     O_3   0.335387 0.350944 0.510687 -0.628802
O30   O     O_3   0.067163 0.223946 0.718221 -0.616543
O31   O     O_2   0.278810 0.459550 0.382060 -0.452016
O32   O     O_3   0.046820 0.459570 0.442260 -0.472631
O33   O     O_3   0.514050 0.597710 0.411540 -0.487409
O34   O     O_3   0.112990 0.339015 0.368461 -0.641261
O35   O     O_3   0.627090 0.591350 0.524530 -0.512336
O36   O     O_3   0.103080 0.636600 0.435820 -0.428041
P1    P     P_3+3 0.078810 0.562990 0.610370 0.978678
P2    P     P_3+3 0.645380 0.325580 0.462150 1.014553
P3    P     P_3+3 0.125205 0.261947 0.561117 0.978597
P4    P     P_3+3 0.110900 0.436950 0.389630 1.043909
P5    P     P_3+3 0.070927 0.738383 0.436445 1.010656
P6    P     P_3+3 0.665304 0.408124 0.653196 0.926163
P7    P     P_3+3 0.547324 0.688532 0.537876 0.959029
P8    P     P_3+3 0.523088 0.596536 0.347641 0.965310

loop_
_geom_bond_atom_site_label_1
_geom_bond_atom_site_label_2
_ccdc_geom_bond_type
C6    C7    D    
O6    P7    D    
Ba2   O36   S    
C63   H3    S    
H83   N5    S    
C62   H78   S    
C39   C43   A    
O12   P2    S    
C19   C24   A    
C56   H11   S    
C66   H48   S    
Ba2   O6    S    
C51   C57   A    
O9    P8    S    
C2    C13   A    
C70   O28   S    
C55   N3    S    
C46   P2    S    
C16   N6    S    
C68   H64   S    
O31   P4    D    
O19   P2    D    
C1    H89   S    
Ba2   O31   S    
C52   O17   S    
C11   H19   S    
C20   H22   S    
C45   H9    S    
C71   O29   S    
C64   H37   S    
C70   H70   S    
C22   C24   A    
H59   N15   S    
Ba1   Ba2   S    
C35   C38   A    
C15   H31   S    
C36   C37   A    
O33   P8    S    
C67   H13   S    
C26   N8    Am   
C55   C57   A    
H74   N4    S    
C52   C61   S    
C29   H20   S    
C53   C60   A    
C44   C50   A    
C51   O28   S    
C54   C55   A    
C32   C33   S    
C12   H1    S    
O36   P5    S    
C11   C38   A    
C45   N14   S    
C65   O24   S    
C17   C35   A    
C61   H45   S    
C3    O26   S    
C22   C27   A    
C9    C13   A    
C25   C42   A    
Ba1   O4    S    
H86   N6    S    
C49   H32   S    
C50   P3    S    
Ba1   O35   S    
C26   O14   D    
C21   C22   A    
C27   O11   D    
C74   N1    Am   
Ba1   P2    S    
C64   H35   S    
C23   O7    S    
C7    C8    S    
C72   H81   S    
C73   H15   S    
C37   C43   A    
C25   C26   A    
H41   N10   S    
C69   O27   S    
H42   N11   S    
C57   C58   S    
C6    C14   D    
C63   H4    S    
Ba1   O32   S    
Ba2   P4    S    
Ba1   O19   S    
H73   N3    S    
C15   C31   D    
O17   P1    S    
C56   H10   S    
C3    C8    D    
C62   O12   S    
C42   H27   S    
C43   H29   S    
C48   C49   A    
H39   N9    S    
C51   C53   A    
C2    O13   D    
C60   N5    S    
C4    C16   S    
C44   C46   A    
O5    P2    S    
C72   H82   S    
C28   H33   S    
C49   C50   A    
C33   N8    S    
C17   C20   A    
C74   O10   D    
C13   C39   A    
C45   O3    S    
C40   N9    S    
C67   O9    S    
C3    C5    S    
C18   C37   A    
H55   N14   S    
H57   N14   S    
O32   P4    S    
H54   N13   S    
C32   H28   S    
O35   P7    S    
C58   C59   T    
Ba1   O15   S    
H51   N12   S    
C52   N10   S    
C39   O27   S    
C9    C36   A    
C41   C42   A    
C41   H25   S    
C35   C36   A    
C6    P4    S    
H43   N11   S    
C28   O34   S    
C12   O18   S    
C29   C30   S    
H38   N9    S    
O3    P5    S    
C16   O30   S    
C28   N7    S    
C71   H79   S    
C1    H6    S    
C31   C32   D    
C24   C25   A    
C72   H80   S    
Ba2   O4    S    
C61   H56   S    
C18   C19   A    
H87   N7    S    
O21   P3    D    
C1    C12   S    
C69   H66   S    
O8    P8    D    
O4    P1    S    
C21   H21   S    
C72   O30   S    
C68   H62   S    
Ba1   O5    S    
C10   C74   A    
C71   H76   S    
O1    P1    D    
H72   N3    S    
C54   C60   A    
C52   H23   S    
C40   O22   S    
Ba1   O20   S    
C40   H12   S    
C67   H14   S    
C70   H71   S    
C65   H46   S    
C66   H50   S    
H61   N2    S    
C18   C41   A    
C73   H17   S    
C53   P7    S    
C65   H44   S    
O20   P3    S    
C46   C47   A    
O2    P5    D    
Ba1   O1    S    
C63   H2    S    
H40   N10   S    
O18   P6    S    
C48   C59   S    
C5    C14   S    
C27   N8    Am   
C65   H47   S    
C38   H24   S    
O15   P6    S    
C30   P6    S    
C9    C10   A    
C62   H67   S    
C31   P1    S    
C8    N1    S    
C68   O26   S    
C44   O29   S    
H53   N13   S    
Ba2   O32   S    
H75   N4    S    
O23   P3    S    
C64   H36   S    
C62   C63   S    
C61   H34   S    
C69   H65   S    
C1    N12   S    
Ba2   O5    S    
C4    O23   S    
O34   P4    S    
C45   C56   S    
C47   N4    S    
C5    P8    S    
C23   N11   S    
C14   H30   S    
C54   P5    S    
O7    P7    S    
C34   H8    S    
C4    H16   S    
C7    H18   S    
C2    N1    Am   
C67   C73   S    
C29   C33   D    
C34   O25   S    
C4    H26   S    
H60   N2    S    
H88   N7    S    
C23   C34   S    
C64   O22   S    
Ba2   O35   S    
H85   N6    S    
C10   C11   A    
C16   N13   S    
Ba2   O33   S    
C56   N15   S    
C47   C48   A    
Ba1   P1    S    
C71   H77   S    
C66   O25   S    
C23   H7    S    
C15   C30   S    
H84   N5    S    
C20   C21   A    
C28   C40   S    
C73   N2    S    
H52   N12   S    
C34   O24   S    
C12   H5    S    
H58   N15   S    
C66   H49   S    
O16   P6    D    
C70   H69   S    
C69   H68   S    
C17   C19   A    
C68   H63   S    
