data_mof_unit_62171.cif
_audit_creation_date              2012-12-11T20:03:46-0500
_audit_creation_method            fapswitch 2.2
_symmetry_space_group_name_H-M    P1
_symmetry_Int_Tables_number       1
_space_group_crystal_system       triclinic
_cell_length_a                    8.209404
_cell_length_b                    16.286345
_cell_length_c                    19.028795
_cell_angle_alpha                 112.984603
_cell_angle_beta                  91.160324
_cell_angle_gamma                 83.649214
_cell_volume                      2327.08484895

loop_
_atom_site_label
_atom_site_type_symbol
_atom_type_description
_atom_site_fract_x
_atom_site_fract_y
_atom_site_fract_z
_atom_type_partial_charge
Ba1   Ba    Ba6+2 0.334020 0.539200 0.472300 1.625487
Ba2   Ba    Ba6+2 0.855780 0.460880 0.527720 1.627641
C1    C     C_3   0.022272 0.849041 0.346419 -0.381499
C2    C     C_R   0.500314 0.538239 0.735375 0.061544
C3    C     C_R   0.360265 0.446019 0.810645 -0.157435
C4    C     C_3   0.515954 0.717011 0.310108 0.326700
C5    C     C_R   0.298265 0.445130 0.741312 0.009644
C6    C     C_R   0.879756 0.512425 0.172944 -0.145405
C7    C     C_R   0.925102 0.527424 0.248069 0.028316
C8    C     C_R   0.624627 0.467145 0.197667 -0.151395
C9    C     C_R   0.686029 0.465397 0.266857 0.067994
C10   C     C_R   0.475410 0.505982 0.851651 0.003782
C11   C     C_R   0.379703 0.483477 0.700838 -0.262810
C12   C     C_3   0.030415 0.758348 0.352628 0.339272
C13   C     C_R   0.719269 0.491610 0.148231 -0.013814
C14   C     C_R   0.829805 0.502165 0.293895 -0.282292
C15   C     C_R   0.270154 0.471808 0.967954 -0.080226
C16   C     C_3   0.477759 0.737123 0.239106 -0.183029
C17   C     C_R   0.196914 0.415869 0.994738 -0.067635
C18   C     C_R   0.292420 0.367431 0.029966 -0.058900
C19   C     C_R   0.454183 0.384902 0.048016 -0.072568
C20   C     C_R   0.518508 0.453728 0.033587 0.036811
C21   C     C_R   0.439490 0.479870 0.976856 0.027486
C22   C     C_R   0.652190 0.499309 0.074088 -0.016175
C23   C     C_3   0.050877 0.312425 0.281890 0.310536
C24   C     C_R   0.715445 0.557082 0.043048 0.028211
C25   C     C_R   0.681803 0.545928 0.965891 0.027046
C26   C     C_R   0.532453 0.511974 0.931867 -0.017378
C27   C     C_R   0.812904 0.625597 0.085140 -0.085252
C28   C     C_3   0.623326 0.739026 0.665059 0.314332
C29   C     C_R   0.910441 0.661771 0.048013 -0.064089
C30   C     C_R   0.911489 0.630219 0.968835 -0.081369
C31   C     C_R   0.799525 0.571687 0.928027 -0.095311
C32   C     C_2   0.404568 0.238888 0.478270 -0.289352
C33   C     C_R   0.800991 0.751561 0.516850 -0.299474
C34   C     C_3   0.041573 0.280134 0.195476 -0.394190
C35   C     C_2   0.244985 0.114999 0.405724 -0.128245
C36   C     C_2   0.263203 0.202741 0.431921 0.039595
C37   C     C_2   0.514111 0.186100 0.499150 0.009947
C38   C     C_3   0.469524 0.095564 0.491589 -0.048799
C39   C     C_3   0.372752 0.049899 0.419637 0.000677
C40   C     C_3   0.608346 0.840937 0.703235 -0.393829
C41   C     C_2   0.608968 0.032559 0.498241 -0.074379
C42   C     C_2   0.576438 0.967974 0.520582 -0.074762
C43   C     C_R   0.848583 0.932323 0.566131 -0.005044
C44   C     C_R   0.705529 0.902313 0.527818 -0.041256
C45   C     C_3   0.667674 0.284741 0.692091 0.364824
C46   C     C_R   0.964252 0.872990 0.582016 -0.133697
C47   C     C_R   0.937860 0.782961 0.559160 0.069594
C48   C     C_R   0.681414 0.811228 0.503293 0.006409
C49   C     C_3   0.574751 0.259712 0.333506 0.314030
C50   C     C_3   0.600562 0.157717 0.296019 -0.393913
C51   C     C_3   0.139743 0.669568 0.709970 0.318785
C52   C     C_3   0.138594 0.698599 0.796286 -0.400803
C53   C     C_3   0.563518 0.816367 0.239701 -0.204340
C54   C     C_3   0.520250 0.837540 0.169782 -0.436732
C55   C     C_3   0.691820 0.262506 0.762436 -0.368447
C56   C     C_3   0.159431 0.229912 0.640658 0.359863
C57   C     C_3   0.155520 0.138967 0.645261 -0.358583
C58   C     C_R   0.532190 0.558131 0.813419 -0.131593
H1    H     H_    0.107085 0.761666 0.402256 0.098543
H2    H     H_    0.267375 0.648931 0.687678 0.003390
H3    H     H_    0.066998 0.611748 0.685650 0.077628
H4    H     H_    0.147825 0.865653 0.341147 0.144627
H5    H     H_    0.218347 0.753079 0.822303 0.122530
H6    H     H_    0.184316 0.641072 0.811409 0.060312
H7    H     H_    0.011617 0.723103 0.819847 0.125235
H8    H     H_    0.904203 0.746140 0.362683 -0.048322
H9    H     H_    0.960748 0.901930 0.398359 0.075730
H10   H     H_    0.924714 0.332834 0.306729 0.018209
H11   H     H_    0.122961 0.370880 0.303005 0.056271
H12   H     H_    0.695902 0.862137 0.750592 0.125332
H13   H     H_    0.969476 0.221775 0.172862 0.128637
H14   H     H_    0.981252 0.334384 0.179388 0.060253
H15   H     H_    0.166971 0.259988 0.169301 0.120095
H16   H     H_    0.952256 0.847877 0.295635 0.105965
H17   H     H_    0.518226 0.676381 0.187642 0.068466
H18   H     H_    0.720250 0.348504 0.702940 0.089355
H19   H     H_    0.534239 0.293373 0.682715 -0.061993
H20   H     H_    0.824582 0.252382 0.772990 0.150374
H21   H     H_    0.632760 0.318255 0.813253 0.073051
H22   H     H_    0.636051 0.200301 0.753920 0.109939
H23   H     H_    0.635744 0.869926 0.661611 0.060216
H24   H     H_    0.289663 0.241339 0.638331 -0.069561
H25   H     H_    0.099165 0.228097 0.587373 0.087793
H26   H     H_    0.215436 0.085286 0.593394 0.069361
H27   H     H_    0.027009 0.125677 0.649187 0.155263
H28   H     H_    0.460891 0.655064 0.302835 0.089351
H29   H     H_    0.221761 0.137489 0.696295 0.104724
H30   H     H_    0.598842 0.614844 0.842689 0.062988
H31   H     H_    0.315926 0.399105 0.830758 0.078670
H32   H     H_    0.967820 0.522043 0.136266 0.083701
H33   H     H_    0.502685 0.450210 0.184791 0.126438
H34   H     H_    0.481572 0.867407 0.726371 0.124888
H35   H     H_    0.341920 0.475402 0.643927 0.067467
H36   H     H_    0.870506 0.508385 0.350015 0.070634
H37   H     H_    0.195361 0.506226 0.938244 0.077061
H38   H     H_    0.068607 0.406730 0.984716 0.073411
H39   H     H_    0.239946 0.318466 0.045397 0.062964
H40   H     H_    0.650916 0.704917 0.314595 -0.058955
H41   H     H_    0.527014 0.345122 0.073789 0.057372
H42   H     H_    0.815845 0.651303 0.146688 0.074259
H43   H     H_    0.990375 0.711197 0.080432 0.073868
H44   H     H_    0.996614 0.652413 0.939050 0.069990
H45   H     H_    0.446180 0.281572 0.353781 0.001438
H46   H     H_    0.808989 0.545865 0.867207 0.126983
H47   H     H_    0.145398 0.088729 0.368113 0.078073
H48   H     H_    0.070698 0.897977 0.614446 0.092277
H49   H     H_    0.425338 0.307614 0.490014 0.064638
H50   H     H_    0.782144 0.681657 0.499101 0.074943
H51   H     H_    0.732709 0.035782 0.481076 0.095723
H52   H     H_    0.343100 0.752227 0.236157 0.146434
H53   H     H_    0.450179 0.962483 0.532442 0.102672
H54   H     H_    0.750909 0.713457 0.644305 0.006604
H55   H     H_    0.538909 0.719578 0.616392 0.067201
H56   H     H_    0.657894 0.282064 0.382440 0.071449
H57   H     H_    0.585761 0.894268 0.171226 0.129087
H58   H     H_    0.386247 0.856950 0.169557 0.135078
H59   H     H_    0.557260 0.778306 0.116549 0.146175
H60   H     H_    0.526135 0.877015 0.291904 0.150482
H61   H     H_    0.698309 0.799912 0.239963 0.108764
H62   H     H_    0.512068 0.132967 0.249512 0.124427
H63   H     H_    0.582363 0.128400 0.338546 0.062116
H64   H     H_    0.727464 0.135167 0.271890 0.123856
O1    O     O_2   0.405910 0.437000 0.315050 -0.462938
O2    O     O_2   0.851627 0.189489 0.493220 -0.491100
O3    O     O_3   0.747742 0.214527 0.629180 -0.598088
O4    O     O_3   0.650250 0.445090 0.405140 -0.497303
O5    O     O_3   0.024090 0.610190 0.555810 -0.495329
O6    O     O_2   0.949630 0.279650 0.426400 -0.456995
O7    O     O_3   0.126453 0.242075 0.300093 -0.641945
O8    O     O_2   0.956761 0.466155 0.750888 -0.502587
O9    O     O_3   0.075847 0.296812 0.704733 -0.597323
O10   O     O_3   0.110870 0.602570 0.387980 -0.489823
O11   O     O_2   0.262091 0.532996 0.251561 -0.500485
O12   O     O_3   0.072523 0.741982 0.692415 -0.634234
O13   O     O_3   0.608108 0.294177 0.279315 -0.637185
O14   O     O_3   0.100004 0.690965 0.284922 -0.612522
O15   O     O_2   0.240060 0.720390 0.573650 -0.459413
O16   O     O_3   0.508300 0.651290 0.432440 -0.490581
O17   O     O_2   0.342942 0.810961 0.509802 -0.493664
O18   O     O_3   0.447184 0.789297 0.374965 -0.611145
O19   O     O_2   0.783780 0.563030 0.685000 -0.464480
O20   O     O_3   0.539430 0.554980 0.594880 -0.498596
O21   O     O_3   0.078810 0.397510 0.612040 -0.475575
O22   O     O_3   0.582585 0.705884 0.719164 -0.634926
O23   O     O_3   0.165590 0.389880 0.444220 -0.482166
O24   O     O_3   0.681380 0.348790 0.567580 -0.487103
P1    P     P_3+3 0.586140 0.411610 0.321630 0.975095
P2    P     P_3+3 0.070040 0.709050 0.593050 0.979902
P3    P     P_3+3 0.494297 0.766587 0.456115 0.935749
P4    P     P_3+3 0.603540 0.588460 0.678390 0.978160
P5    P     P_3+3 0.699513 0.233755 0.546527 0.947562
P6    P     P_3+3 0.100824 0.586726 0.291812 0.938578
P7    P     P_3+3 0.129712 0.277159 0.399468 0.945121
P8    P     P_3+3 0.103367 0.401483 0.704061 0.936883

loop_
_geom_bond_atom_site_label_1
_geom_bond_atom_site_label_2
_ccdc_geom_bond_type
C53   C54   S    
C53   H61   S    
O9    P8    S    
Ba2   O20   S    
C54   H57   S    
C17   C18   A    
Ba1   O4    S    
C45   H19   S    
O3    P5    S    
C52   H5    S    
C46   H48   S    
C1    H4    S    
C25   C31   A    
Ba2   O21   S    
C24   C25   A    
C15   C21   A    
O11   P6    D    
C47   P2    S    
C11   H35   S    
C20   C22   A    
C1    H9    S    
C7    C14   A    
C16   H52   S    
C35   H47   S    
Ba1   O5    S    
C8    C13   A    
C50   H63   S    
Ba2   O24   S    
C55   H22   S    
Ba2   O5    S    
C4    H28   S    
Ba1   Ba2   S    
C57   H29   S    
C2    C11   A    
C51   H3    S    
Ba2   O6    S    
O21   P8    S    
C50   H62   S    
C48   P3    S    
C9    P1    S    
C38   C41   S    
C5    P8    S    
C12   O14   S    
C6    C7    A    
C33   C47   A    
C30   H44   S    
Ba1   P1    S    
O6    P7    D    
C23   H11   S    
C4    O18   S    
O23   P7    S    
Ba1   O15   S    
C53   H60   S    
C19   H41   S    
O14   P6    S    
C40   H34   S    
C19   C20   A    
Ba2   O19   S    
C55   H20   S    
O13   P1    S    
C51   O12   S    
C41   H51   S    
C36   P7    S    
C1    C12   S    
C2    P4    S    
C17   H38   S    
C42   C44   S    
C28   O22   S    
C28   H55   S    
C56   O9    S    
Ba2   P4    S    
C4    C16   S    
C14   H36   S    
C40   H23   S    
C32   C37   D    
C3    C10   A    
C8    C9    A    
C37   C38   S    
C3    C5    A    
C52   H7    S    
C8    H33   S    
C56   C57   S    
C51   C52   S    
C12   H1    S    
C49   C50   S    
C4    H40   S    
O18   P3    S    
C41   C42   D    
C35   C36   D    
C34   H15   S    
C56   H24   S    
C45   C55   S    
C9    C14   A    
C29   C30   A    
C49   H45   S    
C2    C58   A    
C33   C48   A    
C40   H12   S    
Ba1   P2    S    
C21   C26   A    
C1    H16   S    
C33   H50   S    
O16   P3    S    
C3    H31   S    
Ba1   O16   S    
O1    P1    D    
C16   C53   S    
C24   C27   A    
C6    H32   S    
C49   O13   S    
C38   C39   S    
C37   P5    S    
C7    P6    S    
C6    C13   A    
C54   H59   S    
O22   P4    S    
Ba1   O23   S    
O24   P5    S    
Ba1   O10   S    
C23   O7    S    
C56   H25   S    
O17   P3    D    
C28   H54   S    
C43   C46   A    
C13   C22   S    
C32   C36   S    
C54   H58   S    
C31   H46   S    
C22   C24   A    
C42   H53   S    
O12   P2    S    
C45   O3    S    
C52   H6    S    
C58   H30   S    
C44   C48   A    
O15   P2    D    
C49   H56   S    
Ba1   O1    S    
C30   C31   A    
O7    P7    S    
Ba2   O23   S    
C57   H26   S    
O5    P2    S    
O20   P4    S    
Ba1   O20   S    
C50   H64   S    
O10   P6    S    
C18   H39   S    
C16   H17   S    
C46   C47   A    
C15   C17   A    
C27   H42   S    
C55   H21   S    
C35   C39   S    
O8    P8    D    
C57   H27   S    
C34   H13   S    
C23   C34   S    
C10   C58   A    
O2    P5    D    
C43   C44   A    
O4    P1    S    
C5    C11   A    
C18   C19   A    
C10   C26   S    
C51   H2    S    
C27   C29   A    
C25   C26   A    
C32   H49   S    
C12   H8    S    
C20   C21   A    
C28   C40   S    
C23   H10   S    
C45   H18   S    
C15   H37   S    
C34   H14   S    
O19   P4    D    
C29   H43   S    
Ba2   O4    S    
