data_mof_unit_47033.cif
_audit_creation_date              2012-12-11T14:49:44-0500
_audit_creation_method            fapswitch 2.2
_symmetry_space_group_name_H-M    P1
_symmetry_Int_Tables_number       1
_space_group_crystal_system       triclinic
_cell_length_a                    16.93885
_cell_length_b                    7.015614
_cell_length_c                    16.749551
_cell_angle_alpha                 90.000052
_cell_angle_beta                  100.896737
_cell_angle_gamma                 89.999955
_cell_volume                      1954.5679259

loop_
_atom_site_label
_atom_site_type_symbol
_atom_type_description
_atom_site_fract_x
_atom_site_fract_y
_atom_site_fract_z
_atom_type_partial_charge
O1    O     O_R   0.579510 0.506290 0.439030 -0.537951
O2    O     O_R   0.420490 0.006290 0.560970 -0.537950
O3    O     O_R   0.412540 0.170090 0.405290 -0.539098
O4    O     O_R   0.587460 0.670090 0.594710 -0.539098
C1    C     C_R   0.384895 0.345487 0.382182 0.660361
C2    C     C_R   0.615105 0.845487 0.617818 0.660361
O5    O     O_R   0.578390 0.176230 0.429330 -0.539280
O6    O     O_R   0.421610 0.676230 0.570670 -0.539279
O7    O     O_R   0.587530 0.011250 0.585190 -0.539855
O8    O     O_R   0.412470 0.511250 0.414810 -0.539854
C3    C     C_R   0.604752 0.343524 0.413360 0.697364
C4    C     C_R   0.395248 0.843524 0.586640 0.697364
O9    O     O_3   0.502800 0.340940 0.551110 -0.366597
O10   O     O_3   0.497200 0.840940 0.448890 -0.366597
V1    V     V_3+5 0.499480 0.064020 0.490520 1.400648
V2    V     V_3+5 0.500520 0.564020 0.509480 1.400648
C5    C     C_R   0.167294 0.927025 0.861389 -0.044940
C6    C     C_R   0.832706 0.427026 0.138611 -0.044942
C7    C     C_R   0.333737 0.839182 0.639722 -0.070025
C8    C     C_R   0.666263 0.339181 0.360277 -0.070025
C9    C     C_R   0.236259 0.651033 0.697413 -0.191918
C10   C     C_R   0.763738 0.151029 0.302584 -0.191919
C11   C     C_R   0.287989 0.671636 0.642149 -0.159483
C12   C     C_R   0.712009 0.171633 0.357848 -0.159483
C13   C     C_R   0.324941 0.988570 0.693258 -0.222547
C14   C     C_R   0.675060 0.488571 0.306743 -0.222548
C15   C     C_R   0.273081 0.967982 0.749668 0.154775
C16   C     C_R   0.726920 0.467983 0.250333 0.154777
C17   C     C_R   0.228628 0.797437 0.752090 0.155473
C18   C     C_R   0.771370 0.297436 0.247909 0.155474
C19   C     C_R   0.176597 0.777045 0.808336 -0.189322
C20   C     C_R   0.823402 0.277044 0.191662 -0.189319
C21   C     C_R   0.213107 0.094371 0.859060 -0.150522
C22   C     C_R   0.786895 0.594375 0.140942 -0.150529
C23   C     C_R   0.265330 0.114495 0.804267 -0.183124
C24   C     C_R   0.734672 0.614499 0.195736 -0.183127
H1    H     H_    0.141474 0.647996 0.808775 0.121361
H2    H     H_    0.858524 0.147993 0.191222 0.121362
H3    H     H_    0.207671 0.212466 0.899206 0.188425
H4    H     H_    0.792332 0.712472 0.100798 0.188424
H5    H     H_    0.202713 0.519575 0.697753 0.113772
H6    H     H_    0.797283 0.019569 0.302243 0.113772
H7    H     H_    0.298889 0.245955 0.803997 0.145448
H8    H     H_    0.701115 0.745961 0.196007 0.145447
H9    H     H_    0.292944 0.553804 0.601583 0.123173
H10   H     H_    0.707053 0.053798 0.398413 0.123174
H11   H     H_    0.360116 0.117548 0.692857 0.129455
H12   H     H_    0.639887 0.617551 0.307146 0.129455
C25   C     C_3   0.786526 0.692182 0.797247 -0.274569
C26   C     C_3   0.213475 0.192182 0.202752 -0.274568
H13   H     H_    0.838103 0.612156 0.781153 0.125849
H14   H     H_    0.161898 0.112155 0.218846 0.125850
H15   H     H_    0.773540 0.624231 0.853174 0.206491
H16   H     H_    0.226461 0.124233 0.146824 0.206493
C27   C     C_3   0.713279 0.668260 0.727327 -0.322213
C28   C     C_3   0.286722 0.168260 0.272671 -0.322213
H17   H     H_    0.663142 0.599783 0.751125 0.176796
H18   H     H_    0.336860 0.099785 0.248874 0.176796
H19   H     H_    0.729623 0.571488 0.680345 0.134506
H20   H     H_    0.270378 0.071486 0.319654 0.134506
H21   H     H_    0.884567 0.906073 0.718477 0.148171
H22   H     H_    0.115433 0.406069 0.281523 0.148171
H23   H     H_    0.777809 0.868808 0.612423 0.135003
H24   H     H_    0.222191 0.368804 0.387576 0.135003
C29   C     C_3   0.831364 0.983185 0.732403 -0.434177
C30   C     C_3   0.168636 0.483182 0.267597 -0.434177
C31   C     C_3   0.735547 0.021514 0.828759 0.370412
C32   C     C_3   0.264452 0.521516 0.171241 0.370412
C33   C     C_3   0.810517 0.906748 0.812898 -0.023918
C34   C     C_3   0.189483 0.406748 0.187101 -0.023918
H25   H     H_    0.751553 0.175626 0.830440 0.054434
H26   H     H_    0.248446 0.675628 0.169561 0.054434
C35   C     C_3   0.685891 0.863830 0.689065 0.041711
C36   C     C_3   0.314109 0.363830 0.310935 0.041711
C37   C     C_3   0.759066 0.958007 0.660523 -0.320557
C38   C     C_3   0.240934 0.458004 0.339477 -0.320558
C39   C     C_3   0.662704 0.991191 0.757229 -0.345233
C40   C     C_3   0.337296 0.491193 0.242772 -0.345232
H27   H     H_    0.610964 0.924785 0.778937 0.192043
H28   H     H_    0.389036 0.424789 0.221063 0.192043
H29   H     H_    0.641648 0.132991 0.731979 0.126335
H30   H     H_    0.358351 0.632993 0.268022 0.126335
H31   H     H_    0.847901 0.136688 0.739000 0.140191
H32   H     H_    0.152098 0.636686 0.261001 0.140191
H33   H     H_    0.741661 0.100018 0.633162 0.143567
H34   H     H_    0.258338 0.600015 0.366839 0.143567
O11   O     O_R   0.087500 0.266000 0.085220 -0.544152
O12   O     O_R   0.912500 0.766000 0.914780 -0.544152
O13   O     O_R   0.921600 0.589950 0.070670 -0.547667
O14   O     O_R   0.078400 0.089950 0.929330 -0.547667
C41   C     C_R   0.894696 0.423191 0.086098 0.714981
C42   C     C_R   0.105304 0.923191 0.913902 0.714981
O15   O     O_R   0.087460 0.596020 0.094710 -0.539950
O16   O     O_R   0.912540 0.096020 0.905290 -0.539950
O17   O     O_R   0.079520 0.760970 0.939020 -0.516545
O18   O     O_R   0.920480 0.260970 0.060980 -0.516546
C43   C     C_R   0.116566 0.425825 0.117686 0.739432
C44   C     C_R   0.883434 0.925825 0.882314 0.739432
O19   O     O_3   0.997180 0.425140 0.948910 -0.375098
O20   O     O_3   0.002820 0.925140 0.051090 -0.375098
V3    V     V_3+5 0.000520 0.702080 0.009480 1.482641
V4    V     V_3+5 0.999480 0.202080 0.990520 1.482640
S1    S     S_3+6 0.706431 0.973009 0.925103 -0.032919
O21   O     O_2   0.776383 0.001950 0.993902 -0.364268
O22   O     O_2   0.640638 0.109423 0.935320 -0.308479
O23   O     O_3   0.671766 0.748946 0.927815 -0.515176
H35   H     H_    0.657330 0.735965 0.982169 0.376768
S2    S     S_3+6 0.293569 0.473013 0.074897 -0.032920
O24   O     O_2   0.223617 0.501953 0.006098 -0.364265
O25   O     O_2   0.359362 0.609429 0.064681 -0.308481
O26   O     O_3   0.328235 0.248951 0.072185 -0.515178
H36   H     H_    0.342677 0.235975 0.017834 0.376769

loop_
_geom_bond_atom_site_label_1
_geom_bond_atom_site_label_2
_ccdc_geom_bond_type
C25   H15   S    
C11   H9    S    
C27   H19   S    
C15   C17   A    
O26   H36   S    
C31   C39   S    
C38   H34   S    
O2    C4    A    
C2    O7    A    
O12   V3    S    
C31   S1    S    
C30   C34   S    
O5    C3    A    
C26   H16   S    
C36   C38   S    
C22   H4    S    
C6    C41   S    
O18   V4    S    
C40   H28   S    
C29   H31   S    
O23   H35   S    
O16   C44   A    
S2    O24   D    
C1    C36   S    
O14   V4    S    
C41   O18   A    
C37   H33   S    
C8    C12   A    
C28   H18   S    
C25   H13   S    
O1    C3    A    
C26   H14   S    
C20   H2    S    
O13   C41   A    
C23   H7    S    
C13   H11   S    
C22   C24   A    
C34   C43   S    
C14   H12   S    
C33   C44   S    
O5    V1    S    
O6    V2    S    
C25   C33   S    
C35   C37   S    
C5    C42   S    
C5    C21   A    
C39   H27   S    
C32   C40   S    
C3    C8    S    
C28   C36   S    
H22   C30   S    
O4    C2    A    
O15   V3    S    
C15   C23   A    
C25   C27   S    
C9    C17   A    
C42   O17   A    
C26   C28   S    
C28   H20   S    
C32   H26   S    
C31   C33   S    
O4    V2    S    
C7    C11   A    
H21   C29   S    
O11   V4    S    
C40   H30   S    
O14   C42   A    
C39   H29   S    
O6    C4    A    
C30   C38   S    
O20   V4    S    
H24   C38   S    
S1    O22   D    
O1    V2    S    
C21   H3    S    
O2    V1    S    
C6    C22   A    
O16   V4    S    
C9    H5    S    
O19   V3    S    
C27   H17   S    
C5    C19   A    
C10   C12   A    
C24   H8    S    
C6    C20   A    
O15   C43   A    
O3    V1    S    
H23   C37   S    
C2    C35   S    
C10   C18   A    
O13   V3    S    
O3    C1    A    
C13   C15   A    
C14   C16   A    
C29   C37   S    
S2    O26   S    
C12   H10   S    
C9    C11   A    
C26   C34   S    
C1    O8    A    
C17   C19   A    
O8    V2    S    
C18   C20   A    
C10   H6    S    
C8    C14   A    
C29   C33   S    
C4    C7    S    
C16   C18   A    
O20   V3    S    
C21   C23   A    
S2    O25   D    
S1    O23   S    
C31   H25   S    
O7    V1    S    
C7    C13   A    
C30   H32   S    
C27   C35   S    
C19   H1    S    
O19   V4    S    
C16   C24   A    
C32   C34   S    
C36   C40   S    
O9    V2    S    
S1    O21   D    
C35   C39   S    
O10   V1    S    
C32   S2    S    
O12   C44   A    
O17   V3    S    
O11   C43   A    
