data_mof_unit_41325.cif
_audit_creation_date              2012-10-26T17:10:31-0400
_audit_creation_method            fapswitch 2.2
_symmetry_space_group_name_H-M    P1
_symmetry_Int_Tables_number       1
_space_group_crystal_system       triclinic
_cell_length_a                    16.967919
_cell_length_b                    16.967942
_cell_length_c                    16.968032
_cell_angle_alpha                 66.608498
_cell_angle_beta                  66.608684
_cell_angle_gamma                 66.609093
_cell_volume                      3945.6097412

loop_
_atom_site_label
_atom_site_type_symbol
_atom_type_description
_atom_site_fract_x
_atom_site_fract_y
_atom_site_fract_z
_atom_type_partial_charge
C1    C     C_R   0.596617 0.017147 0.601068 -0.135834
C2    C     C_R   0.168706 0.430662 0.983103 0.840509
C3    C     C_R   0.565214 0.027994 0.829186 0.818966
C4    C     C_R   0.430661 0.983106 0.168704 0.840494
C5    C     C_R   0.434786 0.170814 0.972005 0.818981
C6    C     C_R   0.569341 0.831298 0.016889 0.840508
C7    C     C_R   0.972007 0.434785 0.170813 0.818844
C8    C     C_R   0.016888 0.569341 0.831298 0.840519
C9    C     C_R   0.170814 0.972009 0.434785 0.819017
C10   C     C_R   0.831296 0.016893 0.569339 0.840488
C11   C     C_R   0.545290 0.008538 0.550710 0.138762
C12   C     C_R   0.398924 0.982895 0.403368 -0.135861
C13   C     C_R   0.449272 0.991527 0.454687 0.138741
C14   C     C_R   0.008409 0.550747 0.545333 0.138657
C15   C     C_R   0.991395 0.454735 0.449304 0.139004
C16   C     C_R   0.550740 0.545333 0.008419 0.138559
C17   C     C_R   0.454724 0.449306 0.991414 0.138768
C18   C     C_R   0.583362 0.008384 0.460261 -0.162779
C19   C     C_R   0.408336 0.000107 0.542373 -0.174254
C20   C     C_R   0.008246 0.460299 0.583402 -0.162809
C21   C     C_R   0.999958 0.542429 0.408380 -0.173897
C22   C     C_R   0.460291 0.583401 0.008266 -0.162759
C23   C     C_R   0.017059 0.601090 0.596648 -0.135879
C24   C     C_R   0.542420 0.408382 0.999969 -0.174205
C25   C     C_R   0.539734 0.991634 0.416635 -0.162763
C26   C     C_R   0.457578 0.000020 0.591623 -0.174184
C27   C     C_R   0.416666 0.539768 0.991521 -0.162766
C28   C     C_R   0.591665 0.457630 0.999882 -0.174476
C29   C     C_R   0.991496 0.416678 0.539767 -0.162782
C30   C     C_R   0.999873 0.591672 0.457629 -0.174298
C31   C     C_R   0.552519 0.046099 0.679956 0.413074
C32   C     C_R   0.427723 0.005026 0.308109 0.404905
C33   C     C_R   0.046026 0.679970 0.552537 0.413081
C34   C     C_R   0.982810 0.403400 0.398939 -0.135647
C35   C     C_R   0.004970 0.308137 0.427735 0.404785
C36   C     C_R   0.679973 0.552539 0.046020 0.413122
C37   C     C_R   0.308130 0.427740 0.004975 0.404904
C38   C     C_R   0.320033 0.953947 0.447473 0.413038
C39   C     C_R   0.691880 0.994990 0.572279 0.404886
C40   C     C_R   0.447485 0.320045 0.953890 0.413054
C41   C     C_R   0.572294 0.691907 0.994934 0.404983
C42   C     C_R   0.953864 0.447493 0.320051 0.413017
C43   C     C_R   0.994930 0.572296 0.691908 0.404920
C44   C     C_R   0.603381 0.038663 0.732572 -0.154744
C45   C     C_R   0.601085 0.596648 0.017065 -0.136015
C46   C     C_R   0.389115 0.982089 0.263066 -0.153165
C47   C     C_R   0.038636 0.732575 0.603387 -0.154659
C48   C     C_R   0.982068 0.263074 0.389118 -0.153174
C49   C     C_R   0.732576 0.603386 0.038632 -0.154549
C50   C     C_R   0.263072 0.389119 0.982071 -0.153153
C51   C     C_R   0.267427 0.961351 0.396618 -0.154685
C52   C     C_R   0.736931 0.017917 0.610886 -0.153147
C53   C     C_R   0.396621 0.267428 0.961334 -0.154715
C54   C     C_R   0.610891 0.736940 0.017894 -0.153131
C55   C     C_R   0.961324 0.396622 0.267429 -0.154931
C56   C     C_R   0.403392 0.398944 0.982820 -0.135871
C57   C     C_R   0.017894 0.610892 0.736940 -0.153146
C58   C     C_R   0.693334 0.034148 0.693767 -0.392047
C59   C     C_R   0.306235 0.965851 0.306668 -0.392059
C60   C     C_R   0.034143 0.693765 0.693334 -0.392094
C61   C     C_R   0.965848 0.306666 0.306232 -0.391852
C62   C     C_R   0.693766 0.693334 0.034140 -0.392251
C63   C     C_R   0.306667 0.306232 0.965852 -0.392074
C64   C     C_3   0.438919 0.174457 0.673391 -0.312094
C65   C     C_3   0.444548 0.144550 0.237659 -0.295411
C66   C     C_3   0.174356 0.673152 0.438914 -0.312374
C67   C     C_R   0.027989 0.829186 0.565215 0.819038
C68   C     C_3   0.144488 0.237709 0.444581 -0.295357
C69   C     C_3   0.672720 0.438907 0.174327 -0.312892
C70   C     C_3   0.237743 0.444577 0.144498 -0.295465
C71   C     C_3   0.326726 0.825633 0.561124 -0.312187
C72   C     C_3   0.762297 0.855448 0.555495 -0.295381
C73   C     C_3   0.561097 0.326674 0.825545 -0.312124
C74   C     C_3   0.555526 0.762363 0.855389 -0.295393
C75   C     C_3   0.825481 0.561090 0.325951 -0.311279
C76   C     C_3   0.855385 0.555524 0.762346 -0.295413
C77   C     C_R   0.983102 0.168706 0.430662 0.840459
C78   C     C_R   0.829185 0.565214 0.027991 0.819057
Cu1   Cu    Cu3+1 0.995180 0.995180 0.424630 0.995122
Cu2   Cu    Cu3+1 0.004820 0.004820 0.575370 0.995098
Cu3   Cu    Cu3+1 0.995180 0.424630 0.995180 0.995170
Cu4   Cu    Cu3+1 0.004820 0.575370 0.004820 0.994992
Cu5   Cu    Cu3+1 0.424630 0.995180 0.995180 0.995077
Cu6   Cu    Cu3+1 0.575370 0.004820 0.004820 0.995074
H1    H     H_    0.424812 0.993316 0.661856 0.201804
H2    H     H_    0.421444 0.647520 0.020385 0.198275
H3    H     H_    0.006708 0.575177 0.338137 0.201719
H4    H     H_    0.020361 0.421451 0.647523 0.198299
H5    H     H_    0.730429 0.039255 0.729980 0.220544
H6    H     H_    0.270028 0.960728 0.269580 0.220540
H7    H     H_    0.039283 0.729968 0.730418 0.220539
H8    H     H_    0.960758 0.269566 0.270014 0.220549
H9    H     H_    0.729968 0.730418 0.039281 0.220525
H10   H     H_    0.269569 0.270015 0.960757 0.220541
H11   H     H_    0.462505 0.195964 0.598854 0.155425
H12   H     H_    0.578584 0.979483 0.352529 0.198258
H13   H     H_    0.466721 0.203055 0.701849 0.146545
H14   H     H_    0.364991 0.202166 0.693559 0.190725
H15   H     H_    0.405104 0.166238 0.299573 0.144873
H16   H     H_    0.400324 0.161854 0.195681 0.145669
H17   H     H_    0.494633 0.182731 0.198418 0.192455
H18   H     H_    0.195662 0.598608 0.462410 0.155541
H19   H     H_    0.203144 0.701349 0.466787 0.146619
H20   H     H_    0.202059 0.693386 0.364988 0.190757
H21   H     H_    0.166170 0.299625 0.405118 0.144835
H22   H     H_    0.161808 0.195706 0.400376 0.145673
H23   H     H_    0.993169 0.661906 0.424871 0.201806
H24   H     H_    0.182661 0.198495 0.494674 0.192472
H25   H     H_    0.598166 0.462215 0.195280 0.155784
H26   H     H_    0.700432 0.466956 0.203422 0.146601
H27   H     H_    0.693097 0.364988 0.202047 0.190851
H28   H     H_    0.299680 0.405159 0.166150 0.144877
H29   H     H_    0.195775 0.400328 0.161843 0.145685
H30   H     H_    0.198510 0.494666 0.182674 0.192461
H31   H     H_    0.401268 0.804239 0.537612 0.155510
H32   H     H_    0.298437 0.796905 0.533283 0.146586
H33   H     H_    0.306498 0.797952 0.635053 0.190751
H34   H     H_    0.979349 0.352569 0.578611 0.198250
H35   H     H_    0.700370 0.833784 0.594951 0.144881
H36   H     H_    0.804283 0.838140 0.599713 0.145656
H37   H     H_    0.801519 0.817250 0.505424 0.192501
H38   H     H_    0.537551 0.401213 0.804095 0.155486
H39   H     H_    0.533263 0.298303 0.796891 0.146533
H40   H     H_    0.635024 0.306473 0.797840 0.190752
H41   H     H_    0.595001 0.700448 0.833710 0.144879
H42   H     H_    0.599727 0.804359 0.838107 0.145672
H43   H     H_    0.505461 0.801584 0.817184 0.192470
H44   H     H_    0.803444 0.537236 0.400460 0.155097
H45   H     H_    0.661899 0.424873 0.993181 0.201838
H46   H     H_    0.797350 0.533545 0.296777 0.146470
H47   H     H_    0.797801 0.635026 0.305983 0.190621
H48   H     H_    0.833714 0.594959 0.700421 0.144922
H49   H     H_    0.838091 0.599763 0.804306 0.145644
H50   H     H_    0.817183 0.505458 0.801597 0.192494
H51   H     H_    0.352555 0.578611 0.979380 0.198248
H52   H     H_    0.338092 0.006851 0.575113 0.201773
H53   H     H_    0.647486 0.020496 0.421419 0.198276
H54   H     H_    0.575170 0.338142 0.006703 0.201783
O1    O     O_R   0.124540 0.978640 0.385460 -0.600147
O2    O     O_R   0.124540 0.385460 0.978640 -0.601742
O3    O     O_R   0.021360 0.875460 0.614540 -0.600160
O4    O     O_R   0.978640 0.124540 0.385460 -0.601732
O5    O     O_R   0.013780 0.867370 0.487190 -0.536632
O6    O     O_R   0.986220 0.132630 0.512810 -0.537376
O7    O     O_R   0.867370 0.487190 0.013780 -0.536554
O8    O     O_R   0.132630 0.512810 0.986220 -0.537365
O9    O     O_R   0.487190 0.013780 0.867370 -0.536655
O10   O     O_R   0.512810 0.986220 0.132630 -0.537389
O11   O     O_R   0.512810 0.132630 0.986220 -0.536655
O12   O     O_R   0.875460 0.021360 0.614540 -0.601733
O13   O     O_R   0.487190 0.867370 0.013780 -0.537403
O14   O     O_R   0.986220 0.512810 0.132630 -0.536756
O15   O     O_R   0.013780 0.487190 0.867370 -0.537406
O16   O     O_R   0.132630 0.986220 0.512810 -0.536653
O17   O     O_R   0.867370 0.013780 0.487190 -0.537392
O18   O     O_3   0.460554 0.080392 0.707239 -0.576759
O19   O     O_3   0.490307 0.052316 0.258118 -0.574659
O20   O     O_3   0.080310 0.707254 0.460571 -0.576714
O21   O     O_3   0.052251 0.258165 0.490329 -0.574669
O22   O     O_3   0.707268 0.460576 0.080315 -0.576636
O23   O     O_R   0.978640 0.385460 0.124540 -0.600054
O24   O     O_3   0.258152 0.490329 0.052260 -0.574653
O25   O     O_3   0.292734 0.919689 0.539442 -0.576726
O26   O     O_3   0.741865 0.947678 0.509714 -0.574675
O27   O     O_3   0.539451 0.292752 0.919604 -0.576743
O28   O     O_3   0.509735 0.741907 0.947615 -0.574670
O29   O     O_3   0.919591 0.539464 0.292782 -0.576868
O30   O     O_3   0.947613 0.509737 0.741910 -0.574669
O31   O     O_R   0.021360 0.614540 0.875460 -0.601727
O32   O     O_R   0.385460 0.124540 0.978640 -0.600159
O33   O     O_R   0.614540 0.875460 0.021360 -0.601738
O34   O     O_R   0.614540 0.021360 0.875460 -0.600145
O35   O     O_R   0.385460 0.978640 0.124540 -0.601732
O36   O     O_R   0.875460 0.614540 0.021360 -0.600250

loop_
_geom_bond_atom_site_label_1
_geom_bond_atom_site_label_2
_ccdc_geom_bond_type
C16   C28   A    
Cu3   O2    S    
Cu1   O1    S    
C21   H3    S    
C11   C18   A    
C3    O9    A    
C5    O11   A    
C46   C59   A    
C69   H27   S    
C66   H18   S    
C34   C42   A    
C7    C55   S    
C8    O31   A    
Cu6   O33   S    
C10   C52   S    
C31   O18   S    
C23   C43   A    
C4    C46   S    
C43   O30   S    
C42   O29   S    
Cu2   O12   S    
C7    O23   A    
C63   H10   S    
C71   O25   S    
Cu5   Cu6   S    
C28   H45   S    
C5    C53   S    
C14   C30   A    
C34   C35   A    
C30   H23   S    
C3    O34   A    
C64   H11   S    
Cu1   O4    S    
C4    O10   A    
Cu5   O32   S    
C55   C61   A    
C1    C31   A    
C69   O22   S    
Cu3   O15   S    
C49   C78   S    
C75   H44   S    
C19   C26   A    
C77   O4    A    
C2    C50   S    
C78   O7    A    
C47   C60   A    
C9    O1    A    
C37   C56   A    
C69   H25   S    
Cu1   O5    S    
Cu4   O36   S    
C44   C58   A    
C40   C56   A    
Cu2   O6    S    
C5    O32   A    
C65   H17   S    
C68   O21   S    
C15   C34   S    
C75   H46   S    
C6    O33   A    
Cu6   O11   S    
C64   H14   S    
C39   C52   A    
Cu4   O31   S    
C67   O5    A    
C12   C32   A    
C50   C63   A    
C13   C25   A    
C18   C25   A    
C68   H22   S    
C6    C54   S    
C35   C48   A    
C70   O24   S    
C47   C67   S    
Cu4   O8    S    
C75   H47   S    
C15   C29   A    
Cu5   O13   S    
C20   C29   A    
Cu6   O10   S    
C70   H29   S    
C3    C44   S    
C17   C24   A    
C31   C44   A    
C71   H33   S    
C17   C27   A    
C66   H20   S    
C65   H15   S    
C74   O28   S    
C73   O27   S    
C76   H50   S    
C57   C60   A    
C38   C51   A    
C54   C62   A    
C11   C26   A    
C23   C33   A    
C19   H52   S    
Cu3   Cu4   S    
Cu1   Cu2   S    
C59   H6    S    
C14   C23   S    
C16   C45   S    
C18   H53   S    
C14   C20   A    
C42   C55   A    
C69   H26   S    
C74   H43   S    
C73   H40   S    
C41   O28   S    
C72   H36   S    
C48   C77   S    
C72   O26   S    
C43   C57   A    
C71   H31   S    
C36   C45   A    
C8    O15   A    
C17   C56   S    
C40   O27   S    
C52   C58   A    
Cu5   O9    S    
C6    O13   A    
C65   O19   S    
C64   H13   S    
C9    O16   A    
C40   C53   A    
C36   O22   S    
Cu3   O7    S    
C22   C27   A    
Cu5   O35   S    
C33   C47   A    
C51   C59   A    
C68   H21   S    
C67   O3    A    
C66   O20   S    
C33   O20   S    
C72   H37   S    
C32   O19   S    
C29   H34   S    
C60   H7    S    
C38   O25   S    
C16   C22   A    
C49   C62   A    
C32   C46   A    
C66   H19   S    
C73   H38   S    
C24   C28   A    
C65   H16   S    
Cu6   O34   S    
C10   O17   A    
C75   O29   S    
C76   H49   S    
C61   H8    S    
Cu2   O16   S    
C2    O8    A    
C21   C30   A    
C64   O18   S    
C70   H30   S    
C4    O35   A    
C24   H54   S    
C9    C51   S    
C77   O6    A    
C2    O2    A    
C76   H48   S    
C10   O12   A    
C37   C50   A    
C53   C63   A    
C48   C61   A    
C74   H42   S    
C26   H1    S    
C20   H4    S    
C72   H35   S    
C71   H32   S    
C76   O30   S    
C22   H2    S    
C12   C38   A    
C70   H28   S    
C58   H5    S    
C35   O21   S    
C41   C54   A    
C1    C39   A    
Cu1   O17   S    
C7    O14   A    
C74   H41   S    
C15   C21   A    
C12   C13   S    
C25   H12   S    
Cu2   O3    S    
C62   H9    S    
C78   O36   A    
C13   C19   A    
C41   C45   A    
Cu3   O23   S    
C1    C11   S    
C68   H24   S    
C39   O26   S    
C27   H51   S    
C8    C57   S    
Cu4   O14   S    
C36   C49   A    
C37   O24   S    
C73   H39   S    
