data_mof_unit_33083.cif
_audit_creation_date              2012-12-10T20:53:06-0500
_audit_creation_method            fapswitch 2.2
_symmetry_space_group_name_H-M    P1
_symmetry_Int_Tables_number       1
_space_group_crystal_system       triclinic
_cell_length_a                    18.332498
_cell_length_b                    18.247298
_cell_length_c                    18.336807
_cell_angle_alpha                 60.127081
_cell_angle_beta                  59.765006
_cell_angle_gamma                 60.34144
_cell_volume                      4344.82188065

loop_
_atom_site_label
_atom_site_type_symbol
_atom_type_description
_atom_site_fract_x
_atom_site_fract_y
_atom_site_fract_z
_atom_type_partial_charge
C1    C     C_R   0.389571 0.116178 0.103344 0.536017
C2    C     C_R   0.471809 0.743062 0.698772 -0.123227
C3    C     C_R   0.020706 0.569755 0.924477 -0.001810
C4    C     C_R   0.406697 0.026357 0.023743 -0.006823
C5    C     C_R   0.592666 0.975954 0.974456 -0.015537
C6    C     C_R   0.948663 0.943518 0.549536 0.037032
C7    C     C_R   0.051387 0.056757 0.449126 0.018920
C8    C     C_R   0.940601 0.555954 0.950619 -0.007672
C9    C     C_R   0.045886 0.452352 0.060581 0.017157
C10   C     C_R   0.555595 0.930282 0.964395 0.015085
C11   C     C_R   0.443840 0.071415 0.034356 0.023951
C12   C     C_2   0.055396 0.750618 0.542713 0.575620
C13   C     C_R   0.189756 0.182090 0.661391 -0.123122
C14   C     C_2   0.949310 0.257821 0.421107 0.569982
C15   C     C_2   0.743054 0.565137 0.050292 0.598946
C16   C     C_2   0.116796 0.593284 0.042016 0.637517
C17   C     C_2   0.468871 0.789637 0.037958 0.619074
C18   C     C_2   0.529552 0.212508 0.962217 0.594669
C19   C     C_R   0.814528 0.823286 0.335754 -0.112972
C20   C     C_R   0.219405 0.523788 0.309937 -0.069064
C21   C     C_R   0.782788 0.470969 0.682832 -0.084226
C22   C     C_R   0.527423 0.342053 0.220639 -0.101263
C23   C     C_R   0.501400 0.670852 0.767687 -0.078343
C24   C     C_R   0.280878 0.143580 0.619626 -0.097584
C25   C     C_R   0.722977 0.856063 0.380601 -0.084640
C26   C     C_R   0.127083 0.569524 0.329636 0.035903
C27   C     C_R   0.610329 0.883840 0.896726 0.545971
C28   C     C_R   0.874547 0.431298 0.669914 0.035463
C29   C     C_R   0.559432 0.339177 0.134385 0.025880
C30   C     C_R   0.444008 0.657810 0.857281 0.020289
C31   C     C_R   0.310411 0.072239 0.590691 0.032971
C32   C     C_R   0.688972 0.928305 0.409882 0.037715
C33   C     C_R   0.096833 0.652703 0.268267 -0.075593
C34   C     C_R   0.903673 0.357178 0.738681 -0.061461
C35   C     C_R   0.620785 0.259972 0.115794 -0.022439
C36   C     C_R   0.356556 0.717892 0.876385 -0.076199
C37   C     C_R   0.247633 0.038695 0.605894 -0.020375
C38   C     C_R   0.108213 0.112150 0.390289 0.516391
C39   C     C_R   0.747570 0.967884 0.392897 -0.033327
C40   C     C_R   0.157656 0.689666 0.188640 0.118857
C41   C     C_R   0.841749 0.323396 0.819634 0.104849
C42   C     C_R   0.649069 0.183887 0.183270 0.119416
C43   C     C_R   0.326978 0.789471 0.807260 0.104817
C44   C     C_R   0.156396 0.078207 0.646635 0.148044
C45   C     C_R   0.838936 0.935253 0.347647 0.150176
C46   C     C_R   0.249216 0.643139 0.168897 -0.046294
C47   C     C_R   0.750509 0.363144 0.832032 -0.067224
C48   C     C_R   0.617354 0.187428 0.268966 -0.080134
C49   C     C_R   0.892922 0.886785 0.609502 0.500133
C50   C     C_R   0.384527 0.801962 0.718499 -0.090406
C51   C     C_R   0.127621 0.149681 0.674546 -0.054478
C52   C     C_R   0.872328 0.862911 0.319270 -0.040633
C53   C     C_R   0.003544 0.585695 0.470265 -0.127084
C54   C     C_R   0.998686 0.413829 0.530333 -0.130982
C55   C     C_R   0.582733 0.473270 0.005696 -0.117771
C56   C     C_R   0.419606 0.524379 0.988926 -0.143290
C57   C     C_R   0.463184 0.982274 0.592623 -0.155574
C58   C     C_R   0.535644 0.013579 0.408654 -0.156434
C59   C     C_R   0.943627 0.553440 0.554121 0.024824
C60   C     C_R   0.108603 0.391292 0.110712 0.516549
C61   C     C_R   0.058092 0.446353 0.446009 0.021729
C62   C     C_R   0.554478 0.553400 0.941125 0.044299
C63   C     C_R   0.446882 0.445530 0.054936 0.034625
C64   C     C_R   0.555274 0.945820 0.552139 0.012185
C65   C     C_R   0.443900 0.051562 0.448714 0.013900
C66   C     C_R   0.940313 0.466920 0.584379 -0.036795
C67   C     C_R   0.061869 0.532863 0.415730 -0.036033
C68   C     C_R   0.473056 0.578738 0.930666 -0.031944
C69   C     C_R   0.529313 0.419422 0.063349 -0.030582
C70   C     C_R   0.592167 0.962317 0.458573 -0.041739
C71   C     C_R   0.889214 0.610222 0.890472 0.518788
C72   C     C_R   0.406763 0.034599 0.542527 -0.040073
C73   C     C_R   0.111683 0.390138 0.389953 0.535220
C74   C     C_R   0.888668 0.609846 0.610039 0.530212
C75   C     C_R   0.390129 0.389892 0.111125 0.505555
C76   C     C_R   0.610090 0.609995 0.888175 0.559180
C77   C     C_R   0.389605 0.109450 0.390751 0.495063
C78   C     C_R   0.610259 0.890046 0.609405 0.489024
C79   C     C_R   0.185403 0.926324 0.469411 -0.081076
C80   C     C_R   0.813336 0.073268 0.533800 -0.082169
C81   C     C_R   0.945529 0.359629 0.158366 -0.065682
C82   C     C_R   0.279975 0.560287 0.229434 -0.100119
C83   C     C_R   0.059089 0.623243 0.837052 -0.092143
C84   C     C_R   0.315852 0.058563 0.032597 -0.079142
C85   C     C_R   0.683357 0.943860 0.966204 -0.080201
C86   C     C_R   0.227171 0.834483 0.496867 -0.123537
C87   C     C_R   0.771652 0.164672 0.502035 -0.135731
C88   C     C_R   0.865085 0.347950 0.185768 -0.120616
C89   C     C_R   0.132805 0.643544 0.815493 -0.136781
C90   C     C_R   0.278203 0.005735 0.037139 -0.114752
C91   C     C_R   0.720226 0.996253 0.963682 -0.124735
C92   C     C_R   0.180668 0.777449 0.528907 -0.138374
C93   C     C_R   0.721110 0.436699 0.763694 -0.120545
C94   C     C_R   0.819698 0.222742 0.459649 -0.119076
C95   C     C_R   0.802361 0.412869 0.145006 -0.103812
C96   C     C_R   0.162209 0.620618 0.882878 -0.117920
C97   C     C_R   0.329278 0.919137 0.035784 -0.132129
C98   C     C_R   0.668806 0.082668 0.965666 -0.099963
C99   C     C_R   0.090217 0.811503 0.538295 0.011303
C100  C     C_R   0.910795 0.190149 0.446785 0.012571
C101  C     C_R   0.820987 0.488607 0.073202 0.016168
C102  C     C_R   0.121557 0.571874 0.971130 0.060484
C103  C     C_R   0.421221 0.887670 0.020047 0.021700
C104  C     C_R   0.556493 0.266198 0.287756 -0.135956
C105  C     C_R   0.577443 0.114740 0.978741 0.085879
C106  C     C_R   0.043076 0.905334 0.523617 0.014738
C107  C     C_R   0.957153 0.095473 0.470656 -0.015022
C108  C     C_R   0.908930 0.494051 0.035417 -0.032022
C109  C     C_R   0.062431 0.531246 0.987706 -0.002145
C110  C     C_R   0.462121 0.947102 0.002228 -0.005786
C111  C     C_R   0.537029 0.055292 0.995870 -0.008755
C112  C     C_R   0.093305 0.963268 0.480703 0.021849
C113  C     C_R   0.906256 0.037072 0.518699 0.022408
C114  C     C_R   0.968546 0.433530 0.084039 0.005717
H1    H     H_    0.784511 0.294066 0.440478 0.133999
H2    H     H_    0.357922 0.541770 0.980547 0.167912
H3    H     H_    0.434443 0.970159 0.664131 0.157741
H4    H     H_    0.564223 0.025145 0.337294 0.169174
H5    H     H_    0.226102 0.967814 0.440280 0.117019
H6    H     H_    0.771892 0.031357 0.568594 0.116103
H7    H     H_    0.987496 0.310357 0.197940 0.190378
H8    H     H_    0.032506 0.649687 0.784866 0.126121
H9    H     H_    0.273621 0.125779 0.032961 0.162552
H10   H     H_    0.725820 0.876711 0.965798 0.175034
H11   H     H_    0.297455 0.807538 0.488239 0.119596
H12   H     H_    0.217324 0.706739 0.540607 0.117374
H13   H     H_    0.700851 0.190822 0.513081 0.116146
H14   H     H_    0.849036 0.290837 0.242727 0.142167
H15   H     H_    0.161770 0.684136 0.748174 0.130564
H16   H     H_    0.208010 0.030593 0.046095 0.159336
H17   H     H_    0.789976 0.970995 0.956476 0.166674
H18   H     H_    0.296495 0.671382 0.107180 0.144761
H19   H     H_    0.702402 0.337141 0.894351 0.145241
H20   H     H_    0.639292 0.129364 0.321164 0.120609
H21   H     H_    0.361724 0.856812 0.664802 0.119830
H22   H     H_    0.057174 0.180044 0.706306 0.140326
H23   H     H_    0.210152 0.648914 0.867626 0.157841
H24   H     H_    0.942940 0.837808 0.284253 0.153813
H25   H     H_    0.350846 0.524816 0.214157 0.112078
H26   H     H_    0.650504 0.466886 0.773458 0.112239
H27   H     H_    0.531914 0.268423 0.354311 0.110486
H28   H     H_    0.516292 0.752909 0.629974 0.106695
H29   H     H_    0.167207 0.237541 0.682975 0.121721
H30   H     H_    0.840681 0.767274 0.313622 0.126186
H31   H     H_    0.244344 0.460147 0.356846 0.091602
H32   H     H_    0.759257 0.528076 0.630312 0.096705
H33   H     H_    0.480701 0.402937 0.235669 0.108291
H34   H     H_    0.737000 0.406310 0.172974 0.142915
H35   H     H_    0.568675 0.624878 0.751030 0.079342
H36   H     H_    0.328292 0.170098 0.608645 0.110866
H37   H     H_    0.678748 0.824878 0.393122 0.113145
H38   H     H_    0.026026 0.688591 0.282418 0.104239
H39   H     H_    0.974169 0.326588 0.729696 0.113510
H40   H     H_    0.645716 0.257029 0.049564 0.160706
H41   H     H_    0.311211 0.708814 0.944854 0.158547
H42   H     H_    0.269251 0.984261 0.583227 0.111959
H43   H     H_    0.722469 0.022853 0.416204 0.105472
H44   H     H_    0.097857 0.648308 0.643487 0.277317
H45   H     H_    0.700978 0.124989 0.955413 0.173503
H46   H     H_    0.958459 0.211918 0.542504 0.315281
H47   H     H_    0.772888 0.654125 0.056945 0.297949
H48   H     H_    0.043276 0.615792 0.160119 0.346020
H49   H     H_    0.405822 0.774176 0.984381 0.294140
H50   H     H_    0.427175 0.320427 0.928787 0.328134
H51   H     H_    0.295830 0.876290 0.049647 0.140956
H52   H     H_    0.006978 0.651537 0.448249 0.183111
H53   H     H_    0.995305 0.347815 0.553032 0.173338
H54   H     H_    0.645639 0.453571 0.013061 0.178585
I1    I     I_    0.110877 0.816745 0.100113 -0.307136
I2    I     I_    0.886296 0.212761 0.922768 -0.320714
I3    I     I_    0.738050 0.064016 0.155520 -0.346479
I4    I     I_    0.194893 0.876682 0.837857 -0.300233
I5    I     I_    0.061833 0.030660 0.665658 -0.355745
I6    I     I_    0.926313 0.995436 0.321637 -0.306661
O1    O     O_3   0.250000 0.250000 0.250000 -0.454541
O2    O     O_R   0.865800 0.694910 0.573470 -0.520214
O3    O     O_R   0.305090 0.426530 0.134200 -0.537074
O4    O     O_R   0.694910 0.573470 0.865800 -0.534003
O5    O     O_R   0.426530 0.134200 0.305090 -0.544202
O6    O     O_R   0.573470 0.865800 0.694910 -0.554884
O7    O     O_R   0.134190 0.426530 0.134200 -0.503597
O8    O     O_R   0.865810 0.573470 0.865800 -0.515841
O9    O     O_R   0.426530 0.134200 0.134190 -0.526378
O10   O     O_R   0.573470 0.865800 0.865810 -0.537621
O11   O     O_R   0.134200 0.134190 0.426530 -0.512826
O12   O     O_3   0.750000 0.750000 0.750000 -0.455667
O13   O     O_R   0.865800 0.865810 0.573470 -0.498487
O14   O     O_R   0.426530 0.305080 0.134210 -0.509587
O15   O     O_R   0.573470 0.694920 0.865790 -0.500626
O16   O     O_R   0.305080 0.134210 0.426530 -0.552804
O17   O     O_R   0.694920 0.865790 0.573470 -0.551482
O18   O     O_R   0.134210 0.426530 0.305080 -0.522294
O19   O     O_R   0.865790 0.573470 0.694920 -0.531744
O20   O     O_2   0.023522 0.774210 0.486874 -0.440545
O21   O     O_R   0.065347 0.663822 0.604050 -0.693841
O22   O     O_2   0.957020 0.315567 0.347662 -0.508436
O23   O     O_R   0.305080 0.134200 0.134200 -0.557459
O24   O     O_R   0.971794 0.259960 0.482189 -0.654862
O25   O     O_2   0.688376 0.552249 0.042623 -0.468452
O26   O     O_R   0.728116 0.651413 0.042192 -0.631132
O27   O     O_2   0.179520 0.607332 0.034132 -0.533295
O28   O     O_R   0.038817 0.600486 0.116710 -0.658418
O29   O     O_2   0.527373 0.752528 0.070585 -0.421499
O30   O     O_R   0.446568 0.737770 0.021177 -0.656745
O31   O     O_2   0.558192 0.257431 0.966881 -0.549424
O32   O     O_R   0.453448 0.254022 0.938134 -0.715865
O33   O     O_R   0.694920 0.865800 0.865800 -0.542184
O34   O     O_R   0.134200 0.134200 0.305080 -0.529289
O35   O     O_R   0.865800 0.865800 0.694920 -0.546100
O36   O     O_R   0.134200 0.305080 0.134200 -0.553679
O37   O     O_R   0.865800 0.694920 0.865800 -0.527777
O38   O     O_R   0.134200 0.305090 0.426530 -0.514551
Zn1   Zn    Zn3+2 0.206620 0.206630 0.380140 0.971447
Zn2   Zn    Zn3+2 0.793380 0.793370 0.619860 0.969885
Zn3   Zn    Zn3+2 0.206630 0.380140 0.206620 0.999241
Zn4   Zn    Zn3+2 0.793370 0.619860 0.793380 1.004506
Zn5   Zn    Zn3+2 0.380140 0.206620 0.206630 0.963471
Zn6   Zn    Zn3+2 0.619860 0.793380 0.793370 0.974235
Zn7   Zn    Zn3+2 0.206620 0.206620 0.206620 0.967696
Zn8   Zn    Zn3+2 0.793380 0.793380 0.793380 0.985081

loop_
_geom_bond_atom_site_label_1
_geom_bond_atom_site_label_2
_ccdc_geom_bond_type
C10   C27   S    
C57   C64   A    
C80   H6    S    
C19   H30   S    
C22   C29   A    
C20   C82   A    
O3    Zn3   S    
C73   O38   A    
O6    Zn6   S    
C75   O14   A    
C1    C11   S    
C35   H40   S    
C54   H53   S    
C87   H13   S    
C1    O9    A    
C7    C107  A    
C89   H15   S    
C106  C112  A    
O14   Zn5   S    
C84   H9    S    
C40   C46   A    
O37   Zn8   S    
C14   O24   S    
O33   Zn8   S    
C77   O5    A    
C98   C105  A    
C21   C93   A    
C79   C112  A    
H48   O28   S    
C103  C110  A    
C78   O6    A    
C26   C67   S    
O1    Zn1   S    
C48   H20   S    
C3    C109  A    
C80   C87   A    
C76   O4    A    
C50   H21   S    
C59   C66   A    
C46   H18   S    
C38   O34   A    
C47   C93   A    
C91   H17   S    
C96   C102  A    
C48   C104  A    
C87   C94   A    
C58   H4    S    
C22   C104  A    
C7    C112  A    
C85   H10   S    
C32   C39   A    
C108  C114  A    
C17   O29   D    
C35   C42   A    
C27   O10   A    
C107  C113  A    
C12   C99   S    
C4    C110  A    
C76   O15   A    
C2    C50   A    
C13   C51   A    
C19   C52   A    
C63   C69   A    
C8    C71   S    
C79   H5    S    
C81   C114  A    
C52   H24   S    
C39   H43   S    
C64   C70   A    
C25   H37   S    
C90   C97   A    
C53   C59   A    
C39   C45   A    
C5    C85   A    
C101  C108  A    
O10   Zn6   S    
C23   H35   S    
C88   C95   A    
C28   C34   A    
C57   C72   A    
C46   C82   A    
C47   H19   S    
C86   H11   S    
O8    Zn4   S    
C53   C67   A    
O1    Zn5   S    
C71   O8    A    
C62   C76   S    
C34   C41   A    
C84   C90   A    
C55   H54   S    
C16   O28   S    
C8    C108  A    
C40   I1    S    
C29   C69   S    
C85   C91   A    
C83   C89   A    
H49   O30   S    
C33   C40   A    
C65   C77   S    
C95   H34   S    
C11   C111  A    
C81   C88   A    
C23   C30   A    
C44   I5    S    
C3    C8    A    
C96   H23   S    
C58   C70   A    
H46   O24   S    
C56   H2    S    
C45   C52   A    
C61   C73   S    
C56   C68   A    
O12   Zn8   S    
C15   C101  S    
O36   Zn7   S    
C31   C37   A    
C13   C24   A    
C81   H7    S    
C9    C109  A    
O1    Zn3   S    
C17   O30   S    
C28   C66   S    
C6    C113  A    
C74   O2    A    
C82   H25   S    
C15   O25   D    
C51   H22   S    
C61   C67   A    
C58   C65   A    
C49   O13   A    
C94   C100  A    
C94   H1    S    
O12   Zn6   S    
C41   C47   A    
C56   C63   A    
O7    Zn3   S    
C74   O19   A    
C80   C113  A    
C4    C11   A    
C6    C106  A    
C59   C74   S    
C97   C103  A    
C24   H36   S    
C44   C51   A    
C16   C102  S    
C31   C72   S    
C21   C28   A    
C37   H42   S    
C42   C48   A    
C71   O37   A    
C18   O31   D    
C3    C83   A    
C2    H28   S    
C12   O21   S    
O2    Zn2   S    
C98   H45   S    
C9    C114  A    
C16   O27   D    
C38   O11   A    
C64   C78   S    
O15   Zn6   S    
C63   C75   S    
O19   Zn4   S    
C57   H3    S    
C34   H39   S    
C60   O7    A    
C99   C106  A    
C14   O22   D    
C100  C107  A    
O18   Zn3   S    
H47   O26   S    
C104  H27   S    
O35   Zn8   S    
O1    Zn7   S    
C1    O23   A    
C78   O17   A    
C22   H33   S    
C102  C109  A    
C33   H38   S    
C92   H12   S    
C32   C70   S    
C43   I4    S    
C43   C50   A    
C14   C100  S    
C54   C66   A    
C54   C61   A    
C62   C68   A    
C65   C72   A    
C5    C111  A    
C41   I2    S    
C29   C35   A    
H44   O21   S    
C30   C36   A    
C83   H8    S    
C18   O32   S    
C9    C60   S    
C21   H32   S    
C55   C69   A    
C89   C96   A    
C17   C103  S    
C24   C31   A    
C4    C84   A    
C5    C10   A    
O17   Zn2   S    
C93   H26   S    
H50   O32   S    
C45   I6    S    
C15   O26   S    
O9    Zn5   S    
C20   C26   A    
O34   Zn7   S    
C97   H51   S    
C77   O16   A    
O12   Zn2   S    
C7    C38   S    
O11   Zn1   S    
C10   C110  A    
C27   O33   A    
C13   H29   S    
C91   C98   A    
C105  C111  A    
C75   O3    A    
O16   Zn1   S    
C30   C68   S    
C92   C99   A    
O13   Zn2   S    
C73   O18   A    
C42   I3    S    
C19   C25   A    
O4    Zn4   S    
C90   H16   S    
C37   C44   A    
C53   H52   S    
O12   Zn4   S    
O38   Zn1   S    
C36   H41   S    
C88   H14   S    
C55   C62   A    
C49   O35   A    
C2    C23   A    
C18   C105  S    
C20   H31   S    
C36   C43   A    
C86   C92   A    
O23   Zn7   S    
C60   O36   A    
C79   C86   A    
O5    Zn5   S    
C6    C49   S    
C95   C101  A    
C26   C33   A    
C12   O20   D    
C25   C32   A    
