data_mof_unit_46629.cif
_audit_creation_date              2012-12-10T19:08:09-0500
_audit_creation_method            fapswitch 2.2
_symmetry_space_group_name_H-M    P1
_symmetry_Int_Tables_number       1
_space_group_crystal_system       triclinic
_cell_length_a                    9.064635
_cell_length_b                    10.855845
_cell_length_c                    9.537576
_cell_angle_alpha                 89.383601
_cell_angle_beta                  89.63133
_cell_angle_gamma                 90.555438
_cell_volume                      938.419751937

loop_
_atom_site_label
_atom_site_type_symbol
_atom_type_description
_atom_site_fract_x
_atom_site_fract_y
_atom_site_fract_z
_atom_type_partial_charge
C1    C     C_R   0.499957 0.262477 0.500541 0.821704
C2    C     C_R   0.624451 0.532641 0.924934 0.262545
C3    C     C_3   0.703864 0.653756 0.917147 0.232819
C4    C     C_R   0.220656 0.499639 0.500226 0.830523
C5    C     C_3   0.704951 0.652807 0.076829 -0.568712
C6    C     C_R   0.496447 0.737702 0.499104 0.803880
C7    C     C_R   0.779325 0.499449 0.499709 0.845228
C8    C     C_1   0.065559 0.498853 0.500193 -0.194335
C9    C     C_1   0.934418 0.498630 0.499398 -0.182566
C10   C     C_R   0.515152 0.062159 0.624715 0.118954
C11   C     C_R   0.504730 0.129513 0.499965 -0.202064
C12   C     C_R   0.486970 0.939047 0.369638 0.454191
C13   C     C_R   0.499341 0.067211 0.372068 -0.306483
C14   C     C_3   0.317667 0.901560 0.196007 0.063836
C15   C     C_3   0.205646 0.817003 0.272408 -0.346872
C16   C     C_3   0.048714 0.840394 0.222833 -0.939096
C17   C     C_3   0.638673 0.100377 0.901612 -0.633157
C18   C     C_3   0.910364 0.758920 0.831314 0.069188
C19   C     C_3   0.889663 0.794869 0.676943 -0.333034
C20   C     C_3   0.938058 0.927577 0.647040 -0.949448
C21   C     C_R   0.497660 0.871427 0.496811 -0.199472
C22   C     C_R   0.512506 0.934630 0.623017 0.001564
C23   C     C_3   0.414065 0.925586 0.749602 -0.452858
C24   C     C_3   0.415487 0.065313 0.751005 0.085980
C25   C     C_R   0.624280 0.532600 0.072420 0.200115
C26   C     C_R   0.382313 0.456205 0.075590 -0.079686
C27   C     C_R   0.382124 0.456589 0.926877 -0.115408
Cu1   Cu    Cu3+1 0.499990 0.499980 0.640670 0.945475
Cu2   Cu    Cu3+1 0.500010 0.500020 0.359330 0.943916
H1    H     H_    0.495372 0.117558 0.273466 0.182933
H2    H     H_    0.314606 0.880164 0.082404 0.165420
H3    H     H_    0.284605 0.999772 0.204865 0.133893
H4    H     H_    0.233656 0.719368 0.252434 0.249697
H5    H     H_    0.209510 0.832931 0.387182 0.200495
H6    H     H_    0.017545 0.937424 0.242495 0.258009
H7    H     H_    0.970886 0.778789 0.281287 0.260622
H8    H     H_    0.039581 0.821313 0.109198 0.249527
H9    H     H_    0.448682 0.205732 0.895819 0.258036
H10   H     H_    0.665571 0.132618 0.008623 0.217771
H11   H     H_    0.704959 0.155386 0.824682 0.220964
H12   H     H_    0.635123 0.726636 0.868326 0.098395
H13   H     H_    0.668825 0.001855 0.895216 0.222003
H14   H     H_    0.030572 0.753272 0.852164 0.154085
H15   H     H_    0.866992 0.832183 0.901361 0.124217
H16   H     H_    0.955785 0.732884 0.610191 0.216840
H17   H     H_    0.772075 0.784138 0.648167 0.225745
H18   H     H_    0.869750 0.992275 0.708282 0.259370
H19   H     H_    0.924043 0.948812 0.533768 0.265827
H20   H     H_    0.055785 0.941125 0.674403 0.247182
H21   H     H_    0.816700 0.642758 0.122569 0.216674
H22   H     H_    0.638003 0.727407 0.122703 0.232934
H23   H     H_    0.304178 0.885399 0.725050 0.156356
H24   H     H_    0.467903 0.881669 0.841076 0.200152
H25   H     H_    0.305407 0.105377 0.728423 0.103990
H26   H     H_    0.286274 0.421825 0.131767 0.149042
H27   H     H_    0.286006 0.422478 0.872586 0.155970
N1    N     N_R   0.500920 0.500930 0.147930 -0.179047
N2    N     N_R   0.500930 0.500890 0.852020 -0.218745
N3    N     N_2   0.482485 0.117207 0.876331 -0.407941
O1    O     O_R   0.500000 0.319640 0.618810 -0.583216
O2    O     O_3   0.846796 0.641241 0.858851 -0.575461
O3    O     O_R   0.500020 0.319680 0.381230 -0.584554
O4    O     O_R   0.288380 0.499980 0.618770 -0.580989
O5    O     O_R   0.288400 0.500020 0.381190 -0.599611
O6    O     O_R   0.499980 0.680320 0.618770 -0.595718
O7    O     O_R   0.500000 0.680360 0.381190 -0.537629
O8    O     O_R   0.711600 0.499980 0.618810 -0.548099
O9    O     O_R   0.711620 0.500020 0.381230 -0.580977
O10   O     O_3   0.463506 0.880342 0.243192 -0.610889

loop_
_geom_bond_atom_site_label_1
_geom_bond_atom_site_label_2
_ccdc_geom_bond_type
C12   O10   S    
C2    N2    A    
C18   O2    S    
C20   H20   S    
Cu1   N2    S    
Cu2   O9    S    
C17   H11   S    
C4    O5    A    
C15   H5    S    
C19   C20   S    
C1    C11   S    
C16   H8    S    
C4    C8    S    
C26   H26   S    
C19   H16   S    
C2    C3    S    
C26   C27   A    
Cu2   O5    S    
C18   H14   S    
C10   C22   A    
C11   C13   A    
C4    O4    A    
C23   H23   S    
C20   H19   S    
C25   N1    A    
C17   N3    S    
C24   N3    S    
C5    C25   S    
C16   H7    S    
C21   C22   A    
Cu1   Cu2   S    
C14   O10   S    
Cu2   N1    S    
C23   H24   S    
C2    C25   A    
C18   H15   S    
Cu1   O1    S    
C16   H6    S    
C17   H13   S    
C14   C15   S    
C26   N1    A    
C5    H21   S    
C19   H17   S    
C20   H18   S    
C10   C11   A    
Cu1   O6    S    
C3    O2    S    
C24   H25   S    
Cu2   O7    S    
Cu1   O4    S    
C13   H1    S    
C6    O7    A    
Cu1   O8    S    
C12   C13   A    
Cu2   O3    S    
C1    O3    A    
C18   C19   S    
C17   H10   S    
C1    O1    A    
C7    C9    S    
C14   H2    S    
C27   H27   S    
C3    H12   S    
C23   C24   S    
C10   C24   S    
C7    O9    A    
C22   C23   S    
C6    C21   S    
C7    O8    A    
C12   C21   A    
C15   H4    S    
C6    O6    A    
C5    H22   S    
C15   C16   S    
H9    N3    S    
C14   H3    S    
C8    C9    T    
C3    C5    S    
C27   N2    A    
