data_mof_unit_65598.cif
_audit_creation_date              2012-12-10T17:00:02-0500
_audit_creation_method            fapswitch 2.2
_symmetry_space_group_name_H-M    P1
_symmetry_Int_Tables_number       1
_space_group_crystal_system       triclinic
_cell_length_a                    15.169704
_cell_length_b                    15.17226
_cell_length_c                    10.054162
_cell_angle_alpha                 90.001969
_cell_angle_beta                  90.209906
_cell_angle_gamma                 90.000728
_cell_volume                      2314.03725656

loop_
_atom_site_label
_atom_site_type_symbol
_atom_type_description
_atom_site_fract_x
_atom_site_fract_y
_atom_site_fract_z
_atom_type_partial_charge
C1    C     C_R   0.378189 0.884822 0.499601 0.849493
C2    C     C_2   0.714817 0.218731 0.394432 -0.219291
C3    C     C_2   0.214703 0.281155 0.394447 -0.219294
C4    C     C_2   0.216184 0.717404 0.394138 -0.224243
C5    C     C_2   0.701118 0.834509 0.498831 0.305706
C6    C     C_2   0.700712 0.166054 0.498614 0.305460
C7    C     C_2   0.200674 0.333897 0.498589 0.305459
C8    C     C_2   0.201137 0.665468 0.498845 0.305717
C9    C     C_2   0.287878 0.221700 0.394951 -0.193868
C10   C     C_2   0.289323 0.776923 0.395336 -0.191074
C11   C     C_2   0.789267 0.723020 0.395319 -0.191039
C12   C     C_R   0.378065 0.115028 0.499627 0.850581
C13   C     C_2   0.787992 0.278189 0.394986 -0.193902
C14   C     C_2   0.299952 0.166802 0.497187 0.310657
C15   C     C_2   0.300440 0.832534 0.496978 0.312401
C16   C     C_2   0.800424 0.667444 0.496990 0.312381
C17   C     C_2   0.799987 0.333151 0.497169 0.310692
C18   C     C_2   0.550443 0.950329 0.925784 -0.031674
C19   C     C_2   0.050536 0.549580 0.925788 -0.031704
C20   C     C_2   0.560813 0.964362 0.072929 0.000225
C21   C     C_2   0.060879 0.535530 0.072932 0.000235
C22   C     C_R   0.878074 0.384962 0.499624 0.850526
C23   C     C_R   0.878185 0.615174 0.499604 0.849553
C24   C     C_R   0.622070 0.114920 0.500060 0.848733
C25   C     C_R   0.622169 0.885200 0.500081 0.849214
C26   C     C_R   0.122173 0.614795 0.500084 0.849277
C27   C     C_R   0.122060 0.385068 0.500056 0.848661
C28   C     C_2   0.716127 0.782537 0.394145 -0.224252
Cl1   Cl    Cl    0.778800 0.852676 0.628476 -0.481669
Cl2   Cl    Cl    0.892224 0.501693 0.094413 -0.452459
Cl3   Cl    Cl    0.779279 0.147331 0.626828 -0.469077
Cl4   Cl    Cl    0.279312 0.352672 0.626688 -0.469118
Cl5   Cl    Cl    0.278782 0.647333 0.628548 -0.481702
Cl6   Cl    Cl    0.219437 0.145922 0.620923 -0.447023
Cl7   Cl    Cl    0.219052 0.853914 0.619193 -0.451272
Cl8   Cl    Cl    0.719072 0.646092 0.619271 -0.451238
Cl9   Cl    Cl    0.719401 0.354081 0.620778 -0.447092
Cl10  Cl    Cl    0.392221 0.998497 0.094410 -0.452466
H1    H     H_    0.334134 0.225801 0.312839 0.183762
H2    H     H_    0.089907 0.600449 0.879042 0.184318
H3    H     H_    0.477961 0.056925 0.894971 0.237723
H4    H     H_    0.977858 0.443116 0.894963 0.237727
H5    H     H_    0.621634 0.942053 0.118870 0.123503
H6    H     H_    0.121742 0.557728 0.118875 0.123496
H7    H     H_    0.336174 0.772562 0.314024 0.181694
H8    H     H_    0.836092 0.727363 0.313970 0.181763
H9    H     H_    0.834299 0.274056 0.312945 0.183666
H10   H     H_    0.671890 0.780181 0.308906 0.173399
H11   H     H_    0.669946 0.221499 0.309984 0.181015
H12   H     H_    0.169780 0.278355 0.310061 0.180978
H13   H     H_    0.171972 0.719741 0.308869 0.173426
H14   H     H_    0.589716 0.899388 0.879031 0.184279
N1    N     N_2   0.501330 0.000000 0.852150 -0.158554
N2    N     N_2   0.001330 0.500000 0.852150 -0.158564
N3    N     N_2   0.501360 0.000000 0.147810 0.049779
N4    N     N_2   0.001360 0.500000 0.147810 0.049779
O1    O     O_R   0.409520 0.909540 0.613040 -0.551420
O2    O     O_R   0.590440 0.909540 0.613100 -0.581433
O3    O     O_R   0.090440 0.590460 0.613100 -0.581415
O4    O     O_R   0.090440 0.409540 0.613100 -0.565551
O5    O     O_R   0.590480 0.090460 0.386960 -0.648908
O6    O     O_R   0.590480 0.909540 0.386960 -0.660572
O7    O     O_R   0.090480 0.590460 0.386960 -0.660528
O8    O     O_R   0.090480 0.409540 0.386960 -0.648952
O9    O     O_R   0.409520 0.090460 0.613040 -0.563278
O10   O     O_R   0.909520 0.409540 0.613040 -0.563335
O11   O     O_R   0.909520 0.590460 0.613040 -0.551380
O12   O     O_R   0.409560 0.909540 0.386900 -0.602802
O13   O     O_R   0.409560 0.090460 0.386900 -0.602160
O14   O     O_R   0.909560 0.409540 0.386900 -0.602212
O15   O     O_R   0.909560 0.590460 0.386900 -0.602735
O16   O     O_R   0.590440 0.090460 0.613100 -0.565528
Zn1   Zn    Zn3+2 0.499970 0.000000 0.650990 1.100302
Zn2   Zn    Zn3+2 0.999970 0.500000 0.650990 1.100289
Zn3   Zn    Zn3+2 0.500030 0.000000 0.349010 1.048456
Zn4   Zn    Zn3+2 0.000030 0.500000 0.349010 1.048459

loop_
_geom_bond_atom_site_label_1
_geom_bond_atom_site_label_2
_ccdc_geom_bond_type
C12   O13   A    
C24   O5    A    
N4    Zn4   S    
C8    C26   S    
C4    C8    D    
C18   H14   S    
O5    Zn3   S    
O12   Zn3   S    
C19   C21   S    
C3    C7    D    
C27   O4    A    
O15   Zn4   S    
O7    Zn4   S    
C23   O11   A    
C21   H6    S    
C9    H1    S    
C1    O12   A    
C7    C27   S    
O1    Zn1   S    
C2    C13   S    
C22   O10   A    
C18   N1    D    
N2    Zn2   S    
Cl10  N3    S    
C1    C15   S    
C26   O3    A    
C8    Cl5   S    
N3    Zn3   S    
C6    Cl3   S    
C2    C6    D    
C20   N3    D    
C15   Cl7   S    
C3    H12   S    
C5    Cl1   S    
C4    H13   S    
C23   O15   A    
C27   O8    A    
O9    Zn1   S    
C13   H9    S    
C9    C14   D    
Cl2   N4    S    
C26   O7    A    
C3    C9    S    
C2    H11   S    
C1    O1    A    
C5    C28   D    
C11   C16   D    
C6    C24   S    
C10   H7    S    
O8    Zn4   S    
O11   Zn2   S    
C17   Cl9   S    
O3    Zn2   S    
H3    N1    S    
C5    C25   S    
C19   N2    D    
C12   C14   S    
C16   C23   S    
O14   Zn4   S    
O6    Zn3   S    
C25   O2    A    
C4    C10   S    
C20   H5    S    
C24   O16   A    
C28   H10   S    
C7    Cl4   S    
N1    Zn1   S    
O16   Zn1   S    
C14   Cl6   S    
C21   N4    D    
C12   O9    A    
C17   C22   S    
C13   C17   D    
C10   C15   D    
C16   Cl8   S    
C11   C28   S    
O4    Zn2   S    
O13   Zn3   S    
C18   C20   S    
C25   O6    A    
C19   H2    S    
C11   H8    S    
C22   O14   A    
H4    N2    S    
O2    Zn1   S    
O10   Zn2   S    
