data_mof_unit_60889.cif
_audit_creation_date              2012-12-10T21:19:09-0500
_audit_creation_method            fapswitch 2.2
_symmetry_space_group_name_H-M    P1
_symmetry_Int_Tables_number       1
_space_group_crystal_system       triclinic
_cell_length_a                    15.729662
_cell_length_b                    17.457997
_cell_length_c                    16.869174
_cell_angle_alpha                 90.267447
_cell_angle_beta                  90.340603
_cell_angle_gamma                 92.076512
_cell_volume                      4629.23771777

loop_
_atom_site_label
_atom_site_type_symbol
_atom_type_description
_atom_site_fract_x
_atom_site_fract_y
_atom_site_fract_z
_atom_type_partial_charge
C1    C     C_R   0.507035 0.353267 0.499938 0.947468
C2    C     C_R   0.496244 0.647349 0.500137 0.945320
C3    C     C_R   0.502472 0.772625 0.573936 0.422395
C4    C     C_R   0.526701 0.227412 0.429334 0.407303
C5    C     C_R   0.498022 0.731967 0.500735 -0.223546
C6    C     C_R   0.530087 0.271849 0.500326 -0.227182
C7    C     C_R   0.505624 0.773896 0.428680 -0.082670
C8    C     C_R   0.558738 0.236849 0.571714 -0.074934
C9    C     C_R   0.532732 0.850806 0.431844 -0.181258
C10   C     C_R   0.572907 0.158495 0.572270 -0.178159
C11   C     C_R   0.545698 0.887268 0.504517 0.042332
C12   C     C_R   0.564424 0.115933 0.502936 0.046253
C13   C     C_1   0.561743 0.967297 0.506015 0.022959
C14   C     C_1   0.567455 0.035337 0.505656 0.021826
C15   C     C_R   0.433073 0.464217 0.832649 0.259209
C16   C     C_R   0.568964 0.532399 0.167099 0.257392
C17   C     C_R   0.434580 0.463909 0.748403 -0.027571
C18   C     C_R   0.567522 0.532767 0.251400 -0.038536
C19   C     C_R   0.566199 0.534960 0.749643 -0.035519
C20   C     C_R   0.431941 0.468281 0.250071 -0.032027
C21   C     C_R   0.566775 0.535627 0.833921 0.249360
C22   C     C_R   0.431626 0.467394 0.165751 0.248240
C23   C     C_R   0.337823 0.499534 0.499784 0.907280
C24   C     C_R   0.662165 0.500358 0.500224 0.906121
C25   C     C_R   0.499685 0.500243 0.876107 -0.086955
C26   C     C_R   0.500565 0.499521 0.123628 -0.090454
C27   C     C_1   0.499948 0.499975 0.963579 0.219288
C28   C     C_1   0.500378 0.499756 0.036143 0.219610
C29   C     C_3   0.971402 0.461002 0.563856 -0.068646
C30   C     C_3   0.028380 0.536447 0.436392 -0.071174
C31   C     C_3   0.026020 0.425616 0.497972 -0.282296
C32   C     C_3   0.973824 0.571824 0.502287 -0.282101
C33   C     C_1   0.249171 0.498919 0.499388 -0.063122
C34   C     C_1   0.750755 0.500015 0.500656 -0.053130
C35   C     C_3   0.029656 0.533658 0.565686 -0.072719
C36   C     C_3   0.970154 0.463781 0.434572 -0.073423
C37   C     C_3   0.083349 0.499175 0.499807 0.053538
C38   C     C_3   0.916479 0.498286 0.500431 0.052404
C39   C     C_1   0.174037 0.498710 0.499433 0.108409
C40   C     C_1   0.825840 0.499375 0.500696 0.107685
C41   C     C_R   0.527738 0.849561 0.574976 -0.172918
C42   C     C_R   0.543404 0.150039 0.431810 -0.170791
H1    H     H_    0.048521 0.366077 0.496208 0.189616
H2    H     H_    0.951338 0.631369 0.504061 0.189785
H3    H     H_    0.531274 0.880599 0.630816 0.190913
H4    H     H_    0.537722 0.115712 0.378132 0.187944
H5    H     H_    0.539572 0.883618 0.377619 0.186838
H6    H     H_    0.591279 0.130565 0.626780 0.180815
N1    N     N_R   0.500020 0.500030 0.707230 -0.195361
N2    N     N_R   0.499980 0.499970 0.292770 -0.192632
O1    O     O_R   0.500000 0.389130 0.566570 -0.593696
O2    O     O_R   0.500000 0.610870 0.433430 -0.586704
O3    O     O_R   0.499990 0.389100 0.433480 -0.541287
O4    O     O_R   0.500010 0.610900 0.566520 -0.544909
O5    O     O_R   0.376780 0.500010 0.566530 -0.613567
O6    O     O_R   0.623220 0.499990 0.433470 -0.623119
O7    O     O_R   0.376780 0.499980 0.433450 -0.613056
O8    O     O_R   0.623220 0.500020 0.566550 -0.605484
Zn1   Zn    Zn3+2 0.500000 0.500020 0.588860 1.051282
Zn2   Zn    Zn3+2 0.500000 0.499980 0.411140 1.051510
C43   C     C_2   0.640270 0.570011 0.708810 1.082687
O9    O     O_2   0.709438 0.540609 0.714484 -0.565270
O10   O     O_R   0.632471 0.637760 0.666322 -0.737234
H7    H     H_    0.687976 0.656003 0.641261 0.336099
C44   C     C_2   0.355503 0.437087 0.290345 1.086958
O11   O     O_2   0.287831 0.468527 0.281844 -0.559578
O12   O     O_R   0.359457 0.371027 0.336176 -0.719738
H8    H     H_    0.302589 0.355455 0.360347 0.340276
Cl1   Cl    Cl    0.651533 0.582138 0.886968 -0.422258
Cl2   Cl    Cl    0.344794 0.424497 0.112422 -0.417793
C45   C     C_2   0.940475 0.418176 0.635594 0.979293
O13   O     O_2   0.991992 0.390836 0.680921 -0.569616
O14   O     O_R   0.853349 0.409708 0.650367 -0.746703
H9    H     H_    0.840639 0.379836 0.700568 0.375106
C46   C     C_2   0.059002 0.579305 0.364573 0.981238
O15   O     O_2   0.007284 0.606515 0.319359 -0.569735
O16   O     O_R   0.146060 0.587956 0.349585 -0.748295
H10   H     H_    0.158523 0.617782 0.299306 0.379206
C47   C     C_2   0.938055 0.423963 0.360736 0.970892
O17   O     O_2   0.988846 0.399166 0.313384 -0.552280
O18   O     O_R   0.850684 0.415286 0.346367 -0.768035
H11   H     H_    0.837190 0.387727 0.294531 0.383497
C48   C     C_2   0.061737 0.573312 0.639625 0.973749
O19   O     O_2   0.010949 0.598655 0.686653 -0.552759
O20   O     O_R   0.149079 0.581086 0.654535 -0.759302
H12   H     H_    0.162553 0.608589 0.706407 0.384802
Cl3   Cl    Cl    0.470798 0.733188 0.665849 -0.487930
Cl4   Cl    Cl    0.503233 0.263163 0.334411 -0.488903
C49   C     C_2   0.479356 0.742225 0.350015 1.017346
O21   O     O_2   0.520166 0.759678 0.290873 -0.565953
O22   O     O_R   0.405378 0.695691 0.342861 -0.770453
H13   H     H_    0.394180 0.677808 0.286361 0.353844
C50   C     C_2   0.579903 0.279628 0.645776 0.991387
O23   O     O_2   0.550241 0.257578 0.708877 -0.569231
O24   O     O_R   0.636908 0.342953 0.643880 -0.767092
H14   H     H_    0.646577 0.367120 0.698108 0.357036
Cl5   Cl    Cl    0.348481 0.417211 0.884005 -0.419977
Cl6   Cl    Cl    0.655713 0.575760 0.115505 -0.418076
C51   C     C_2   0.364718 0.422697 0.706096 1.067180
O25   O     O_2   0.377454 0.362130 0.672467 -0.595492
O26   O     O_R   0.282932 0.451414 0.707999 -0.722479
H15   H     H_    0.239922 0.417933 0.677519 0.357212
C52   C     C_2   0.640170 0.570256 0.293300 1.070690
O27   O     O_2   0.630476 0.628686 0.331708 -0.606619
O28   O     O_R   0.720899 0.539962 0.286639 -0.721958
H16   H     H_    0.765911 0.570694 0.317646 0.360115

loop_
_geom_bond_atom_site_label_1
_geom_bond_atom_site_label_2
_ccdc_geom_bond_type
C38   C40   S    
C50   O23   D    
O5    Zn1   S    
O14   H9    S    
O24   H14   S    
C24   O6    A    
O18   H11   S    
O16   H10   S    
C33   C39   T    
C31   H1    S    
C34   C40   T    
C35   C37   S    
C15   C25   A    
C7    C49   S    
C7    C9    A    
C42   H4    S    
C43   O10   S    
C1    O3    A    
C20   N2    A    
O2    Zn2   S    
C48   O19   D    
C44   O12   S    
C29   C38   S    
C12   C42   A    
C32   C38   S    
C49   O22   S    
C24   O8    A    
C50   O24   S    
C13   C14   T    
C15   Cl5   S    
C10   C12   A    
O3    Zn2   S    
O4    Zn1   S    
C16   C26   A    
C3    Cl3   S    
C1    C6    S    
O26   H15   S    
C20   C44   S    
C47   O17   D    
C4    C6    A    
C2    O4    A    
C17   N1    A    
O22   H13   S    
C5    C7    A    
C35   C48   S    
O7    Zn2   S    
C6    C8    A    
C23   C33   S    
O8    Zn1   S    
O20   H12   S    
C17   C51   S    
C24   C34   S    
O12   H8    S    
C30   C37   S    
C21   Cl1   S    
C46   O15   D    
C32   C35   S    
C1    O1    A    
C19   N1    A    
C51   O25   D    
C29   C31   S    
C32   H2    S    
C52   O28   S    
C23   O5    A    
C46   O16   S    
C2    O2    A    
C8    C10   A    
C51   O26   S    
C12   C14   S    
C9    H5    S    
C9    C11   A    
C10   H6    S    
C2    C5    S    
O1    Zn1   S    
C52   O27   D    
C18   N2    A    
C47   O18   S    
C23   O7    A    
C21   C25   A    
C3    C41   A    
C48   O20   S    
C8    C50   S    
C20   C22   A    
C3    C5    A    
C36   C47   S    
C15   C17   A    
C4    Cl4   S    
C25   C27   S    
O28   H16   S    
C29   C35   S    
C26   C28   S    
N1    Zn1   S    
C30   C36   S    
N2    Zn2   S    
C36   C38   S    
C45   O13   D    
C37   C39   S    
C30   C32   S    
C30   C46   S    
C11   C13   S    
C16   Cl6   S    
C4    C42   A    
C19   C43   S    
C11   C41   A    
C18   C52   S    
C43   O9    D    
O10   H7    S    
C31   C37   S    
O6    Zn2   S    
C16   C18   A    
C44   O11   D    
C22   C26   A    
C45   O14   S    
C27   C28   T    
C41   H3    S    
C31   C36   S    
C29   C45   S    
C49   O21   D    
C22   Cl2   S    
C19   C21   A    
