data_mof_unit_20123.cif
_audit_creation_date              2013-03-05T16:35:41-0500
_audit_creation_method            fapswitch 2.2
_symmetry_space_group_name_H-M    P1
_symmetry_Int_Tables_number       1
_space_group_crystal_system       triclinic
_cell_length_a                    8.623509
_cell_length_b                    19.257704
_cell_length_c                    18.44429
_cell_angle_alpha                 89.973014
_cell_angle_beta                  98.445006
_cell_angle_gamma                 90.108711
_cell_volume                      3029.80746599

loop_
_atom_site_label
_atom_site_type_symbol
_atom_site_description
_atom_site_fract_x
_atom_site_fract_y
_atom_site_fract_z
_atom_type_partial_charge
O1    O     O_R   0.500010 0.398180 0.560840 -0.602210
O2    O     O_R   0.499990 0.601820 0.439160 -0.601910
O3    O     O_R   0.499930 0.398180 0.439210 -0.612197
O4    O     O_R   0.500070 0.601820 0.560790 -0.611469
C1    C     C_R   0.503957 0.365756 0.500315 0.936439
C2    C     C_R   0.494692 0.634216 0.499578 0.932860
O5    O     O_R   0.271780 0.500000 0.546590 -0.619210
O6    O     O_R   0.728220 0.500000 0.453410 -0.617845
O7    O     O_R   0.271710 0.499990 0.424960 -0.573851
O8    O     O_R   0.728290 0.500010 0.575040 -0.575502
C3    C     C_R   0.201262 0.499815 0.481150 0.954695
C4    C     C_R   0.798742 0.500133 0.518852 0.954427
Zn1   Zn    Zn3+2 0.500050 0.500000 0.581210 1.057757
Zn2   Zn    Zn3+2 0.499950 0.500000 0.418790 1.058754
C5    C     C_2   0.038551 0.488951 0.472788 0.008679
C6    C     C_2   0.961456 0.510995 0.527213 0.006440
C7    C     C_R   0.386915 0.743765 0.439794 0.300506
C8    C     C_R   0.596571 0.253458 0.558966 0.299166
C9    C     C_R   0.382314 0.816038 0.440286 -0.173092
C10   C     C_R   0.588640 0.181182 0.558226 -0.170574
H1    H     H_    0.313200 0.843679 0.395574 0.194226
H2    H     H_    0.654489 0.151539 0.602322 0.194118
C11   C     C_R   0.462531 0.852925 0.499385 0.101743
C12   C     C_R   0.500969 0.146715 0.499308 0.098731
C13   C     C_R   0.550041 0.818409 0.558195 -0.054585
C14   C     C_R   0.417935 0.183652 0.441107 -0.052862
H3    H     H_    0.613877 0.847166 0.603573 0.168922
H4    H     H_    0.348861 0.156802 0.395774 0.169355
C15   C     C_R   0.557906 0.746668 0.557914 -0.185239
C16   C     C_R   0.422576 0.255424 0.441629 -0.185334
H5    H     H_    0.628332 0.720497 0.603287 0.181713
H6    H     H_    0.355409 0.283566 0.396732 0.181424
C17   C     C_R   0.478751 0.709089 0.498719 -0.145505
C18   C     C_R   0.509849 0.290640 0.500457 -0.145170
C19   C     C_R   0.406946 0.967024 0.554096 0.328251
C20   C     C_R   0.547712 0.032702 0.442591 0.330291
C21   C     C_R   0.426129 0.038814 0.554063 -0.254812
C22   C     C_R   0.528387 0.960990 0.442568 -0.255073
H7    H     H_    0.383154 0.069837 0.595917 0.211347
H8    H     H_    0.572218 0.930055 0.400876 0.209896
C23   C     C_R   0.494902 0.071509 0.498937 -0.075205
C24   C     C_R   0.461050 0.928190 0.498076 -0.073447
C25   C     C_R   0.612698 0.534604 0.734861 0.077538
C26   C     C_R   0.387233 0.465444 0.265131 0.079033
H9    H     H_    0.701708 0.563496 0.711984 0.170505
H10   H     H_    0.298167 0.436582 0.288002 0.169716
C27   C     C_R   0.614191 0.533251 0.810973 -0.268882
C28   C     C_R   0.385743 0.466807 0.189019 -0.268433
H11   H     H_    0.703976 0.561991 0.845905 0.180712
H12   H     H_    0.295903 0.438103 0.154082 0.180576
C29   C     C_R   0.498805 0.496069 0.841458 -0.023708
C30   C     C_R   0.501204 0.503949 0.158543 -0.023664
C31   C     C_R   0.383477 0.459534 0.793118 0.234154
C32   C     C_R   0.616602 0.540435 0.206894 0.233789
C33   C     C_R   0.386912 0.463217 0.716963 0.029642
C34   C     C_R   0.613158 0.536744 0.283047 0.030129
H13   H     H_    0.300973 0.435085 0.679412 0.180679
H14   H     H_    0.699150 0.564842 0.320605 0.181091
N1    N     N_R   0.500020 0.499980 0.689440 -0.126673
N2    N     N_R   0.499980 0.500020 0.310560 -0.126493
C35   C     C_R   0.363671 0.516681 0.952414 -0.081698
C36   C     C_R   0.636339 0.483340 0.047585 -0.081570
H15   H     H_    0.257249 0.530311 0.916462 0.159446
H16   H     H_    0.742758 0.469704 0.083535 0.159439
C37   C     C_R   0.364277 0.518233 0.028606 -0.133040
C38   C     C_R   0.635735 0.481791 0.971393 -0.133071
H17   H     H_    0.258264 0.532954 0.049694 0.164115
H18   H     H_    0.741748 0.467071 0.950304 0.164026
C39   C     C_R   0.500907 0.502064 0.077223 0.149890
C40   C     C_R   0.499105 0.497959 0.922777 0.149862
N3    N     N_R   0.970904 0.442372 0.415275 0.201426
O9    O     O_R   0.991950 0.453505 0.347814 -0.353519
O10   O     O_R   0.906521 0.384354 0.431692 -0.355950
N4    N     N_R   0.029101 0.557584 0.584717 0.202447
O11   O     O_R   0.008198 0.546422 0.652192 -0.353823
O12   O     O_R   0.093424 0.615614 0.568291 -0.355040
N5    N     N_R   0.267290 0.416643 0.819783 0.201313
O13   O     O_R   0.131223 0.407298 0.780006 -0.316977
O14   O     O_R   0.303550 0.379515 0.878782 -0.339680
N6    N     N_R   0.732873 0.583288 0.180243 0.201157
O15   O     O_R   0.696670 0.620456 0.121269 -0.339930
O16   O     O_R   0.868972 0.592562 0.220016 -0.315263
N7    N     N_R   0.292986 0.706823 0.381344 0.221873
O17   O     O_R   0.204500 0.655447 0.396106 -0.338565
O18   O     O_R   0.275165 0.731597 0.314993 -0.322736
N8    N     N_R   0.697543 0.287668 0.617172 0.221734
O19   O     O_R   0.789288 0.337854 0.602447 -0.337448
O20   O     O_R   0.716370 0.261754 0.683048 -0.322249
N9    N     N_R   0.330095 0.934892 0.609814 0.213082
O21   O     O_R   0.242232 0.880232 0.594910 -0.341102
O22   O     O_R   0.333439 0.964592 0.673398 -0.331888
N10   N     N_R   0.625035 0.064677 0.386973 0.212547
O23   O     O_R   0.616752 0.036215 0.322527 -0.331262
O24   O     O_R   0.718530 0.117404 0.402726 -0.341910

loop_
_geom_bond_atom_site_label_1
_geom_bond_atom_site_label_2
_geom_bond_distance
_ccdc_geom_bond_type
C35   C40   1.407879 A    
C38   H18   1.083025 S    
C33   N1    1.361163 A    
C9    C11   1.395955 A    
C27   H11   1.083104 S    
N5    O13   1.301512 A    
O5    C3    1.269277 A    
C8    N8    1.438295 S    
C11   C24   1.449682 S    
N4    O12   1.301941 A    
C6    N4    1.444762 S    
C9    H1    1.084016 S    
C12   C14   1.395176 A    
C22   C24   1.398923 A    
N8    O20   1.301345 A    
C5    C6    1.351808 D    
C15   C17   1.400603 A    
O4    Zn1   1.996492 S    
C35   H15   1.082975 S    
C19   C24   1.410027 A    
C36   H16   1.082974 S    
C30   C39   1.499969 S    
C3    C5    1.404183 S    
C4    C6    1.404199 S    
C30   C32   1.420062 A    
C37   H17   1.083025 S    
C29   C40   1.499947 S    
N9    O22   1.301514 A    
C25   N1    1.359993 A    
O7    C3    1.275963 A    
C20   N10   1.440448 S    
N5    O14   1.301277 A    
C22   H8    1.084324 S    
C12   C23   1.449116 S    
C20   C23   1.409620 A    
O2    C2    1.284072 A    
C7    C17   1.415207 A    
C26   H10   1.081716 S    
C32   N6    1.438475 S    
C31   C33   1.411035 A    
C13   C15   1.383405 A    
C32   C34   1.411017 A    
N4    O11   1.301171 A    
C16   C18   1.400911 A    
C10   C12   1.396622 A    
O4    C2    1.284559 A    
N3    O10   1.301929 A    
C36   C38   1.404885 A    
N8    O19   1.301431 A    
C27   C29   1.407197 A    
C34   N2    1.361158 A    
C36   C39   1.407888 A    
C7    N7    1.437543 S    
C31   N5    1.438476 S    
O7    Zn2   1.988131 S    
C8    C18   1.414510 A    
N7    O17   1.301227 A    
C28   C30   1.407217 A    
O6    C4    1.269319 A    
C1    C18   1.447524 S    
N10   O24   1.301477 A    
C25   H9    1.081713 S    
O3    Zn2   1.996496 S    
O8    C4    1.275950 A    
C19   N9    1.440885 S    
N6    O16   1.301516 A    
N7    O18   1.301307 A    
C10   H2    1.083951 S    
C14   C16   1.382665 A    
C33   H13   1.081896 S    
O1    C1    1.284201 A    
O1    Zn1   1.996655 S    
Zn2   N2    1.996265 S    
O6    Zn2   1.978254 S    
C19   C21   1.392069 A    
N6    O15   1.301275 A    
O3    C1    1.284223 A    
O8    Zn1   1.988131 S    
Zn1   N1    1.996265 S    
C13   H3    1.083599 S    
C5    N3    1.444751 S    
C14   H4    1.083631 S    
C2    C17   1.448540 S    
C20   C22   1.390705 A    
N3    O9    1.301169 A    
C15   H5    1.083834 S    
C16   H6    1.083889 S    
C38   C40   1.407141 A    
C26   N2    1.359985 A    
C37   C39   1.407155 A    
C28   H12   1.083101 S    
N10   O23   1.301528 A    
C7    C9    1.392517 A    
C34   H14   1.081895 S    
C8    C10   1.393394 A    
C11   C13   1.395949 A    
C21   C23   1.398948 A    
O2    Zn2   1.996651 S    
C35   C37   1.404886 A    
O5    Zn1   1.978254 S    
C21   H7    1.084204 S    
C29   C31   1.420050 A    
N9    O21   1.301443 A    
C25   C27   1.402221 A    
C26   C28   1.402223 A    
