data_mof_unit_23448.cif
_audit_creation_date              2012-12-11T21:06:16-0500
_audit_creation_method            fapswitch 2.2
_symmetry_space_group_name_H-M    P1
_symmetry_Int_Tables_number       1
_space_group_crystal_system       triclinic
_cell_length_a                    36.105937
_cell_length_b                    39.770959
_cell_length_c                    8.509009
_cell_angle_alpha                 89.998825
_cell_angle_beta                  93.317915
_cell_angle_gamma                 89.998781
_cell_volume                      12198.1811169

loop_
_atom_site_label
_atom_site_type_symbol
_atom_type_description
_atom_site_fract_x
_atom_site_fract_y
_atom_site_fract_z
_atom_type_partial_charge
Ba1   Ba    Ba6+2 0.000060 0.523150 0.844950 1.673045
Ba2   Ba    Ba6+2 0.000060 0.476850 0.344950 1.672900
Ba3   Ba    Ba6+2 0.500060 0.023150 0.844950 1.672852
Ba4   Ba    Ba6+2 0.500060 0.976850 0.344950 1.672912
Br1   Br    Br    0.145392 0.463603 0.919510 -0.589582
Br2   Br    Br    0.145389 0.536396 0.419505 -0.589229
Br3   Br    Br    0.645394 0.963606 0.919501 -0.588928
Br4   Br    Br    0.645393 0.036394 0.419493 -0.589380
C1    C     C_3   0.993863 0.681355 0.460619 -0.326918
C2    C     C_2   0.907552 0.633308 0.292806 -0.087145
C3    C     C_R   0.632922 0.815027 0.727433 0.584970
C4    C     C_2   0.104088 0.624566 0.426785 -0.057034
C5    C     C_2   0.104101 0.375450 0.926821 -0.056811
C6    C     C_2   0.604102 0.124549 0.426805 -0.056867
C7    C     C_2   0.604092 0.875428 0.926763 -0.057192
C8    C     C_3   0.080767 0.594836 0.473582 -0.028855
C9    C     C_3   0.080775 0.405179 0.973606 -0.028851
C10   C     C_3   0.580773 0.094821 0.473576 -0.028761
C11   C     C_3   0.580777 0.905164 0.973564 -0.028531
C12   C     C_1   0.079855 0.575764 0.203055 0.102685
C13   C     C_2   0.407514 0.866729 0.792743 -0.087126
C14   C     C_1   0.079850 0.424238 0.703059 0.102633
C15   C     C_1   0.579854 0.075763 0.203040 0.102651
C16   C     C_1   0.579869 0.924236 0.703040 0.102708
C17   C     C_2   0.102747 0.599934 0.160961 -0.072467
C18   C     C_2   0.102726 0.400060 0.660945 -0.072490
C19   C     C_2   0.602741 0.099936 0.160943 -0.072599
C20   C     C_2   0.602770 0.900071 0.660959 -0.072422
C21   C     C_2   0.115974 0.626163 0.278515 0.233343
C22   C     C_2   0.115972 0.373839 0.778523 0.232807
C23   C     C_2   0.615981 0.126155 0.278523 0.233151
C24   C     C_2   0.407491 0.133253 0.292610 -0.087210
C25   C     C_2   0.615985 0.873838 0.778509 0.233800
C26   C     C_R   0.739903 0.283986 0.078187 0.019943
C27   C     C_R   0.739786 0.716083 0.575887 0.019936
C28   C     C_R   0.239863 0.783973 0.077565 0.019939
C29   C     C_R   0.239916 0.215979 0.578839 0.019958
C30   C     C_R   0.777354 0.274104 0.062331 0.050838
C31   C     C_R   0.777344 0.725875 0.562286 0.050866
C32   C     C_R   0.277343 0.774116 0.062331 0.050851
C33   C     C_R   0.277340 0.225889 0.562302 0.050796
C34   C     C_R   0.787840 0.239791 0.080472 0.020056
C35   C     C_3   0.941353 0.388315 0.770635 -0.080283
C36   C     C_R   0.787944 0.760106 0.582720 0.020047
C37   C     C_R   0.287860 0.739825 0.081100 0.020052
C38   C     C_R   0.287794 0.260229 0.579753 0.020071
C39   C     C_3   0.893892 0.520265 0.161528 0.292969
C40   C     C_3   0.893863 0.479773 0.661962 0.293391
C41   C     C_3   0.393910 0.020275 0.161486 0.293303
C42   C     C_3   0.393856 0.979772 0.661850 0.293399
C43   C     C_R   0.730740 0.318261 0.052511 -0.098538
C44   C     C_R   0.730535 0.681899 0.548079 -0.098510
C45   C     C_R   0.230673 0.818222 0.051278 -0.098536
C46   C     C_3   0.941371 0.611703 0.270641 -0.080712
C47   C     C_R   0.230765 0.181681 0.553640 -0.098552
C48   C     C_R   0.852209 0.255857 0.041855 -0.058969
C49   C     C_R   0.852370 0.743923 0.546042 -0.059034
C50   C     C_R   0.352246 0.755923 0.043048 -0.058982
C51   C     C_R   0.352162 0.244196 0.540840 -0.058881
C52   C     C_R   0.268650 0.680177 0.113205 -0.096765
C53   C     C_R   0.268459 0.319895 0.609968 -0.096790
C54   C     C_R   0.768583 0.180137 0.111975 -0.096760
C55   C     C_R   0.768873 0.819740 0.616668 -0.096738
C56   C     C_R   0.241903 0.656283 0.144556 -0.050853
C57   C     C_3   0.441349 0.888313 0.770643 -0.080303
C58   C     C_R   0.241701 0.343784 0.641258 -0.050783
C59   C     C_R   0.741834 0.156246 0.143351 -0.050840
C60   C     C_R   0.742136 0.843644 0.648026 -0.050848
C61   C     C_R   0.825826 0.231580 0.072343 -0.099165
C62   C     C_R   0.826007 0.768208 0.576693 -0.099161
C63   C     C_R   0.325868 0.731644 0.073574 -0.099171
C64   C     C_R   0.325767 0.268472 0.571203 -0.099188
C65   C     C_3   0.860060 0.543111 0.148806 -0.327559
C66   C     C_3   0.860045 0.456912 0.649065 -0.327681
C67   C     C_3   0.360069 0.043111 0.148936 -0.327865
C68   C     C_3   0.441339 0.111684 0.270564 -0.080197
C69   C     C_3   0.360034 0.956916 0.648973 -0.327600
C70   C     C_3   0.115455 0.477658 0.089640 0.499307
C71   C     C_3   0.115453 0.522341 0.589636 0.499475
C72   C     C_3   0.615454 0.977658 0.089624 0.499635
C73   C     C_3   0.615453 0.022341 0.589617 0.499408
C74   C     C_3   0.135569 0.460711 0.230810 -0.208893
C75   C     C_3   0.135568 0.539288 0.730801 -0.209000
C76   C     C_3   0.635567 0.960709 0.230792 -0.209141
C77   C     C_3   0.635566 0.039287 0.730787 -0.208993
C78   C     C_3   0.001892 0.645080 0.508041 0.329808
C79   C     C_1   0.919307 0.424642 0.981103 0.021524
C80   C     C_3   0.001945 0.354921 0.007535 0.329600
C81   C     C_3   0.501908 0.145067 0.507798 0.329611
C82   C     C_3   0.501915 0.854923 0.007768 0.329510
C83   C     C_R   0.821835 0.356740 0.967894 0.593729
C84   C     C_R   0.821727 0.643313 0.465792 0.593762
C85   C     C_R   0.321796 0.856731 0.967315 0.593750
C86   C     C_R   0.321844 0.143236 0.468359 0.593721
C87   C     C_1   0.919278 0.575340 0.480935 0.021611
C88   C     C_1   0.419294 0.924648 0.981069 0.021516
C89   C     C_3   0.994071 0.318659 0.959485 -0.327223
C90   C     C_1   0.419309 0.075357 0.481067 0.021709
C91   C     C_2   0.893819 0.402327 0.018015 -0.090741
C92   C     C_2   0.893726 0.597614 0.517618 -0.090939
C93   C     C_2   0.393785 0.902347 0.017913 -0.090816
C94   C     C_2   0.393835 0.097682 0.518042 -0.090706
C95   C     C_2   0.886363 0.371895 0.916968 0.221357
C96   C     C_2   0.886331 0.628084 0.416776 0.222236
C97   C     C_2   0.386344 0.871905 0.916920 0.221584
C98   C     C_2   0.386357 0.128106 0.416941 0.221121
C99   C     C_R   0.804662 0.298792 0.028044 -0.079913
C100  C     C_3   0.493991 0.181327 0.459828 -0.327426
C101  C     C_R   0.804643 0.701180 0.527957 -0.079877
C102  C     C_R   0.304648 0.798806 0.028034 -0.079903
C103  C     C_R   0.304650 0.201205 0.528028 -0.079989
C104  C     C_R   0.794590 0.332747 0.004512 -0.034534
C105  C     C_R   0.794479 0.667312 0.502315 -0.034581
C106  C     C_R   0.294550 0.832736 0.003908 -0.034551
C107  C     C_R   0.294598 0.167225 0.505017 -0.034493
C108  C     C_R   0.757421 0.341957 0.016395 -0.057620
C109  C     C_R   0.757220 0.658199 0.512054 -0.057631
C110  C     C_R   0.257355 0.841919 0.015183 -0.057627
C111  C     C_3   0.494047 0.818665 0.959622 -0.327351
C112  C     C_R   0.257444 0.157989 0.517439 -0.057569
C113  C     C_R   0.842085 0.289512 0.017660 -0.030527
C114  C     C_R   0.842151 0.710363 0.519639 -0.030608
C115  C     C_R   0.342095 0.789552 0.018231 -0.030548
C116  C     C_R   0.342057 0.210513 0.517154 -0.030449
C117  C     C_3   0.997942 0.650573 0.014574 0.330888
C118  C     C_3   0.997923 0.349524 0.513684 0.330564
C119  C     C_3   0.498036 0.150460 0.014024 0.330561
C120  C     C_3   0.497928 0.849517 0.513824 0.330618
C121  C     C_2   0.941635 0.420482 0.864448 -0.270507
C122  C     C_R   0.868802 0.314079 0.984323 0.593662
C123  C     C_2   0.941637 0.579525 0.364400 -0.270448
C124  C     C_2   0.441632 0.920480 0.864456 -0.270474
C125  C     C_2   0.441616 0.079509 0.364325 -0.270679
C126  C     C_2   0.060973 0.579164 0.330348 -0.266873
C127  C     C_2   0.060977 0.420848 0.830376 -0.266816
C128  C     C_2   0.560975 0.079158 0.330336 -0.266843
C129  C     C_2   0.560985 0.920837 0.830326 -0.266821
C130  C     C_R   0.212945 0.759442 0.117640 0.019838
C131  C     C_R   0.213014 0.240508 0.619072 0.019867
C132  C     C_R   0.712987 0.259453 0.118257 0.019846
C133  C     C_R   0.868851 0.685793 0.486105 0.593783
C134  C     C_R   0.712858 0.740611 0.615918 0.019824
C135  C     C_R   0.260364 0.714972 0.108235 0.019217
C136  C     C_R   0.260274 0.285070 0.606680 0.019232
C137  C     C_R   0.760337 0.214944 0.107606 0.019222
C138  C     C_R   0.760471 0.784977 0.609950 0.019223
C139  C     C_R   0.223205 0.724968 0.130028 0.051687
C140  C     C_R   0.223192 0.275026 0.629965 0.051631
C141  C     C_R   0.723212 0.224960 0.130025 0.051670
C142  C     C_R   0.723218 0.775035 0.630038 0.051690
C143  C     C_R   0.175930 0.768126 0.146953 -0.098928
C144  C     C_R   0.368807 0.814119 0.984836 0.593696
C145  C     C_R   0.176097 0.231779 0.650021 -0.098941
C146  C     C_R   0.676008 0.268152 0.148164 -0.098923
C147  C     C_R   0.675732 0.731970 0.643500 -0.098891
C148  C     C_R   0.149895 0.743883 0.183522 -0.059967
C149  C     C_R   0.150067 0.256024 0.686644 -0.059867
C150  C     C_R   0.649973 0.243908 0.184722 -0.059936
C151  C     C_R   0.649696 0.756212 0.680094 -0.059968
C152  C     C_R   0.159379 0.709769 0.192333 -0.029485
C153  C     C_R   0.159458 0.290179 0.693870 -0.029445
C154  C     C_R   0.659421 0.209780 0.192936 -0.029466
C155  C     C_R   0.368778 0.185947 0.483868 0.593598
C156  C     C_R   0.659289 0.790282 0.690648 -0.029509
C157  C     C_R   0.196038 0.700195 0.164832 -0.078021
C158  C     C_R   0.196023 0.299795 0.664767 -0.078090
C159  C     C_R   0.696044 0.200189 0.164833 -0.078031
C160  C     C_R   0.696055 0.799813 0.664860 -0.078010
C161  C     C_R   0.205565 0.665833 0.172377 -0.046902
C162  C     C_R   0.205456 0.334195 0.670705 -0.046755
C163  C     C_R   0.705534 0.165813 0.171783 -0.046869
C164  C     C_R   0.705692 0.834137 0.674127 -0.046999
C165  C     C_3   0.004692 0.686409 0.961387 -0.336616
C166  C     C_2   0.907515 0.366736 0.792715 -0.087095
C167  C     C_3   0.004617 0.313651 0.460868 -0.335832
C168  C     C_3   0.504823 0.186317 0.961219 -0.336062
C169  C     C_3   0.504632 0.813650 0.460951 -0.336029
C170  C     C_R   0.178573 0.641650 0.207785 0.605176
C171  C     C_R   0.178466 0.358376 0.706157 0.605158
C172  C     C_R   0.678542 0.141631 0.207218 0.605182
C173  C     C_R   0.678697 0.858323 0.709488 0.605162
C174  C     C_R   0.133010 0.685024 0.229066 0.584850
C175  C     C_R   0.133091 0.314927 0.730592 0.584689
C176  C     C_R   0.633051 0.185034 0.229653 0.584759
H1    H     H_    0.976496 0.633975 0.554608 0.060296
H2    H     H_    0.866246 0.432749 0.709964 0.079576
H3    H     H_    0.336366 0.293521 0.590643 0.071971
H4    H     H_    0.964127 0.437926 0.847249 0.074066
H5    H     H_    0.964114 0.562067 0.347144 0.074035
H6    H     H_    0.464127 0.937921 0.847269 0.074080
H7    H     H_    0.464094 0.062053 0.347047 0.074072
H8    H     H_    0.032786 0.569844 0.333800 0.054618
H9    H     H_    0.032808 0.430212 0.833916 0.054759
H10   H     H_    0.532795 0.069822 0.333821 0.054716
H11   H     H_    0.532802 0.930168 0.833789 0.054669
H12   H     H_    0.019337 0.633919 0.967279 0.089155
H13   H     H_    0.366318 0.067322 0.209291 0.079512
H14   H     H_    0.019203 0.366159 0.465358 0.090072
H15   H     H_    0.519298 0.133786 0.965838 0.090016
H16   H     H_    0.519216 0.866157 0.465604 0.090151
H17   H     H_    0.000992 0.650444 0.145077 -0.056699
H18   H     H_    0.001214 0.349767 0.644183 -0.056882
H19   H     H_    0.501283 0.150218 0.144522 -0.056626
H20   H     H_    0.501196 0.849747 0.644327 -0.056505
H21   H     H_    0.002333 0.687942 0.831347 0.144609
H22   H     H_    0.001804 0.311979 0.330824 0.144390
H23   H     H_    0.502055 0.187989 0.831185 0.144434
H24   H     H_    0.366239 0.932744 0.709766 0.079668
H25   H     H_    0.501831 0.811993 0.330911 0.144271
H26   H     H_    0.984010 0.703544 0.010417 0.114034
H27   H     H_    0.984172 0.296504 0.511673 0.113862
H28   H     H_    0.484405 0.203504 0.011893 0.113873
H29   H     H_    0.484189 0.796494 0.511682 0.113713
H30   H     H_    0.900718 0.514811 0.287097 0.028733
H31   H     H_    0.900580 0.485310 0.787552 0.028951
H32   H     H_    0.400780 0.014832 0.287038 0.028595
H33   H     H_    0.400592 0.985291 0.787433 0.028786
H34   H     H_    0.917520 0.533306 0.110302 0.065669
H35   H     H_    0.852068 0.548254 0.023089 0.140483
H36   H     H_    0.917553 0.466706 0.611282 0.065168
H37   H     H_    0.417515 0.033318 0.110089 0.065814
H38   H     H_    0.417532 0.966709 0.611074 0.065213
H39   H     H_    0.852166 0.451672 0.523308 0.140804
H40   H     H_    0.352038 0.048251 0.023247 0.140507
H41   H     H_    0.352135 0.951697 0.523226 0.140734
H42   H     H_    0.086387 0.468759 0.072858 -0.024278
H43   H     H_    0.086385 0.531242 0.572852 -0.024379
H44   H     H_    0.586387 0.968759 0.072827 -0.024450
H45   H     H_    0.976482 0.365917 0.054033 0.059808
H46   H     H_    0.586386 0.031241 0.572827 -0.024300
H47   H     H_    0.166074 0.464505 0.230514 0.165271
H48   H     H_    0.166073 0.535491 0.730505 0.165279
H49   H     H_    0.666072 0.964503 0.230502 0.165270
H50   H     H_    0.666072 0.035490 0.730500 0.165268
H51   H     H_    0.129714 0.433331 0.231290 0.069339
H52   H     H_    0.129715 0.566668 0.731271 0.069297
H53   H     H_    0.629711 0.933330 0.231265 0.069302
H54   H     H_    0.629714 0.066667 0.731256 0.069346
H55   H     H_    0.127501 0.471946 0.339931 0.165444
H56   H     H_    0.476477 0.134057 0.554486 0.059856
H57   H     H_    0.127500 0.528054 0.839926 0.165401
H58   H     H_    0.627499 0.971943 0.339914 0.165348
H59   H     H_    0.627497 0.028054 0.839909 0.165395
H60   H     H_    0.009428 0.631347 0.400725 -0.068733
H61   H     H_    0.009473 0.368751 0.900454 -0.068589
H62   H     H_    0.509401 0.131244 0.400670 -0.068547
H63   H     H_    0.509389 0.868776 0.900692 -0.068607
H64   H     H_    0.971829 0.682100 0.364148 0.103722
H65   H     H_    0.971992 0.317911 0.863189 0.103890
H66   H     H_    0.471904 0.182065 0.363565 0.104321
H67   H     H_    0.476471 0.865893 0.054504 0.060165
H68   H     H_    0.471923 0.817921 0.863526 0.104013
H69   H     H_    0.984257 0.695822 0.562003 0.139963
H70   H     H_    0.984599 0.304052 0.060685 0.139392
H71   H     H_    0.484510 0.195914 0.561082 0.139417
H72   H     H_    0.484642 0.804027 0.060847 0.139433
H73   H     H_    0.032946 0.694560 0.003619 0.111340
H74   H     H_    0.033036 0.305625 0.501597 0.110418
H75   H     H_    0.533246 0.194291 0.002085 0.111147
H76   H     H_    0.533048 0.805625 0.501698 0.112095
H77   H     H_    0.878375 0.405801 0.122579 0.108879
H78   H     H_    0.836456 0.530907 0.204511 0.132222
H79   H     H_    0.878175 0.594077 0.621833 0.108025
H80   H     H_    0.378312 0.905839 0.122380 0.108659
H81   H     H_    0.378422 0.094225 0.622707 0.109063
H82   H     H_    0.748670 0.367778 0.997639 0.123772
H83   H     H_    0.748401 0.632452 0.491626 0.123745
H84   H     H_    0.248584 0.867719 0.995946 0.123762
H85   H     H_    0.248706 0.132150 0.499052 0.123746
H86   H     H_    0.114347 0.642366 0.515733 0.085715
H87   H     H_    0.114372 0.357661 0.015800 0.086191
H88   H     H_    0.614369 0.142340 0.515777 0.085892
H89   H     H_    0.836374 0.469156 0.704173 0.132016
H90   H     H_    0.614344 0.857619 0.015690 0.085238
H91   H     H_    0.122039 0.752102 0.205207 0.119894
H92   H     H_    0.122289 0.247772 0.709638 0.119965
H93   H     H_    0.622146 0.252140 0.206878 0.119945
H94   H     H_    0.621752 0.748025 0.700404 0.119844
H95   H     H_    0.166133 0.793687 0.145487 0.070327
H96   H     H_    0.166393 0.206185 0.649899 0.070339
H97   H     H_    0.666241 0.293724 0.147179 0.070334
H98   H     H_    0.665836 0.706439 0.640598 0.070316
H99   H     H_    0.702878 0.327702 0.056634 0.070675
H100  H     H_    0.336487 0.030901 0.204780 0.132191
H101  H     H_    0.702608 0.672540 0.550450 0.070657
H102  H     H_    0.202791 0.827639 0.054890 0.070664
H103  H     H_    0.202909 0.172229 0.558143 0.070676
H104  H     H_    0.902918 0.344758 0.718448 0.097217
H105  H     H_    0.903013 0.655343 0.218862 0.096314
H106  H     H_    0.402932 0.844736 0.718566 0.096986
H107  H     H_    0.402877 0.155219 0.218272 0.097425
H108  H     H_    0.880852 0.247997 0.036845 0.121393
H109  H     H_    0.881075 0.751699 0.542692 0.121306
H110  H     H_    0.380907 0.748086 0.038513 0.121367
H111  H     H_    0.336377 0.969153 0.704191 0.132083
H112  H     H_    0.380797 0.252078 0.535509 0.121387
H113  H     H_    0.295566 0.670298 0.090430 0.074081
H114  H     H_    0.295294 0.329790 0.585821 0.074110
H115  H     H_    0.795465 0.170248 0.088699 0.074089
H116  H     H_    0.795883 0.829595 0.595311 0.074039
H117  H     H_    0.019302 0.693261 0.418549 0.137703
H118  H     H_    0.019545 0.306909 0.916927 0.138343
H119  H     H_    0.519447 0.193105 0.417250 0.138115
H120  H     H_    0.519503 0.806944 0.916763 0.137760
H121  H     H_    0.249968 0.630036 0.147264 0.133669
H122  H     H_    0.866300 0.567319 0.209191 0.079976
H123  H     H_    0.249683 0.370057 0.642637 0.133655
H124  H     H_    0.749868 0.129990 0.145588 0.133673
H125  H     H_    0.750292 0.869864 0.652111 0.133656
H126  H     H_    0.114018 0.599636 0.045618 0.112251
H127  H     H_    0.113970 0.400342 0.545548 0.112769
H128  H     H_    0.614000 0.099647 0.045576 0.112451
H129  H     H_    0.614067 0.900381 0.545665 0.111718
H130  H     H_    0.836446 0.206558 0.092139 0.071953
H131  H     H_    0.836698 0.793143 0.598262 0.071902
H132  H     H_    0.336507 0.706646 0.093875 0.071939
N1    N     N_R   0.858490 0.347230 0.956907 -0.425012
N2    N     N_R   0.858458 0.652738 0.456744 -0.425096
N3    N     N_R   0.358472 0.847244 0.956872 -0.425035
N4    N     N_R   0.358483 0.152771 0.456888 -0.425009
N5    N     N_R   0.142850 0.651410 0.236920 -0.432116
N6    N     N_R   0.142839 0.348582 0.736900 -0.432100
N7    N     N_R   0.642855 0.151405 0.236932 -0.432105
N8    N     N_R   0.642869 0.848599 0.736954 -0.432197
O1    O     O_2   0.072110 0.546320 0.923350 -0.486772
O2    O     O_3   0.962240 0.359883 0.458347 -0.578648
O3    O     O_3   0.462348 0.140159 0.958518 -0.578679
O4    O     O_3   0.462256 0.859879 0.458396 -0.578657
O5    O     O_3   0.958050 0.483830 0.034350 -0.494888
O6    O     O_3   0.958050 0.516170 0.534350 -0.494619
O7    O     O_3   0.458050 0.983830 0.034350 -0.494898
O8    O     O_3   0.458050 0.016170 0.534350 -0.494667
O9    O     O_2   0.812817 0.386001 0.944127 -0.594535
O10   O     O_2   0.812652 0.614126 0.440404 -0.594461
O11   O     O_2   0.312762 0.885972 0.943092 -0.594506
O12   O     O_2   0.072110 0.453680 0.423350 -0.486836
O13   O     O_2   0.312841 0.113955 0.444999 -0.594534
O14   O     O_2   0.101262 0.693371 0.253277 -0.607859
O15   O     O_2   0.101422 0.306544 0.756137 -0.607605
O16   O     O_2   0.601334 0.193395 0.254354 -0.607797
O17   O     O_2   0.601084 0.806718 0.750225 -0.608080
O18   O     O_2   0.901398 0.305970 0.980955 -0.612239
O19   O     O_2   0.901501 0.693810 0.484278 -0.612234
O20   O     O_2   0.401418 0.806036 0.981900 -0.612208
O21   O     O_2   0.401364 0.194079 0.480166 -0.612325
O22   O     O_2   0.187003 0.611892 0.214600 -0.542572
O23   O     O_2   0.572110 0.046320 0.923350 -0.486812
O24   O     O_2   0.186818 0.388166 0.711605 -0.542936
O25   O     O_2   0.686944 0.111862 0.213551 -0.542679
O26   O     O_2   0.687213 0.888050 0.717710 -0.542146
O27   O     O_3   0.042000 0.516250 0.155330 -0.492123
O28   O     O_3   0.042000 0.483750 0.655330 -0.492150
O29   O     O_3   0.542000 0.016250 0.155330 -0.492113
O30   O     O_3   0.542000 0.983750 0.655330 -0.492105
O31   O     O_3   0.012540 0.574900 0.645500 -0.475940
O32   O     O_3   0.012540 0.425100 0.145500 -0.475960
O33   O     O_3   0.512540 0.074900 0.645500 -0.475992
O34   O     O_2   0.572110 0.953680 0.423350 -0.486781
O35   O     O_3   0.512540 0.925100 0.145500 -0.475984
O36   O     O_2   0.070653 0.603531 0.797097 -0.495824
O37   O     O_2   0.070648 0.396452 0.297076 -0.496236
O38   O     O_2   0.570657 0.103539 0.797057 -0.496174
O39   O     O_2   0.570657 0.896453 0.297061 -0.495956
O40   O     O_3   0.118149 0.512816 0.106684 -0.581834
O41   O     O_3   0.118149 0.487183 0.606686 -0.581726
O42   O     O_3   0.618149 0.012815 0.106680 -0.581813
O43   O     O_3   0.618148 0.987184 0.606667 -0.581974
O44   O     O_3   0.030692 0.644302 0.625730 -0.593424
O45   O     O_3   0.885498 0.509598 0.580476 -0.629662
O46   O     O_3   0.030687 0.355701 0.125539 -0.593363
O47   O     O_3   0.530697 0.144296 0.625557 -0.593426
O48   O     O_3   0.530699 0.855698 0.125548 -0.593596
O49   O     O_2   0.928110 0.546600 0.766510 -0.445640
O50   O     O_2   0.928110 0.453400 0.266510 -0.445275
O51   O     O_2   0.428110 0.046600 0.766510 -0.445740
O52   O     O_2   0.428110 0.953400 0.266510 -0.445276
O53   O     O_3   0.987780 0.574950 0.044470 -0.487194
O54   O     O_3   0.987780 0.425050 0.544470 -0.487336
O55   O     O_3   0.487780 0.074950 0.044470 -0.487402
O56   O     O_3   0.885486 0.490389 0.080578 -0.629590
O57   O     O_3   0.487780 0.925050 0.544470 -0.487315
O58   O     O_2   0.916426 0.589553 0.969848 -0.478882
O59   O     O_2   0.916386 0.410530 0.470051 -0.478989
O60   O     O_2   0.416423 0.089561 0.969733 -0.479059
O61   O     O_2   0.416392 0.910516 0.470016 -0.478941
O62   O     O_3   0.385491 0.009607 0.580472 -0.629450
O63   O     O_3   0.385489 0.990392 0.080613 -0.629612
O64   O     O_3   0.962358 0.640141 0.958375 -0.578209
P1    P     P_3+3 0.075650 0.535480 0.098240 1.030347
P2    P     P_3+3 0.951279 0.396339 0.560681 0.958461
P3    P     P_3+3 0.451308 0.103695 0.060623 0.958231
P4    P     P_3+3 0.451283 0.896335 0.560691 0.958457
P5    P     P_3+3 0.049143 0.396356 0.134804 0.959324
P6    P     P_3+3 0.049142 0.603645 0.634839 0.959640
P7    P     P_3+3 0.549146 0.896357 0.134796 0.959281
P8    P     P_3+3 0.549147 0.103639 0.634798 0.959315
P9    P     P_3+3 0.075650 0.464520 0.598240 1.030405
P10   P     P_3+3 0.575650 0.035480 0.098240 1.030347
P11   P     P_3+3 0.575650 0.964520 0.598240 1.030175
P12   P     P_3+3 0.924520 0.535770 0.591580 0.990260
P13   P     P_3+3 0.924520 0.464230 0.091580 0.990222
P14   P     P_3+3 0.424520 0.035770 0.591580 0.990399
P15   P     P_3+3 0.424520 0.964230 0.091580 0.990206
P16   P     P_3+3 0.951315 0.603700 0.060653 0.958629

loop_
_geom_bond_atom_site_label_1
_geom_bond_atom_site_label_2
_ccdc_geom_bond_type
C70   H42   S    
C35   P2    S    
C91   C95   S    
C74   H47   S    
C129  H11   S    
O30   P11   S    
C176  N7    Am   
C99   C104  A    
C165  H26   S    
C117  O64   S    
C118  H18   S    
C55   H116  S    
C21   N5    S    
C83   O9    D    
C146  C150  A    
O3    P3    S    
C50   H110  S    
O4    P4    S    
C75   H48   S    
C92   C96   S    
C65   H35   S    
C46   P16   S    
C152  C174  A    
C56   C161  A    
C28   C45   A    
C138  C142  A    
C4    C8    S    
C54   C137  A    
C36   C62   A    
C97   N3    S    
C55   C138  A    
C38   C64   A    
C80   C89   S    
C98   N4    S    
Ba1   O5    S    
C74   H51   S    
C62   H131  S    
C123  H5    S    
C17   C21   S    
C19   C23   S    
Br4   C73   S    
C40   C66   S    
C5    C22   D    
C156  C160  A    
O58   P16   D    
C150  H93   S    
C32   C102  A    
O7    P15   S    
C90   C94   D    
C66   H39   S    
C170  O22   D    
C168  H28   S    
C100  H66   S    
C165  H73   S    
C102  C115  A    
O61   P4    D    
C70   C74   S    
C53   C136  A    
C148  C152  A    
C68   C125  S    
C166  H104  S    
C18   H127  S    
C20   H129  S    
O57   P4    S    
Ba2   O27   S    
C84   N2    Am   
C20   C25   S    
C135  C139  A    
C85   N3    Am   
C100  H71   S    
C130  C143  A    
C86   N4    Am   
C60   H125  S    
C42   C69   S    
C124  H6    S    
C125  H7    S    
C86   O13   D    
C119  C168  S    
C115  C144  A    
C42   H38   S    
Ba4   O7    S    
C42   O62   S    
C103  C116  A    
C1    H69   S    
C171  N6    Am   
C86   C107  A    
C168  H75   S    
C171  O24   D    
O56   P13   S    
C43   C108  A    
Ba2   O6    S    
C14   C127  D    
C52   C56   A    
C133  O19   D    
Ba2   O32   S    
C172  O25   D    
C134  C142  A    
Ba3   P10   S    
C81   C100  S    
C26   C132  A    
O36   P6    D    
C144  N3    Am   
C85   C106  A    
C31   C101  A    
C91   H77   S    
O52   P15   D    
C13   H106  S    
C12   C126  D    
C173  O26   D    
C34   C137  A    
C78   O44   S    
C4    C21   D    
C37   C63   A    
C83   N1    Am   
C76   H53   S    
C6    C23   D    
C8    C126  S    
C111  H72   S    
C149  H92   S    
C45   H102  S    
Ba3   O8    S    
C172  N7    Am   
C26   C43   A    
C15   C128  D    
C145  H96   S    
C108  H82   S    
C52   C135  A    
C84   O10   D    
C39   H30   S    
C77   H54   S    
O46   P5    S    
C30   C99   A    
O42   P10   S    
C1    H64   S    
C139  C157  A    
C164  C173  A    
C51   H112  S    
C9    C127  S    
C41   C67   S    
O31   P6    S    
C10   C128  S    
C167  H27   S    
C111  H120  S    
C102  C106  A    
O23   P10   D    
C44   C109  A    
C118  H14   S    
C40   H31   S    
C145  C149  A    
C54   H115  S    
C81   H56   S    
C39   O56   S    
Ba1   O28   S    
O33   P8    S    
C80   O46   S    
O2    P2    S    
C131  C140  A    
C57   P4    S    
Ba2   O12   S    
C147  C151  A    
O64   P16   S    
O44   P6    S    
C35   C121  S    
Ba3   P14   S    
Ba2   P9    S    
C45   C110  A    
C38   C136  A    
C67   H100  S    
C95   C166  D    
C133  N2    Am   
C40   O45   S    
C83   C104  A    
C64   H3    S    
C128  H10   S    
O35   P7    S    
C122  N1    Am   
C11   C129  S    
C74   H55   S    
Ba1   O31   S    
Ba4   P11   S    
C47   H103  S    
C78   H1    S    
C105  C109  A    
C67   H40   S    
C18   C22   S    
O34   P11   D    
Ba3   Ba4   S    
Ba4   O35   S    
C104  C108  A    
C57   C124  S    
C70   O40   S    
C55   C60   A    
O1    P1    D    
C41   H37   S    
C16   C20   D    
C119  H15   S    
C24   C68   S    
C15   P10   S    
C158  C162  A    
C31   C36   A    
C16   C129  D    
C82   H67   S    
C63   H132  S    
C42   H33   S    
O45   P12   S    
C5    C9    S    
C162  C171  A    
C79   C121  D    
O40   P1    S    
Ba4   P15   S    
C119  H19   S    
C52   H113  S    
Ba3   O55   S    
C29   C33   A    
C169  H76   S    
C137  C141  A    
O29   P10   S    
C27   C134  A    
C29   C47   A    
C24   H107  S    
C174  O14   D    
C175  N6    Am   
C48   C61   A    
C33   C103  A    
C93   H80   S    
C151  C156  A    
C89   H118  S    
C90   P14   S    
C114  C133  A    
C132  C141  A    
C73   C77   S    
C118  C167  S    
C87   C123  D    
C69   H41   S    
O62   P14   S    
C140  C158  A    
C141  C159  A    
C72   C76   S    
C7    C11   S    
C90   C125  D    
C117  H17   S    
C50   C115  A    
C22   N6    S    
C4    H86   S    
C5    H87   S    
C170  N5    Am   
C6    H88   S    
C50   C63   A    
C12   C17   D    
C131  C145  A    
O27   P1    S    
C120  H20   S    
O54   P2    S    
C49   C114  A    
C8    P6    S    
C94   H81   S    
C49   C62   A    
C84   C105  A    
C113  C122  A    
C51   C64   A    
C80   H45   S    
O8    P14   S    
C88   C93   D    
C157  C161  A    
Ba3   O30   S    
C14   P9    S    
C47   C112  A    
C67   H13   S    
C32   C37   A    
C39   H34   S    
Ba4   O8    S    
C77   H50   S    
C73   O43   S    
C39   C65   S    
C11   P7    S    
O60   P3    D    
C72   O42   S    
C87   C92   D    
Ba4   O52   S    
C9    P5    S    
C112  H85   S    
O5    P13   S    
C119  O3    S    
C153  C175  A    
C27   C31   A    
C120  H16   S    
C154  C176  A    
C155  N4    Am   
C169  H29   S    
C69   H111  S    
C103  C107  A    
C58   H123  S    
C48   H108  S    
C92   H79   S    
C87   P12   S    
C143  C148  A    
C72   H44   S    
C23   N7    S    
C56   H121  S    
C41   O63   S    
C109  H83   S    
Ba4   O57   S    
C110  H84   S    
Ba1   O6    S    
C176  O16   D    
C73   H46   S    
C12   P1    S    
C99   C113  A    
C16   P11   S    
C149  C153  A    
C40   H36   S    
C13   C57   S    
Ba4   O34   S    
C159  C163  A    
C122  O18   D    
C82   O48   S    
Ba3   O7    S    
C75   H57   S    
C66   H89   S    
C96   N2    S    
Ba3   O33   S    
C82   C111  S    
C71   C75   S    
C144  O20   D    
Br2   C71   S    
Ba1   P1    S    
C68   P3    S    
O39   P7    D    
O32   P5    S    
C71   O41   S    
C167  H74   S    
O37   P5    D    
C100  H119  S    
C160  C164  A    
C75   H52   S    
C14   C18   D    
C121  H4    S    
O55   P3    S    
C27   C44   A    
C37   C135  A    
C146  H97   S    
C165  H21   S    
C167  H22   S    
Br1   C70   S    
Ba4   O29   S    
C28   C130  A    
C13   C97   D    
C60   C164  A    
Br3   C72   S    
C66   H2    S    
C95   N1    S    
C6    C10   S    
O59   P2    D    
C136  C140  A    
C117  C165  S    
Ba1   O49   S    
C3    N8    Am   
O51   P14   D    
C10   P8    S    
C46   C123  S    
C41   H32   S    
Ba2   O5    S    
Ba3   O51   S    
C54   C59   A    
C168  H23   S    
C30   C34   A    
C35   C166  S    
C101  C114  A    
C126  H8    S    
C77   H59   S    
C81   H62   S    
Ba1   Ba2   S    
C169  H25   S    
C88   P15   S    
C143  H95   S    
C148  H91   S    
O28   P9    S    
C53   C58   A    
C36   C138  A    
C33   C38   A    
C120  O4    S    
O63   P15   S    
C15   C19   D    
C134  C147  A    
C79   P13   S    
C153  C158  A    
O43   P11   S    
C88   C124  D    
O48   P7    S    
C80   H61   S    
C142  C160  A    
Ba1   P12   S    
C24   C98   D    
C82   H63   S    
C43   H99   S    
C3    O17   D    
C65   H122  S    
C71   H43   S    
C2    H105  S    
C79   C91   D    
C59   H124  S    
C93   C97   S    
Ba1   O53   S    
C28   C32   A    
O49   P12   D    
C69   H24   S    
C44   H101  S    
C173  N8    Am   
C117  H12   S    
C59   C163  A    
C152  C157  A    
C34   C61   A    
C25   N8    S    
C85   O11   D    
C7    H90   S    
C81   O47   S    
C1    H117  S    
C1    C78   S    
C127  H9    S    
O38   P8    D    
C130  C139  A    
C118  O2    S    
Ba2   O50   S    
O53   P16   S    
C17   H126  S    
Ba2   P13   S    
C106  C110  A    
O12   P9    D    
C51   C116  A    
C163  C172  A    
C161  C170  A    
C65   H78   S    
Ba3   O23   S    
O6    P12   S    
C53   H114  S    
C26   C30   A    
C61   H130  S    
C58   C162  A    
O50   P13   D    
O41   P9    S    
C120  C169  S    
C101  C105  A    
C89   H65   S    
C48   C113  A    
C116  C155  A    
C147  H98   S    
C2    C96   D    
C76   H49   S    
C111  H68   S    
C155  O21   D    
C3    C156  A    
C94   C98   S    
Ba2   O54   S    
C2    C46   S    
C49   H109  S    
C150  C154  A    
C175  O15   D    
C154  C159  A    
O47   P8    S    
C78   H60   S    
C107  C112  A    
C29   C131  A    
C174  N5    Am   
C151  H94   S    
C19   H128  S    
C76   H58   S    
C7    C25   D    
Ba1   O1    S    
C132  C146  A    
C89   H70   S    
