data_mof_unit_50529.cif
_audit_creation_date              2013-03-05T15:54:07-0500
_audit_creation_method            fapswitch 2.2
_symmetry_space_group_name_H-M    P1
_symmetry_Int_Tables_number       1
_space_group_crystal_system       triclinic
_cell_length_a                    23.661411
_cell_length_b                    13.790197
_cell_length_c                    28.35608
_cell_angle_alpha                 90.04343
_cell_angle_beta                  90.094154
_cell_angle_gamma                 90.059806
_cell_volume                      9252.44163671

loop_
_atom_site_label
_atom_site_type_symbol
_atom_site_description
_atom_site_fract_x
_atom_site_fract_y
_atom_site_fract_z
_atom_type_partial_charge
O1    O     O_R   0.237900 0.735050 0.799950 -0.461018
O2    O     O_R   0.762100 0.735050 0.200050 -0.468066
O3    O     O_R   0.737900 0.235050 0.799950 -0.467506
O4    O     O_R   0.262100 0.235050 0.200050 -0.460536
O5    O     O_R   0.256160 0.936210 0.796950 -0.478426
O6    O     O_R   0.743840 0.936210 0.203050 -0.473206
O7    O     O_R   0.756160 0.436210 0.796950 -0.472365
O8    O     O_R   0.243840 0.436210 0.203050 -0.478926
C1    C     C_R   0.284239 0.005918 0.815626 0.539584
C2    C     C_R   0.715773 0.005276 0.184091 0.545477
C3    C     C_R   0.784244 0.505432 0.815870 0.546221
C4    C     C_R   0.215596 0.505399 0.184156 0.534612
O9    O     O_R   0.333710 0.029860 0.801630 -0.492499
O10   O     O_R   0.666290 0.029860 0.198370 -0.499004
O11   O     O_R   0.833710 0.529860 0.801630 -0.499872
O12   O     O_R   0.166290 0.529860 0.198370 -0.498404
O13   O     O_R   0.425340 0.901920 0.798280 -0.495495
O14   O     O_R   0.574660 0.901920 0.201720 -0.502941
O15   O     O_R   0.925340 0.401920 0.798280 -0.504307
O16   O     O_R   0.074660 0.401920 0.201720 -0.502785
C5    C     C_R   0.446151 0.823816 0.815879 0.549952
C6    C     C_R   0.554543 0.824108 0.183561 0.556712
C7    C     C_R   0.945708 0.324142 0.816322 0.555230
C8    C     C_R   0.053479 0.323685 0.184342 0.540454
O17   O     O_R   0.433530 0.738890 0.801610 -0.475518
O18   O     O_R   0.566470 0.738890 0.198390 -0.468869
O19   O     O_R   0.933530 0.238890 0.801610 -0.468319
O20   O     O_R   0.066470 0.238890 0.198390 -0.476385
O21   O     O_R   0.323650 0.665810 0.796720 -0.508953
O22   O     O_R   0.676350 0.665810 0.203280 -0.497565
O23   O     O_R   0.823650 0.165810 0.796720 -0.497273
O24   O     O_R   0.176350 0.165810 0.203280 -0.510980
C9    C     C_R   0.274822 0.675426 0.815173 0.545740
C10   C     C_R   0.725313 0.674813 0.184582 0.551651
C11   C     C_R   0.774738 0.175013 0.815504 0.551802
C12   C     C_R   0.225104 0.175396 0.184733 0.542251
O25   O     O_R   0.237790 0.735800 0.697250 -0.510447
O26   O     O_R   0.762210 0.735800 0.302750 -0.503453
O27   O     O_R   0.737790 0.235800 0.697250 -0.512557
O28   O     O_R   0.262210 0.235800 0.302750 -0.511897
O29   O     O_R   0.256050 0.936910 0.701750 -0.501723
O30   O     O_R   0.743950 0.936910 0.298250 -0.498120
O31   O     O_R   0.756050 0.436910 0.701750 -0.500812
O32   O     O_R   0.243950 0.436910 0.298250 -0.500694
C13   C     C_R   0.284638 0.006952 0.684320 0.543143
C14   C     C_R   0.715076 0.006182 0.316193 0.544736
C15   C     C_R   0.784883 0.505991 0.683719 0.545499
C16   C     C_R   0.215431 0.506904 0.315685 0.544810
O33   O     O_R   0.333600 0.030610 0.698930 -0.505061
O34   O     O_R   0.666400 0.030610 0.301070 -0.503887
O35   O     O_R   0.833600 0.530610 0.698930 -0.502217
O36   O     O_R   0.166400 0.530610 0.301070 -0.502771
O37   O     O_R   0.425240 0.902610 0.703070 -0.497316
O38   O     O_R   0.574760 0.902610 0.296930 -0.496625
O39   O     O_R   0.925240 0.402610 0.703070 -0.495858
O40   O     O_R   0.074760 0.402610 0.296930 -0.494851
C17   C     C_R   0.445598 0.825249 0.684604 0.543114
C18   C     C_R   0.554424 0.825143 0.315481 0.543006
C19   C     C_R   0.945638 0.325215 0.684586 0.543339
C20   C     C_R   0.054421 0.325164 0.315427 0.543056
O41   O     O_R   0.433420 0.739640 0.698910 -0.500609
O42   O     O_R   0.566580 0.739640 0.301090 -0.502995
O43   O     O_R   0.933420 0.239640 0.698910 -0.504840
O44   O     O_R   0.066580 0.239640 0.301090 -0.502925
O45   O     O_R   0.323550 0.666510 0.701520 -0.498259
O46   O     O_R   0.676450 0.666510 0.298480 -0.501230
O47   O     O_R   0.823550 0.166510 0.701520 -0.496182
O48   O     O_R   0.176450 0.166510 0.298480 -0.496235
C21   C     C_R   0.274317 0.674424 0.683217 0.539599
C22   C     C_R   0.725933 0.673963 0.316636 0.539625
C23   C     C_R   0.773999 0.173573 0.683489 0.541574
C24   C     C_R   0.225643 0.174618 0.316826 0.541493
Cr1   Cr    Cr6+3 0.250680 0.837130 0.748990 1.075066
Cr2   Cr    Cr6+3 0.749320 0.837130 0.251010 1.085816
Cr3   Cr    Cr6+3 0.750680 0.337130 0.748990 1.082682
Cr4   Cr    Cr6+3 0.249320 0.337130 0.251010 1.072148
Cr5   Cr    Cr6+3 0.378160 0.960100 0.750430 1.060968
Cr6   Cr    Cr6+3 0.621840 0.960100 0.249570 1.057344
Cr7   Cr    Cr6+3 0.878160 0.460100 0.750430 1.057903
Cr8   Cr    Cr6+3 0.121840 0.460100 0.249570 1.054602
Cr9   Cr    Cr6+3 0.376090 0.707720 0.749670 1.055152
Cr10  Cr    Cr6+3 0.623910 0.707720 0.250330 1.061093
Cr11  Cr    Cr6+3 0.876090 0.207720 0.749670 1.063123
Cr12  Cr    Cr6+3 0.123910 0.207720 0.250330 1.052869
O49   O     O_3   0.334980 0.834990 0.749700 -0.277338
O50   O     O_3   0.665020 0.834990 0.250300 -0.276975
O51   O     O_3   0.834980 0.334990 0.749700 -0.276229
O52   O     O_3   0.165020 0.334990 0.250300 -0.278221
C25   C     C_3   0.441186 0.886287 0.976830 0.253375
C26   C     C_3   0.554886 0.912408 0.020855 0.254466
C27   C     C_3   0.950274 0.413372 0.977957 0.256304
C28   C     C_3   0.063756 0.383943 0.022854 0.260574
C29   C     C_3   0.554467 0.894672 0.963437 0.330773
C30   C     C_3   0.444615 0.870217 0.034277 0.326096
C31   C     C_3   0.059039 0.371349 0.964958 0.311898
C32   C     C_3   0.949503 0.394275 0.035228 0.302801
C33   C     C_1   0.531338 0.832047 0.137643 0.100812
C34   C     C_1   0.471850 0.829523 0.860753 0.093852
C35   C     C_1   0.029182 0.328839 0.138922 0.108077
C36   C     C_1   0.970418 0.331782 0.861786 0.103635
C37   C     C_3   0.496372 0.833565 0.952493 -0.083530
C38   C     C_3   0.509499 0.836614 0.045038 -0.076551
C39   C     C_3   0.994324 0.335323 0.954066 -0.079740
C40   C     C_3   0.007694 0.333093 0.046740 -0.086844
C41   C     C_3   0.520680 0.725772 0.026207 0.305896
C42   C     C_3   0.502129 0.721755 0.970625 0.301519
C43   C     C_3   0.002122 0.221083 0.028173 0.306695
C44   C     C_3   0.981859 0.225218 0.972987 0.298346
C45   C     C_1   0.518942 0.836109 0.096673 0.058435
C46   C     C_1   0.486256 0.831212 0.901183 0.059016
C47   C     C_1   0.017132 0.330796 0.097929 0.096513
C48   C     C_1   0.984189 0.335013 0.902517 0.069061
C49   C     C_1   0.267875 0.638489 0.861508 0.043997
C50   C     C_1   0.732782 0.636028 0.137926 0.065886
C51   C     C_1   0.767470 0.136379 0.862256 0.064850
C52   C     C_1   0.231950 0.137633 0.138419 0.041640
C53   C     C_R   0.300498 0.537831 0.975390 0.160903
C54   C     C_R   0.702753 0.532560 0.023363 0.109454
C55   C     C_R   0.797913 0.031989 0.976753 0.104046
C56   C     C_R   0.198662 0.037102 0.024014 0.170488
C57   C     C_R   0.295396 0.525763 0.024946 0.201242
C58   C     C_R   0.697872 0.531742 0.973235 0.253066
C59   C     C_R   0.803125 0.031323 0.026883 0.245304
C60   C     C_R   0.203360 0.026885 0.974230 0.204500
C61   C     C_R   0.226506 0.656204 0.027821 0.120109
C62   C     C_R   0.767190 0.664558 0.969220 0.121789
C63   C     C_R   0.735194 0.165690 0.031239 0.125324
C64   C     C_R   0.276659 0.150397 0.972644 0.128533
C65   C     C_R   0.221574 0.654990 0.978284 0.164267
C66   C     C_R   0.766776 0.670582 0.018831 0.193557
C67   C     C_R   0.735535 0.171799 0.981657 0.195216
C68   C     C_R   0.280317 0.149266 0.022268 0.170991
C69   C     C_R   0.260953 0.599311 0.952116 -0.027661
C70   C     C_R   0.736264 0.603400 0.045706 -0.027338
C71   C     C_R   0.764834 0.103493 0.954545 -0.026421
C72   C     C_R   0.239061 0.096497 0.047853 -0.019623
C73   C     C_R   0.257907 0.584270 0.050763 -0.094237
C74   C     C_R   0.733480 0.594000 0.946457 -0.057176
C75   C     C_R   0.767980 0.093960 0.053824 -0.054608
C76   C     C_R   0.242301 0.083689 0.949021 -0.088379
C77   C     C_1   0.247968 0.565393 0.100251 0.055970
C78   C     C_1   0.746723 0.570420 0.897741 0.083277
C79   C     C_1   0.754137 0.069989 0.102395 0.081529
C80   C     C_1   0.251617 0.066651 0.899278 0.061487
C81   C     C_1   0.264770 0.617000 0.902394 0.040439
C82   C     C_1   0.735472 0.615123 0.096608 0.050428
C83   C     C_1   0.765192 0.115346 0.903600 0.051494
C84   C     C_1   0.234926 0.115135 0.097583 0.045871
C85   C     C_1   0.235082 0.542535 0.139843 0.057151
C86   C     C_1   0.762695 0.545050 0.859187 0.075506
C87   C     C_1   0.737641 0.044756 0.140828 0.074075
C88   C     C_1   0.264494 0.043879 0.859676 0.065069
C89   C     C_1   0.471713 0.834618 0.639660 0.000334
C90   C     C_1   0.529950 0.833535 0.361177 0.001781
C91   C     C_1   0.969852 0.333943 0.638863 0.002678
C92   C     C_1   0.028234 0.334170 0.360386 -0.004651
C93   C     C_R   0.521929 0.759297 0.528287 0.166521
C94   C     C_R   0.524421 0.755545 0.478520 0.169338
C95   C     C_R   0.966544 0.262629 0.520809 0.167745
C96   C     C_R   0.970181 0.266357 0.471099 0.161996
C97   C     C_R   0.488292 0.920705 0.474485 -0.160267
C98   C     C_R   0.483953 0.923191 0.523456 -0.161329
C99   C     C_R   0.022873 0.417846 0.477176 -0.164203
C100  C     C_R   0.018169 0.415420 0.526090 -0.158857
C101  C     C_R   0.500463 0.842915 0.550274 0.036445
C102  C     C_R   0.507695 0.837009 0.451984 0.039500
C103  C     C_R   0.990733 0.337860 0.547910 0.035881
C104  C     C_R   0.999328 0.343665 0.449753 0.031290
C105  C     C_1   0.516578 0.837527 0.401945 -0.024968
C106  C     C_1   0.487453 0.840825 0.599595 -0.025439
C107  C     C_1   0.012401 0.340251 0.400445 -0.029500
C108  C     C_1   0.982726 0.338437 0.598022 -0.025972
H1    H     H_    0.476531 0.983955 0.454120 0.110405
H2    H     H_    0.466850 0.987186 0.540413 0.114186
H3    H     H_    0.045945 0.476687 0.460717 0.120526
H4    H     H_    0.036148 0.473747 0.546914 0.119081
C109  C     C_1   0.266016 0.633620 0.637875 -0.011414
C110  C     C_1   0.737396 0.625502 0.359917 -0.004715
C111  C     C_1   0.762662 0.124593 0.640242 -0.015254
C112  C     C_1   0.233999 0.134524 0.362239 -0.011146
C113  C     C_R   0.225686 0.663581 0.520160 0.117781
C114  C     C_R   0.793967 0.626466 0.473893 0.115853
C115  C     C_R   0.709376 0.136054 0.525642 0.120284
C116  C     C_R   0.290311 0.138991 0.477202 0.121890
C117  C     C_R   0.223677 0.652331 0.471409 -0.108226
C118  C     C_R   0.793535 0.620496 0.522985 -0.139450
C119  C     C_R   0.709163 0.129452 0.476587 -0.110934
C120  C     C_R   0.292865 0.129463 0.526073 -0.108266
C121  C     C_R   0.284266 0.509857 0.476365 0.154632
C122  C     C_R   0.720392 0.496306 0.519849 0.157424
C123  C     C_R   0.774460 0.993451 0.479833 0.145927
C124  C     C_R   0.204139 0.039807 0.526252 0.164519
C125  C     C_R   0.287925 0.521754 0.525615 0.165810
C126  C     C_R   0.719799 0.502850 0.470080 0.152864
C127  C     C_R   0.775432 0.999703 0.529490 0.161816
C128  C     C_R   0.199972 0.051374 0.477088 0.170557
C129  C     C_R   0.257849 0.597900 0.547335 0.030801
C130  C     C_R   0.754994 0.571193 0.447580 0.053593
C131  C     C_R   0.744923 0.074277 0.552037 0.035690
C132  C     C_R   0.243716 0.099391 0.452671 0.030582
C133  C     C_R   0.252285 0.576376 0.449660 -0.021822
C134  C     C_R   0.756592 0.557677 0.545958 -0.013369
C135  C     C_R   0.742336 0.060663 0.453695 -0.021273
C136  C     C_R   0.250551 0.080140 0.550368 -0.016999
C137  C     C_1   0.243456 0.561802 0.400415 -0.060624
C138  C     C_1   0.761600 0.549551 0.596162 -0.056911
C139  C     C_1   0.737286 0.051820 0.403596 -0.060254
C140  C     C_1   0.258300 0.063795 0.599586 -0.059369
C141  C     C_1   0.261430 0.611654 0.597251 -0.025950
C142  C     C_1   0.746359 0.595042 0.398826 -0.002684
C143  C     C_1   0.753802 0.094763 0.601152 -0.028866
C144  C     C_1   0.239118 0.113133 0.402853 -0.028359
C145  C     C_1   0.232567 0.542111 0.360378 -0.009125
C146  C     C_1   0.769865 0.535620 0.637332 -0.008964
C147  C     C_1   0.729689 0.036680 0.362477 -0.008976
C148  C     C_1   0.268040 0.042645 0.639625 -0.009821
H5    H     H_    0.198791 0.702342 0.450427 0.140633
H6    H     H_    0.823095 0.663773 0.543371 0.116451
H7    H     H_    0.682282 0.177496 0.456260 0.130558
H8    H     H_    0.328439 0.159916 0.545197 0.132268
N1    N     N_R   0.426429 0.958068 0.061197 0.089243
O53   O     O_R   0.375352 0.990282 0.055410 -0.366968
O54   O     O_R   0.450039 0.982820 0.100847 -0.345431
N2    N     N_R   0.559486 0.987469 0.936325 0.087113
O55   O     O_R   0.605108 0.039106 0.940743 -0.351027
O56   O     O_R   0.531175 0.003304 0.897794 -0.350033
N3    N     N_R   0.943048 0.485169 0.063659 0.052965
O57   O     O_R   0.903354 0.545924 0.052823 -0.341847
O58   O     O_R   0.956753 0.486259 0.108119 -0.363301
N4    N     N_R   0.072580 0.462733 0.938250 0.121168
O59   O     O_R   0.115211 0.515954 0.950468 -0.328589
O60   O     O_R   0.059331 0.469775 0.893829 -0.353872
N5    N     N_R   0.175541 0.707248 0.955374 0.141953
O61   O     O_R   0.162054 0.690219 0.911639 -0.241150
O62   O     O_R   0.139935 0.758273 0.979954 -0.240461
N6    N     N_R   0.797697 0.745033 0.042628 0.137224
O63   O     O_R   0.769537 0.813448 0.063553 -0.355146
O64   O     O_R   0.848886 0.726649 0.056726 -0.198811
N7    N     N_R   0.706350 0.248341 0.958155 0.137910
O65   O     O_R   0.736021 0.319290 0.940959 -0.360210
O66   O     O_R   0.656662 0.230749 0.940414 -0.207904
N8    N     N_R   0.327071 0.198245 0.046047 0.134206
O67   O     O_R   0.340658 0.176789 0.089276 -0.244573
O68   O     O_R   0.362829 0.251198 0.022597 -0.243390
N9    N     N_2   0.538762 0.678728 0.556472 -0.526722
H9    H     H_    0.531081 0.611447 0.542003 0.241533
C149  C     C_3   0.594683 0.687862 0.576761 -0.303422
H10   H     H_    0.627209 0.687264 0.548525 0.140748
H11   H     H_    0.602645 0.626290 0.601043 0.152019
H12   H     H_    0.598401 0.756138 0.597352 0.167970
N10   N     N_2   0.544942 0.671656 0.454808 -0.521936
H13   H     H_    0.577416 0.636532 0.471874 0.241079
C150  C     C_3   0.501027 0.606623 0.438549 -0.317588
H14   H     H_    0.478997 0.573518 0.469104 0.118763
H15   H     H_    0.519920 0.548131 0.416863 0.138768
H16   H     H_    0.469866 0.645938 0.416329 0.167429
N11   N     N_2   0.938239 0.184839 0.544023 -0.516991
H17   H     H_    0.904027 0.155997 0.526348 0.250719
C151  C     C_3   0.975715 0.111953 0.563140 -0.323443
H18   H     H_    0.992968 0.066393 0.534237 0.117044
H19   H     H_    0.952443 0.065303 0.588195 0.145057
H20   H     H_    0.010933 0.145977 0.583099 0.159551
N12   N     N_2   0.947096 0.191277 0.442385 -0.527025
H21   H     H_    0.949632 0.122552 0.456434 0.239946
C152  C     C_3   0.892158 0.213397 0.422697 -0.300145
H22   H     H_    0.859698 0.214724 0.450974 0.143089
H23   H     H_    0.880495 0.157260 0.396411 0.146272
H24   H     H_    0.892850 0.284632 0.404411 0.165458
N13   N     N_2   0.195253 0.741709 0.541105 -0.510280
H25   H     H_    0.211582 0.767922 0.572328 0.256496
C153  C     C_3   0.134687 0.727641 0.542720 -0.303731
H26   H     H_    0.114243 0.792892 0.557989 0.152393
H27   H     H_    0.124253 0.663961 0.565095 0.145057
H28   H     H_    0.117428 0.716440 0.506668 0.146774
N14   N     N_2   0.833609 0.688778 0.451277 -0.514386
H29   H     H_    0.849014 0.742782 0.472948 0.261375
C154  C     C_3   0.878967 0.638718 0.427251 -0.298163
H30   H     H_    0.906603 0.692457 0.409427 0.141418
H31   H     H_    0.862094 0.588528 0.400027 0.167487
H32   H     H_    0.904786 0.597053 0.453002 0.141256
N15   N     N_2   0.672227 0.203283 0.547863 -0.506495
H33   H     H_    0.685248 0.228840 0.580243 0.263275
C155  C     C_3   0.613669 0.172897 0.548144 -0.307612
H34   H     H_    0.587506 0.228601 0.566045 0.135381
H35   H     H_    0.609100 0.103304 0.567545 0.153940
H36   H     H_    0.597711 0.163992 0.511526 0.146832
N16   N     N_2   0.334265 0.190499 0.453588 -0.508603
H37   H     H_    0.323432 0.221304 0.421745 0.260561
C156  C     C_3   0.387936 0.140555 0.451928 -0.309882
H38   H     H_    0.419913 0.187639 0.434711 0.134976
H39   H     H_    0.383737 0.072421 0.431249 0.150354
H40   H     H_    0.403115 0.123478 0.488060 0.143950
N17   N     N_2   0.311907 0.430132 0.454254 -0.505813
H41   H     H_    0.288925 0.397775 0.427608 0.257254
C157  C     C_3   0.369683 0.449495 0.440703 -0.301786
H42   H     H_    0.371150 0.507633 0.413604 0.142852
H43   H     H_    0.388818 0.382735 0.425791 0.148302
H44   H     H_    0.394937 0.471792 0.471853 0.152811
N18   N     N_2   0.685375 0.427051 0.543150 -0.498694
H45   H     H_    0.699267 0.402418 0.575450 0.259483
C158  C     C_3   0.624966 0.443540 0.540739 -0.302030
H46   H     H_    0.607395 0.451556 0.576826 0.131241
H47   H     H_    0.604348 0.380733 0.523390 0.161099
H48   H     H_    0.614519 0.509685 0.520285 0.140821
N19   N     N_2   0.804413 0.917596 0.456765 -0.523608
H49   H     H_    0.779927 0.878664 0.433301 0.274307
C159  C     C_3   0.857912 0.946585 0.436557 -0.305279
H50   H     H_    0.850909 0.993442 0.405319 0.149826
H51   H     H_    0.881555 0.881372 0.424990 0.151733
H52   H     H_    0.883949 0.986019 0.462888 0.138878
N20   N     N_2   0.161607 0.987599 0.551009 -0.516229
H53   H     H_    0.177125 0.941157 0.576378 0.260317
C160  C     C_3   0.116550 0.047776 0.568843 -0.319628
H54   H     H_    0.132652 0.096638 0.597019 0.152217
H55   H     H_    0.082870 0.000977 0.583815 0.135114
H56   H     H_    0.098171 0.092114 0.540000 0.160098
N21   N     N_2   0.319715 0.455040 0.553513 -0.508460
H57   H     H_    0.322500 0.385110 0.540799 0.284513
C161  C     C_3   0.371838 0.491519 0.573893 -0.295529
H58   H     H_    0.408595 0.452961 0.558396 0.122037
H59   H     H_    0.371466 0.478311 0.612484 0.168342
H60   H     H_    0.377437 0.570607 0.567678 0.155661
N22   N     N_2   0.688142 0.434924 0.442646 -0.513847
H61   H     H_    0.683288 0.366731 0.456987 0.281064
C162  C     C_3   0.638522 0.470645 0.418299 -0.309143
H62   H     H_    0.599824 0.441097 0.435110 0.120583
H63   H     H_    0.639715 0.446024 0.381058 0.165076
H64   H     H_    0.636228 0.551033 0.418704 0.162556
N23   N     N_2   0.801974 0.925842 0.556847 -0.502448
H65   H     H_    0.799735 0.857484 0.542168 0.268487
C163  C     C_3   0.858004 0.948716 0.573760 -0.308442
H66   H     H_    0.887788 0.954964 0.543763 0.135311
H67   H     H_    0.872935 0.889860 0.597372 0.144436
H68   H     H_    0.857747 0.017296 0.594183 0.168649
N24   N     N_2   0.152654 0.012766 0.452005 -0.509499
H69   H     H_    0.135146 0.950248 0.465605 0.278031
C164  C     C_3   0.111292 0.082588 0.435490 -0.289370
H70   H     H_    0.071072 0.073784 0.455212 0.130695
H71   H     H_    0.102863 0.069762 0.397487 0.174434
H72   H     H_    0.126100 0.158652 0.439988 0.151749
N25   N     N_2   0.444889 0.987887 0.959761 -0.484441
H73   H     H_    0.438321 0.989910 0.923832 0.285621
C165  C     C_3   0.420417 0.075932 0.978585 -0.162400
H74   H     H_    0.430534 0.137220 0.954603 0.187250
H75   H     H_    0.438449 0.097044 0.012882 0.235602
H76   H     H_    0.374382 0.070960 0.979930 0.182361
N26   N     N_2   0.536447 0.009858 0.037190 -0.487612
H77   H     H_    0.540994 0.014671 0.073270 0.286074
C166  C     C_3   0.549317 0.105346 0.018132 -0.172836
H78   H     H_    0.532410 0.161677 0.042357 0.168773
H79   H     H_    0.528365 0.119091 0.984098 0.222775
H80   H     H_    0.594866 0.118734 0.015492 0.223320
N27   N     N_2   0.970810 0.509438 0.961426 -0.476351
H81   H     H_    0.966422 0.516403 0.925374 0.280585
C167  C     C_3   0.969643 0.605360 0.982407 -0.140296
H82   H     H_    0.994174 0.655733 0.959704 0.186658
H83   H     H_    0.990573 0.608643 0.017046 0.217507
H84   H     H_    0.926170 0.633904 0.983529 0.226244
N28   N     N_2   0.063893 0.487403 0.036562 -0.479335
H85   H     H_    0.040613 0.502771 0.065800 0.280113
C168  C     C_3   0.115269 0.543797 0.041764 -0.197106
H86   H     H_    0.124333 0.559174 0.079486 0.145474
H87   H     H_    0.108533 0.614968 0.024893 0.239381
H88   H     H_    0.152499 0.506813 0.026500 0.184952
N29   N     N_2   0.601199 0.833685 0.945246 -0.425713
H89   H     H_    0.594424 0.821177 0.909896 0.285520
C169  C     C_3   0.661876 0.851503 0.949337 -0.182292
H90   H     H_    0.684269 0.800339 0.925600 0.171689
H91   H     H_    0.678827 0.834058 0.984506 0.217709
H92   H     H_    0.674769 0.924398 0.937560 0.166541
N30   N     N_2   0.408693 0.791020 0.052868 -0.430549
H93   H     H_    0.418402 0.779405 0.087787 0.282828
C170  C     C_3   0.347307 0.784944 0.050658 -0.154264
H94   H     H_    0.333305 0.725606 0.074369 0.149617
H95   H     H_    0.331688 0.763157 0.015648 0.204261
H96   H     H_    0.325934 0.850300 0.064022 0.208309
N31   N     N_2   0.098775 0.298144 0.946740 -0.487208
H97   H     H_    0.084744 0.264076 0.916863 0.301867
C171  C     C_3   0.157423 0.324623 0.937824 -0.212970
H98   H     H_    0.161106 0.364349 0.903871 0.191583
H99   H     H_    0.182808 0.257563 0.934858 0.172607
H100  H     H_    0.175674 0.370243 0.966221 0.194738
N32   N     N_2   0.902143 0.332446 0.051266 -0.421911
H101  H     H_    0.908267 0.314177 0.086048 0.293046
C172  C     C_3   0.842178 0.356251 0.047123 -0.176460
H102  H     H_    0.817838 0.310086 0.071946 0.166956
H103  H     H_    0.824817 0.337396 0.012160 0.218573
H104  H     H_    0.832313 0.431717 0.056911 0.176914
N33   N     N_2   0.611983 0.894554 0.040166 -0.473048
H105  H     H_    0.614952 0.855069 0.070624 0.291550
C173  C     C_3   0.653339 0.971270 0.043440 -0.310470
H106  H     H_    0.694212 0.938770 0.053613 0.171606
H107  H     H_    0.641457 0.024157 0.071220 0.155189
H108  H     H_    0.660268 0.006950 0.009296 0.185911
N34   N     N_2   0.388115 0.843713 0.958042 -0.487700
H109  H     H_    0.390960 0.800088 0.928872 0.280401
C174  C     C_3   0.336892 0.900486 0.953424 -0.293830
H110  H     H_    0.301462 0.852016 0.943014 0.178504
H111  H     H_    0.341865 0.955189 0.925175 0.140897
H112  H     H_    0.324675 0.934374 0.987091 0.197339
N35   N     N_2   0.116922 0.339062 0.040883 -0.486380
H113  H     H_    0.137221 0.284615 0.023380 0.314102
C175  C     C_3   0.141977 0.354650 0.087149 -0.281305
H114  H     H_    0.141551 0.285994 0.107473 0.178710
H115  H     H_    0.120240 0.410971 0.107893 0.146109
H116  H     H_    0.186753 0.376673 0.082771 0.161385
N36   N     N_2   0.892932 0.399856 0.958444 -0.480264
H117  H     H_    0.888246 0.356626 0.929377 0.292477
C176  C     C_3   0.854894 0.480976 0.953015 -0.297646
H118  H     H_    0.812533 0.451705 0.944887 0.161816
H119  H     H_    0.868245 0.528203 0.923359 0.162213
H120  H     H_    0.850696 0.523275 0.985536 0.205263
N37   N     N_R   0.447270 0.671734 0.961281 0.095586
O69   O     O_R   0.436449 0.641167 0.918705 -0.315464
O70   O     O_R   0.410316 0.651181 0.993426 -0.296449
N38   N     N_R   0.581276 0.702877 0.035616 0.071148
O71   O     O_R   0.597114 0.686324 0.078870 -0.377565
O72   O     O_R   0.619306 0.691936 0.003257 -0.334445
N39   N     N_R   0.920556 0.204710 0.964966 0.071431
O73   O     O_R   0.903187 0.189552 0.921968 -0.376949
O74   O     O_R   0.884545 0.186216 0.998140 -0.328308
N40   N     N_R   0.057775 0.173015 0.035582 0.097819
O75   O     O_R   0.072963 0.150681 0.078372 -0.320099
O76   O     O_R   0.090746 0.144892 0.001677 -0.307750
N41   N     N_R   0.543174 0.661423 0.943639 0.148074
O77   O     O_R   0.550387 0.673361 0.898530 -0.312033
O78   O     O_R   0.552650 0.574167 0.959107 -0.180263
N42   N     N_R   0.490053 0.648264 0.052748 0.140432
O79   O     O_R   0.482943 0.653869 0.098151 -0.321379
O80   O     O_R   0.491040 0.560596 0.035685 -0.205521
N43   N     N_R   0.010181 0.146553 0.945451 0.132925
O81   O     O_R   0.015766 0.152045 0.899890 -0.325598
O82   O     O_R   0.007832 0.058757 0.962167 -0.201613
N44   N     N_R   0.962748 0.158937 0.056065 0.145163
O83   O     O_R   0.955913 0.171378 0.101177 -0.316636
O84   O     O_R   0.953655 0.071209 0.040955 -0.174856
N45   N     N_2   0.347720 0.494452 0.951189 -0.402160
H121  H     H_    0.379004 0.462395 0.970999 0.349034
C177  C     C_3   0.344788 0.460623 0.902758 -0.178543
H122  H     H_    0.371604 0.395176 0.898480 0.211660
H123  H     H_    0.361705 0.517047 0.878764 0.174650
H124  H     H_    0.301009 0.440619 0.892485 0.164267
N46   N     N_2   0.679764 0.455776 0.050844 -0.439174
H125  H     H_    0.708762 0.427985 0.074333 0.276174
C178  C     C_3   0.626163 0.474780 0.073443 -0.114833
H126  H     H_    0.608291 0.405906 0.087054 0.200704
H127  H     H_    0.595623 0.505684 0.047952 0.266236
H128  H     H_    0.631939 0.524135 0.103945 0.158554
N47   N     N_2   0.820724 0.955211 0.949161 -0.443264
H129  H     H_    0.791622 0.927346 0.925731 0.273109
C179  C     C_3   0.874179 0.974762 0.926412 -0.113476
H130  H     H_    0.892084 0.906021 0.912644 0.202444
H131  H     H_    0.904717 0.005913 0.951885 0.268286
H132  H     H_    0.868269 0.024545 0.896102 0.157583
N48   N     N_2   0.151558 0.992550 0.047976 -0.398968
H133  H     H_    0.121402 0.957738 0.028000 0.347888
C180  C     C_3   0.154105 0.959842 0.096565 -0.173727
H134  H     H_    0.126213 0.895778 0.101246 0.207770
H135  H     H_    0.138087 0.017469 0.120312 0.172839
H136  H     H_    0.197577 0.938359 0.106892 0.179976
N49   N     N_R   0.329538 0.456621 0.049745 0.118016
O85   O     O_R   0.305059 0.391315 0.075744 -0.295590
O86   O     O_R   0.382833 0.474801 0.056668 -0.210227
N50   N     N_R   0.657173 0.469279 0.949715 0.177127
O87   O     O_R   0.646079 0.479903 0.905049 -0.249819
O88   O     O_R   0.624950 0.410857 0.973574 -0.182347
N51   N     N_R   0.844091 0.969442 0.050242 0.174484
O89   O     O_R   0.855591 0.980850 0.094805 -0.249181
O90   O     O_R   0.876288 0.911226 0.026269 -0.181090
N52   N     N_R   0.167944 0.960512 0.948619 0.116770
O91   O     O_R   0.191032 0.897238 0.920632 -0.295513
O92   O     O_R   0.114537 0.979587 0.943402 -0.201185
N53   N     N_R   0.204918 0.736832 0.053974 0.088837
O93   O     O_R   0.176923 0.725188 0.093005 -0.379238
O94   O     O_R   0.219511 0.823497 0.040918 -0.372507
N54   N     N_R   0.803678 0.726986 0.942048 0.063627
O95   O     O_R   0.853438 0.750403 0.957803 -0.299434
O96   O     O_R   0.789235 0.755133 0.899919 -0.390531
N55   N     N_R   0.699715 0.229417 0.058555 0.061124
O97   O     O_R   0.650602 0.255872 0.042618 -0.306618
O98   O     O_R   0.714580 0.256611 0.100762 -0.387251
N56   N     N_R   0.303364 0.226235 0.946609 0.091203
O99   O     O_R   0.336560 0.207918 0.911177 -0.375272
O100  O     O_R   0.289398 0.315061 0.956091 -0.359451

loop_
_geom_bond_atom_site_label_1
_geom_bond_atom_site_label_2
_geom_bond_distance
_ccdc_geom_bond_type
C173  H108  1.098834 S    
O4    C12   1.276079 A    
C93   C94   1.413427 A    
O25   C21   1.274308 A    
C180  H134  1.110373 S    
C53   C69   1.424893 A    
N54   O96   1.301607 A    
C164  H70   1.111210 S    
C158  H46   1.110617 S    
N18   C158  1.449085 S    
C175  H115  1.102216 S    
C125  N21   1.427808 S    
O39   C19   1.283672 A    
C174  H111  1.107074 S    
C158  H48   1.109186 S    
C153  H26   1.110035 S    
O21   C9    1.276087 A    
C118  C134  1.392849 A    
N41   O77   1.301285 A    
C25   C30   1.646029 S    
C1    O9    1.279699 A    
O44   Cr12  2.027888 S    
C27   C32   1.645514 S    
C3    O11   1.283490 A    
N7    O65   1.299370 A    
N50   O87   1.301469 A    
N47   C179  1.445962 S    
C30   N1    1.495438 S    
N8    O68   1.300982 A    
N16   C156  1.446130 S    
C11   C51   1.439638 S    
C42   N37   1.492542 S    
C113  N13   1.426222 S    
O2    C10   1.279342 A    
C79   C87   1.209468 T    
N37   O70   1.295449 A    
N9    H9    1.030070 S    
O17   Cr9   2.047527 S    
C66   C70   1.400622 A    
C123  C135  1.409540 A    
Cr7   O51   2.004278 S    
N27   C167  1.450317 S    
N27   H81   1.031930 S    
C121  N17   1.425272 S    
O31   Cr3   1.925313 S    
C70   C82   1.452441 S    
C168  H88   1.106950 S    
O16   Cr8   1.929364 S    
N22   H61   1.031210 S    
C171  H98   1.111587 S    
C94   N10   1.423804 S    
C170  H96   1.101233 S    
C29   C37   1.640643 S    
N24   C164  1.450976 S    
C37   C46   1.474458 S    
N45   H121  1.028860 S    
O13   C5    1.285582 A    
O28   Cr4   2.049557 S    
C39   C48   1.480884 S    
O12   Cr8   2.035794 S    
C61   N53   1.431205 S    
O22   Cr10  1.912942 S    
O15   C7    1.282779 A    
C2    C87   1.439298 S    
O46   Cr10  1.931235 S    
C98   C101  1.399133 A    
C3    C86   1.438345 S    
N3    O57   1.295983 A    
C57   N49   1.434234 S    
O48   C24   1.278910 A    
C179  H131  1.107044 S    
C124  C136  1.406636 A    
N4    O60   1.301261 A    
C65   C69   1.418174 A    
C68   N8    1.459436 S    
N51   O90   1.299674 A    
N56   O100  1.297153 A    
N13   C153  1.446732 S    
N33   H105  1.023687 S    
C180  H136  1.109660 S    
C53   N45   1.442399 S    
C69   C81   1.434028 S    
N32   H101  1.028200 S    
C164  H72   1.112739 S    
C26   C29   1.646249 S    
C149  H12   1.110842 S    
N12   C152  1.446776 S    
C16   C145  1.415356 S    
C19   C91   1.423479 S    
C28   N28   1.478451 S    
C25   C37   1.647456 S    
Cr12  O52   2.005724 S    
C27   C39   1.645397 S    
C151  H19   1.105914 S    
C17   O41   1.281300 A    
C55   C59   1.426661 A    
C19   O43   1.281249 A    
C63   N55   1.442100 S    
C20   O44   1.280378 A    
C121  C133  1.410010 A    
N38   O71   1.302299 A    
N15   H33   1.029820 S    
Cr8   O52   2.006138 S    
C97   C98   1.392988 A    
N29   H89   1.029275 S    
O46   C22   1.282255 A    
C95   C103  1.410871 A    
C169  H92   1.102399 S    
C96   C104  1.406902 A    
C178  H126  1.109109 S    
C44   N39   1.494545 S    
C63   C67   1.408561 A    
N46   C178  1.446020 S    
C28   C40   1.646751 S    
N24   H69   1.031457 S    
C61   C65   1.409400 A    
C16   O36   1.274337 A    
C116  N16   1.426884 S    
C30   C38   1.632466 S    
C14   C147  1.419944 S    
C29   N29   1.482980 S    
N28   H85   1.018419 S    
N48   C180  1.451255 S    
C26   N33   1.477889 S    
O27   C23   1.274679 A    
C38   C45   1.480782 S    
N11   C151  1.446213 S    
C176  H118  1.104075 S    
O31   C15   1.278640 A    
C40   C43   1.636644 S    
O32   C16   1.277962 A    
C172  H103  1.103325 S    
C149  H11   1.109655 S    
C161  H59   1.109547 S    
O47   Cr11  1.929860 S    
C166  H78   1.111798 S    
C51   C83   1.209170 T    
N39   O73   1.302695 A    
C31   N4    1.505221 S    
C99   H3    1.083852 S    
N35   H113  1.020654 S    
N43   O82   1.301709 A    
N49   O85   1.300517 A    
C27   N27   1.487023 S    
C118  H6    1.084790 S    
N1    O53   1.298244 A    
O24   C12   1.275376 A    
C177  H123  1.108885 S    
O30   C14   1.280611 A    
C150  H14   1.110138 S    
C160  H55   1.110087 S    
C117  C133  1.391948 A    
C15   C146  1.422324 S    
C59   C75   1.422611 A    
O8    Cr4   1.932813 S    
N6    O63   1.299181 A    
C110  C142  1.199510 T    
N11   H17   1.030720 S    
C54   C58   1.425983 A    
C57   C73   1.405876 A    
C162  H63   1.109422 S    
C26   C38   1.648375 S    
C28   N35   1.492301 S    
C75   C79   1.454452 S    
C104  C107  1.433248 S    
O11   Cr7   2.035793 S    
C116  C132  1.411833 A    
C89   C106  1.199247 T    
C43   C44   1.636969 S    
O27   Cr3   2.047602 S    
O3    Cr3   2.040788 S    
N5    O61   1.301170 A    
C54   C70   1.407195 A    
O8    C4    1.282554 A    
C179  H132  1.109162 S    
C7    C36   1.418491 S    
Cr5   O49   2.004278 S    
C95   N11   1.426058 S    
C154  H30   1.110354 S    
C155  H36   1.110941 S    
N23   C163  1.443585 S    
C26   N26   1.487211 S    
N4    O59   1.293497 A    
C31   C39   1.638152 S    
C156  H38   1.110431 S    
C127  C131  1.410500 A    
N25   C165  1.447711 S    
O22   C10   1.280842 A    
C4    O12   1.280432 A    
C2    O10   1.285262 A    
C93   C101  1.406243 A    
N52   O91   1.300390 A    
C122  C134  1.411913 A    
C171  H100  1.108228 S    
C120  C136  1.393286 A    
N22   C162  1.448043 S    
C178  H128  1.108390 S    
O5    C1    1.281663 A    
N17   H41   1.031162 S    
C41   N42   1.495134 S    
C96   N12   1.424557 S    
C33   C45   1.199087 T    
N43   O81   1.301143 A    
O3    C11   1.280833 A    
C68   C72   1.417915 A    
C35   C47   1.196730 T    
C128  N24   1.427731 S    
C126  N22   1.428002 S    
N7    O66   1.300540 A    
C60   N52   1.436230 S    
C176  H120  1.095507 S    
C152  H23   1.108605 S    
Cr1   O49   1.994972 S    
C72   C84   1.436700 S    
Cr3   O51   1.994972 S    
C167  H83   1.100183 S    
N56   O99   1.301074 A    
C166  H80   1.095952 S    
C71   C83   1.453983 S    
N20   C160  1.443596 S    
N40   O75   1.302164 A    
C24   C112  1.415437 S    
C12   C52   1.421977 S    
N42   O79   1.300910 A    
O26   Cr2   2.049557 S    
C37   C42   1.631485 S    
C115  N15   1.425410 S    
C5    O17   1.273831 A    
O29   C13   1.278771 A    
O28   C24   1.272768 A    
N3    O58   1.301327 A    
O14   C6    1.280785 A    
C8    O20   1.273414 A    
C25   N34   1.483631 S    
C59   N51   1.451553 S    
C150  H16   1.111041 S    
N53   O94   1.298016 A    
C9    C49   1.419254 S    
O40   Cr8   1.917726 S    
C159  H52   1.109033 S    
C165  H75   1.100260 S    
C99   C104  1.399182 A    
C64   C76   1.396980 A    
C43   N40   1.489534 S    
C80   C88   1.205516 T    
O41   Cr9   2.027741 S    
C174  H110  1.111034 S    
C157  H43   1.110060 S    
C138  C146  1.199029 T    
C126  C130  1.410597 A    
C66   N6    1.428464 S    
C62   N54   1.442847 S    
N36   C176  1.444668 S    
O5    Cr1   1.931166 S    
C130  C142  1.435641 S    
C163  H68   1.108613 S    
C123  C127  1.410792 A    
N31   C171  1.457103 S    
O29   Cr1   1.925313 S    
C179  H130  1.109658 S    
C121  C125  1.408522 A    
C25   N25   1.485217 S    
N47   H129  1.029948 S    
C154  H32   1.111935 S    
C155  H34   1.110143 S    
C133  C137  1.425647 S    
C55   N47   1.423321 S    
C93   N9    1.425865 S    
Cr9   O49   2.007501 S    
C18   O42   1.280590 A    
C153  H28   1.110824 S    
Cr11  O51   2.007501 S    
O26   C22   1.272439 A    
N37   O69   1.303378 A    
C34   C46   1.195708 T    
O20   Cr12  2.048592 S    
C180  H135  1.108719 S    
N55   O97   1.298909 A    
C165  H74   1.111326 S    
N2    O55   1.298413 A    
N44   O83   1.300892 A    
N12   H21   1.030097 S    
C122  N18   1.426986 S    
C168  H87   1.103766 S    
C124  C128  1.406631 A    
N39   O74   1.295559 A    
C170  H95   1.100229 S    
C43   N44   1.493220 S    
C42   N41   1.491352 S    
C62   C66   1.409206 A    
N30   H93   1.028780 S    
C119  C135  1.392709 A    
C156  H40   1.110632 S    
C38   C41   1.640613 S    
C173  H107  1.109833 S    
C114  C118  1.394616 A    
C49   C81   1.199201 T    
N21   C161  1.450501 S    
C18   C90   1.424801 S    
C21   C109  1.416395 S    
C91   C108  1.199580 T    
C99   C100  1.392072 A    
C30   N30   1.481071 S    
N45   C177  1.451574 S    
O42   Cr10  2.027888 S    
C137  C145  1.194741 T    
N48   H133  1.028585 S    
O18   Cr10  2.048592 S    
C177  H122  1.110481 S    
N13   H25   1.030502 S    
C27   N36   1.476008 S    
N41   O78   1.300604 A    
O34   Cr6   2.044590 S    
N54   O95   1.298998 A    
C164  H71   1.109619 S    
O6    Cr2   1.932813 S    
C120  H8    1.084603 S    
O24   Cr12  1.912942 S    
O30   Cr2   1.924055 S    
C77   C85   1.205887 T    
C159  H50   1.109153 S    
O48   Cr12  1.931235 S    
C175  H116  1.109012 S    
C58   C74   1.423056 A    
N10   H13   1.029128 S    
C74   C78   1.453667 S    
C174  H112  1.101755 S    
N26   H77   1.030637 S    
C52   C84   1.200749 T    
O37   C17   1.282716 A    
C15   O35   1.275674 A    
C61   C73   1.400082 A    
Cr10  O50   2.005724 S    
C17   C89   1.423164 S    
C55   C71   1.407985 A    
O40   C20   1.283716 A    
C90   C105  1.200286 T    
O43   Cr11  2.027741 S    
C56   C72   1.427218 A    
N38   O72   1.295065 A    
O37   Cr5   1.917843 S    
C163  H66   1.108830 S    
C20   C92   1.423785 S    
O21   Cr9   1.912773 S    
C127  N23   1.426391 S    
C115  C119  1.393915 A    
C97   H1    1.082800 S    
O45   Cr9   1.929860 S    
C95   C96   1.413315 A    
C13   O33   1.271876 A    
O13   Cr5   1.931187 S    
N8    O67   1.301149 A    
O23   Cr11  1.912773 S    
C169  H91   1.101121 S    
O15   Cr7   1.931187 S    
C158  H47   1.108093 S    
C64   N56   1.428057 S    
C36   C48   1.200314 T    
N9    C149  1.447281 S    
O23   C11   1.281192 A    
N15   C155  1.447158 S    
C157  H42   1.111500 S    
C56   N48   1.443270 S    
C94   C102  1.409287 A    
C172  H102  1.110707 S    
C101  C106  1.432827 S    
C73   C77   1.446985 S    
C4    C85   1.433918 S    
C60   C76   1.405390 A    
C100  C103  1.396108 A    
C76   C80   1.447051 S    
O6    C2    1.279891 A    
N34   H109  1.024755 S    
C103  C108  1.433893 S    
C41   C42   1.636244 S    
O1    Cr1   2.040788 S    
C78   C86   1.208907 T    
O19   Cr11  2.047527 S    
C5    C34   1.411463 S    
C160  H54   1.111381 S    
O45   C21   1.279314 A    
N6    O64   1.300113 A    
C113  C129  1.412061 A    
C100  H4    1.083663 S    
C29   N2    1.498072 S    
O47   C23   1.282129 A    
C162  H62   1.110220 S    
C171  H99   1.106461 S    
C161  H58   1.110916 S    
N17   C157  1.445313 S    
N19   H49   1.031570 S    
C6    O18   1.280060 A    
N5    O62   1.301199 A    
N33   C173  1.443178 S    
O36   Cr8   2.044590 S    
C32   N32   1.479818 S    
O38   Cr6   1.917726 S    
N20   H53   1.030910 S    
C1    C88   1.433179 S    
C155  H35   1.111831 S    
C8    C35   1.411421 S    
N23   H65   1.031459 S    
C175  H114  1.108801 S    
C114  C130  1.408347 A    
C128  C132  1.410943 A    
C151  H20   1.110002 S    
O1    C9    1.275314 A    
C173  H106  1.104344 S    
C119  H7    1.084443 S    
N25   H73   1.030737 S    
O7    C3    1.279595 A    
C132  C144  1.429411 S    
C117  H5    1.084733 S    
N14   C154  1.447668 S    
C67   C71   1.400352 A    
N29   C169  1.460733 S    
N52   O92   1.299286 A    
N10   C150  1.446515 S    
C109  C141  1.195590 T    
C111  C143  1.200053 T    
C13   C148  1.415084 S    
O39   Cr7   1.917843 S    
O32   Cr4   1.924055 S    
C23   C111  1.424563 S    
C178  H127  1.107104 S    
C53   C57   1.420486 A    
C112  C144  1.195062 T    
C167  H82   1.111284 S    
O33   Cr5   2.046689 S    
N30   C170  1.456056 S    
N36   H117  1.022656 S    
C39   C44   1.637409 S    
C7    O19   1.279590 A    
C176  H119  1.110103 S    
C152  H22   1.111407 S    
Cr4   O52   1.994915 S    
C97   C102  1.396775 A    
O2    Cr2   2.039709 S    
O14   Cr6   1.929364 S    
C172  H104  1.102197 S    
Cr6   O50   2.006138 S    
C161  H60   1.112730 S    
C140  C148  1.194537 T    
C6    C33   1.416631 S    
N40   O76   1.298398 A    
C63   C75   1.411135 A    
C64   C68   1.409762 A    
C139  C147  1.197617 T    
N35   C175  1.454502 S    
N42   O80   1.302091 A    
C157  H44   1.108737 S    
O35   Cr7   2.046689 S    
N49   O86   1.300014 A    
O9    Cr5   2.035793 S    
C32   N3    1.497892 S    
O16   C8    1.286551 A    
C50   C82   1.208152 T    
C177  H124  1.110080 S    
C67   N7    1.426966 S    
C150  H15   1.108829 S    
N18   H45   1.030548 S    
C113  C117  1.391691 A    
C22   C110  1.423687 S    
C160  H56   1.109975 S    
O7    Cr3   1.931166 S    
N19   C159  1.446466 S    
N53   O93   1.300755 A    
C135  C139  1.430541 S    
C28   C31   1.654328 S    
C115  C131  1.411993 A    
C116  C120  1.393332 A    
C65   N5    1.458684 S    
C159  H51   1.109263 S    
C162  H64   1.110007 S    
N32   C172  1.461218 S    
C58   N50   1.452379 S    
N26   C166  1.455848 S    
C169  H90   1.110348 S    
N51   O89   1.301546 A    
C54   N46   1.423283 S    
N28   C168  1.449668 S    
Cr2   O50   1.994915 S    
C163  H67   1.110196 S    
N31   H97   1.023146 S    
C136  C140  1.425464 S    
N50   O88   1.299752 A    
N14   H29   1.031060 S    
C154  H31   1.109945 S    
N16   H37   1.030316 S    
C41   N38   1.492122 S    
C151  H18   1.110836 S    
C44   N43   1.495815 S    
O38   C18   1.284556 A    
C153  H27   1.111574 S    
O25   Cr1   2.047602 S    
C62   C74   1.412559 A    
C124  N20   1.423203 S    
N2    O56   1.299391 A    
C40   C47   1.468610 S    
N44   O84   1.300698 A    
C149  H10   1.111533 S    
N55   O98   1.301694 A    
C98   H2    1.083750 S    
C10   C50   1.437870 S    
C168  H86   1.110808 S    
C14   O34   1.274085 A    
C92   C107  1.199566 T    
C123  N19   1.423547 S    
C31   N31   1.474041 S    
C32   C40   1.647922 S    
N46   H125  1.029923 S    
N1    O54   1.299851 A    
C170  H94   1.110136 S    
N34   C174  1.449368 S    
C125  C129  1.410835 A    
C156  H39   1.111438 S    
C131  C143  1.435945 S    
O10   Cr6   2.035794 S    
N21   H57   1.031492 S    
C152  H24   1.111250 S    
O4    Cr4   2.039709 S    
C129  C141  1.430293 S    
C122  C126  1.414249 A    
C167  H84   1.102250 S    
C102  C105  1.434751 S    
C166  H79   1.100882 S    
C134  C138  1.432796 S    
C165  H76   1.092069 S    
C56   C60   1.423134 A    
C114  N14   1.425006 S    
