data_mof_unit_32515.cif
_audit_creation_date              2012-12-10T17:56:20-0500
_audit_creation_method            fapswitch 2.2
_symmetry_space_group_name_H-M    P1
_symmetry_Int_Tables_number       1
_space_group_crystal_system       triclinic
_cell_length_a                    13.096258
_cell_length_b                    10.82977
_cell_length_c                    9.658067
_cell_angle_alpha                 88.767372
_cell_angle_beta                  93.678005
_cell_angle_gamma                 93.966729
_cell_volume                      1363.50177908

loop_
_atom_site_label
_atom_site_type_symbol
_atom_type_description
_atom_site_fract_x
_atom_site_fract_y
_atom_site_fract_z
_atom_type_partial_charge
C1    C     C_R   0.497430 0.262193 0.500104 0.902300
C2    C     C_R   0.490222 0.736431 0.498234 0.882310
C3    C     C_R   0.474435 0.869533 0.494168 -0.296897
C4    C     C_R   0.487557 0.127309 0.497309 -0.264158
C5    C     C_R   0.445020 0.409814 0.069197 0.172005
C6    C     C_R   0.561102 0.587518 0.929325 0.190984
C7    C     C_R   0.463323 0.399370 0.927148 0.326926
C8    C     C_R   0.557723 0.589074 0.077431 0.339501
C9    C     C_R   0.300641 0.502004 0.476743 0.829962
C10   C     C_R   0.698251 0.486951 0.522192 0.853605
C11   C     C_R   0.807483 0.451420 0.524625 -0.198636
C12   C     C_R   0.186969 0.494485 0.465019 -0.174379
C13   C     C_R   0.037868 0.461994 0.306982 0.236749
C14   C     C_R   0.956519 0.372379 0.653211 0.251362
C15   C     C_R   0.138879 0.504648 0.331031 0.206385
C16   C     C_R   0.850406 0.386706 0.640778 0.190200
C17   C     C_R   0.125718 0.461869 0.579938 0.103838
C18   C     C_R   0.867692 0.466406 0.404828 0.079965
C19   C     C_R   0.019614 0.427526 0.552819 -0.059789
C20   C     C_R   0.973880 0.447043 0.419046 -0.024360
C21   C     C_R   0.523076 0.063607 0.385936 0.186082
C22   C     C_R   0.438392 0.931981 0.607107 0.227168
C23   C     C_R   0.495581 0.938527 0.373629 0.284863
C24   C     C_R   0.430113 0.059828 0.594970 0.273436
Cu1   Cu    Cu3+1 0.500000 0.500020 0.640660 1.023098
Cu2   Cu    Cu3+1 0.500000 0.499980 0.359340 1.026140
N1    N     N_R   0.500030 0.500030 0.852080 -0.227576
N2    N     N_R   0.499970 0.499970 0.147920 -0.229056
O1    O     O_R   0.499990 0.319660 0.618740 -0.506549
O2    O     O_R   0.500010 0.680340 0.381260 -0.498585
O3    O     O_R   0.499990 0.319630 0.381170 -0.601628
O4    O     O_R   0.500010 0.680370 0.618830 -0.595372
O5    O     O_R   0.349000 0.499990 0.599490 -0.582699
O6    O     O_R   0.651000 0.500010 0.400510 -0.575934
O7    O     O_R   0.348990 0.499960 0.361920 -0.559112
O8    O     O_R   0.651010 0.500040 0.638080 -0.570124
C25   C     C_3   0.824660 0.516514 0.266937 -0.361136
C26   C     C_3   0.766457 0.413925 0.179161 -0.549563
H1    H     H_    0.796925 0.322370 0.204167 0.296135
H2    H     H_    0.683568 0.405825 0.194236 0.263205
H3    H     H_    0.775229 0.433174 0.067568 0.248337
H4    H     H_    0.780227 0.595298 0.285262 0.238182
H5    H     H_    0.884552 0.564374 0.205732 0.221777
C27   C     C_3   0.165531 0.491163 0.728776 -0.370882
C28   C     C_3   0.189603 0.630078 0.746927 -0.648655
H6    H     H_    0.227123 0.647328 0.851730 0.289782
H7    H     H_    0.240700 0.669449 0.667880 0.265934
H8    H     H_    0.117470 0.678747 0.736870 0.251813
H9    H     H_    0.108080 0.467220 0.805432 0.251204
H10   H     H_    0.231850 0.437064 0.761870 0.243407
Br1   Br    Br    0.764729 0.301302 0.772476 -0.361199
Br2   Br    Br    0.199540 0.600472 0.181469 -0.426452
Br3   Br    Br    0.003122 0.390562 0.126910 -0.457593
Br4   Br    Br    0.009889 0.247667 0.779580 -0.345830
Br5   Br    Br    0.609723 0.137959 0.249053 -0.391413
Br6   Br    Br    0.394661 0.850473 0.774513 -0.382733
Br7   Br    Br    0.435020 0.886856 0.195356 -0.281346
Br8   Br    Br    0.318530 0.132092 0.677991 -0.399727
C29   C     C_3   0.371967 0.310518 0.130450 -0.333599
C30   C     C_3   0.269888 0.294378 0.044302 -0.711357
H11   H     H_    0.235896 0.384642 0.026315 0.278303
H12   H     H_    0.280760 0.253453 0.942579 0.291118
H13   H     H_    0.215321 0.231182 0.099929 0.287525
H14   H     H_    0.407322 0.220313 0.137177 0.261263
H15   H     H_    0.352563 0.330046 0.235361 0.253364
C31   C     C_3   0.641123 0.677662 0.864313 -0.282113
C32   C     C_3   0.752250 0.645662 0.898314 -0.800883
H16   H     H_    0.763412 0.551185 0.863940 0.280001
H17   H     H_    0.775943 0.652541 0.009581 0.275683
H18   H     H_    0.804688 0.711024 0.841839 0.259008
H19   H     H_    0.636683 0.681619 0.752631 0.253371
H20   H     H_    0.630755 0.773945 0.895155 0.252485
Br9   Br    Br    0.511077 0.239728 0.893463 -0.328485
Br10  Br    Br    0.635275 0.721687 0.175413 -0.450956

loop_
_geom_bond_atom_site_label_1
_geom_bond_atom_site_label_2
_ccdc_geom_bond_type
C12   C17   A    
C25   H5    S    
C9    O5    A    
C16   Br1   S    
C29   C30   S    
C25   C26   S    
C11   C18   A    
Cu1   N1    S    
C5    N2    A    
C6    N1    A    
C11   C16   A    
Cu2   N2    S    
C31   H19   S    
C12   C15   A    
C1    O3    A    
C2    O2    A    
C32   H18   S    
C1    C4    S    
Cu1   O4    S    
C8    Br10  S    
C2    C3    S    
C17   C27   S    
C7    N1    A    
Cu2   O3    S    
C7    Br9   S    
C15   Br2   S    
C29   H15   S    
C30   H12   S    
C26   H2    S    
C4    C21   A    
C29   H14   S    
C26   H3    S    
C30   H13   S    
C6    C8    A    
C14   C19   A    
C22   C24   A    
C2    O4    A    
C17   C19   A    
C18   C25   S    
Cu2   O2    S    
C13   Br3   S    
C28   H7    S    
C13   C15   A    
Cu1   O1    S    
C26   H1    S    
C4    C24   A    
C9    C12   S    
C14   C16   A    
C1    O1    A    
C8    N2    A    
C10   C11   S    
C5    C29   S    
Cu1   O8    S    
C9    O7    A    
C32   H16   S    
C10   O6    A    
C24   Br8   S    
Cu2   O7    S    
C6    C31   S    
C31   C32   S    
C27   C28   S    
C18   C20   A    
C21   Br5   S    
C28   H8    S    
C27   H10   S    
C25   H4    S    
C5    C7    A    
C3    C22   A    
C10   O8    A    
C23   Br7   S    
C13   C20   A    
C14   Br4   S    
Cu1   Cu2   S    
C28   H6    S    
C22   Br6   S    
C3    C23   A    
C21   C23   A    
Cu2   O6    S    
C27   H9    S    
C31   H20   S    
C19   C20   A    
Cu1   O5    S    
C30   H11   S    
C32   H17   S    
