data_mof_unit_65439.cif
_audit_creation_date              2013-03-05T16:04:41-0500
_audit_creation_method            fapswitch 2.2
_symmetry_space_group_name_H-M    P1
_symmetry_Int_Tables_number       1
_space_group_crystal_system       triclinic
_cell_length_a                    21.474127
_cell_length_b                    21.4763
_cell_length_c                    55.681336
_cell_angle_alpha                 89.872688
_cell_angle_beta                  90.007918
_cell_angle_gamma                 90.181122
_cell_volume                      25679.1935337

loop_
_atom_site_label
_atom_site_type_symbol
_atom_site_description
_atom_site_fract_x
_atom_site_fract_y
_atom_site_fract_z
_atom_type_partial_charge
O1    O     O_R   0.999980 0.092630 0.020130 -0.633767
O2    O     O_R   0.907370 0.999980 0.020130 -0.631005
O3    O     O_R   0.000020 0.907370 0.020130 -0.632262
O4    O     O_R   0.092630 0.000020 0.020130 -0.631959
O5    O     O_R   0.499980 0.592630 0.520130 -0.631139
O6    O     O_R   0.407370 0.499980 0.520130 -0.631061
O7    O     O_R   0.500020 0.407370 0.520130 -0.631157
O8    O     O_R   0.592630 0.500020 0.520130 -0.631097
O9    O     O_R   0.999950 0.092690 0.979910 -0.619573
O10   O     O_R   0.907310 0.999950 0.979910 -0.621712
O11   O     O_R   0.000050 0.907310 0.979910 -0.621442
O12   O     O_R   0.092690 0.000050 0.979910 -0.623072
O13   O     O_R   0.499950 0.592690 0.479910 -0.622928
O14   O     O_R   0.407310 0.499950 0.479910 -0.623220
O15   O     O_R   0.500050 0.407310 0.479910 -0.623061
O16   O     O_R   0.592690 0.500050 0.479910 -0.623133
C1    C     C_R   0.000377 0.121408 0.000036 0.867722
C2    C     C_R   0.878668 0.997011 0.000035 0.868583
C3    C     C_R   0.000589 0.878588 0.000079 0.866300
C4    C     C_R   0.121333 0.002977 0.000034 0.864967
C5    C     C_R   0.496777 0.621295 0.500015 0.868613
C6    C     C_R   0.378675 0.496909 0.500034 0.868292
C7    C     C_R   0.503196 0.378704 0.500056 0.868403
C8    C     C_R   0.621328 0.503050 0.500033 0.868331
H1    H     H_    0.913970 0.442261 0.879582 0.149339
H2    H     H_    0.449298 0.913968 0.878747 0.154973
H3    H     H_    0.083672 0.548022 0.878035 0.149526
H4    H     H_    0.550708 0.085929 0.878542 0.155890
H5    H     H_    0.413423 0.050361 0.378722 0.155406
H6    H     H_    0.949353 0.414660 0.378630 0.155973
H7    H     H_    0.585085 0.949518 0.378551 0.156196
H8    H     H_    0.050814 0.586595 0.378697 0.155999
C9    C     C_R   0.521834 0.949445 0.161387 0.513041
C10   C     C_R   0.049637 0.526085 0.161244 0.511103
C11   C     C_R   0.470465 0.047757 0.161235 0.511695
C12   C     C_R   0.950239 0.476184 0.161299 0.511207
C13   C     C_R   0.037248 0.458947 0.661180 0.511794
C14   C     C_R   0.550138 0.023069 0.661310 0.513169
C15   C     C_R   0.945659 0.521319 0.661247 0.512843
C16   C     C_R   0.451607 0.971483 0.661323 0.511980
N1    N     N_R   0.496657 0.998815 0.149238 -0.351281
N2    N     N_R   0.999958 0.501065 0.149201 -0.353119
N3    N     N_R   0.993235 0.492921 0.649252 -0.354196
N4    N     N_R   0.500686 0.997672 0.649243 -0.351389
Zn1   Zn    Zn3+2 0.000000 1.000000 0.026880 0.927434
Zn2   Zn    Zn3+2 0.500000 0.500000 0.526880 0.930030
Zn3   Zn    Zn3+2 0.000000 1.000000 0.973170 0.985421
Zn4   Zn    Zn3+2 0.500000 0.500000 0.473170 0.980133
H9    H     H_    0.567451 0.859377 0.189708 0.190651
H10   H     H_    0.139959 0.572073 0.189391 0.190380
H11   H     H_    0.420674 0.135794 0.189284 0.198727
H12   H     H_    0.859830 0.430495 0.189539 0.190417
H13   H     H_    0.107727 0.384905 0.688497 0.189151
H14   H     H_    0.640350 0.069129 0.689484 0.190922
H15   H     H_    0.852627 0.561935 0.688951 0.189504
H16   H     H_    0.363322 0.921714 0.689524 0.199169
O17   O     O_2   0.548780 0.902500 0.149152 -0.568897
O18   O     O_2   0.097305 0.551863 0.148892 -0.567891
O19   O     O_2   0.444323 0.095005 0.148830 -0.568130
O20   O     O_2   0.902597 0.450290 0.149006 -0.567953
O21   O     O_2   0.083273 0.430791 0.648808 -0.566098
O22   O     O_2   0.597208 0.050034 0.648991 -0.568189
O23   O     O_2   0.901521 0.552490 0.648883 -0.567255
O24   O     O_2   0.404253 0.945163 0.649000 -0.567064
C17   C     C_R   0.494874 0.998104 0.199204 -0.056942
C18   C     C_R   0.999901 0.501290 0.199167 -0.056908
C19   C     C_R   0.988088 0.484539 0.699084 -0.055416
C20   C     C_R   0.501339 0.996240 0.699211 -0.056941
C21   C     C_R   0.042391 0.461991 0.838385 0.517264
C22   C     C_R   0.556158 0.999366 0.838301 0.515627
C23   C     C_R   0.952240 0.526526 0.838535 0.515718
C24   C     C_R   0.444926 0.999131 0.838078 0.511215
C25   C     C_R   0.498139 0.943647 0.338364 0.515515
C26   C     C_R   0.055640 0.501087 0.338211 0.514579
C27   C     C_R   0.498182 0.054866 0.337998 0.511305
C28   C     C_R   0.944423 0.500875 0.338228 0.514617
C29   C     C_R   0.036948 0.452554 0.762457 0.053442
C30   C     C_R   0.557883 0.005802 0.762432 0.051576
C31   C     C_R   0.942970 0.518717 0.762619 0.053149
C32   C     C_R   0.445114 0.986528 0.762355 0.042063
C33   C     C_R   0.504188 0.941706 0.262500 0.051800
C34   C     C_R   0.056432 0.510538 0.262379 0.053860
C35   C     C_R   0.485179 0.054387 0.262272 0.042247
C36   C     C_R   0.943427 0.492154 0.262403 0.053783
C37   C     C_3   0.215764 0.030925 0.023501 -0.450329
C38   C     C_3   0.003263 0.216213 0.025738 -0.427031
C39   C     C_3   0.784255 0.968789 0.023493 -0.450304
C40   C     C_3   0.007330 0.783515 0.025716 -0.437179
C41   C     C_3   0.715748 0.531270 0.523449 -0.448254
C42   C     C_3   0.468516 0.715411 0.523445 -0.447937
C43   C     C_3   0.284287 0.468078 0.523381 -0.448979
C44   C     C_3   0.531058 0.284324 0.523605 -0.448292
H17   H     H_    0.196579 0.006245 0.039476 0.201700
H18   H     H_    0.043775 0.196533 0.035628 0.185259
H19   H     H_    0.803464 0.993263 0.039470 0.201580
H20   H     H_    0.969359 0.801313 0.037427 0.191398
H21   H     H_    0.696522 0.506822 0.539469 0.201960
H22   H     H_    0.493022 0.696271 0.539437 0.201730
H23   H     H_    0.303574 0.492052 0.539457 0.202113
H24   H     H_    0.506226 0.303252 0.539524 0.201295
H25   H     H_    0.200950 0.080419 0.024946 0.159972
H26   H     H_    0.960673 0.202036 0.035795 0.178274
H27   H     H_    0.799054 0.919272 0.024931 0.160910
H28   H     H_    0.052089 0.799580 0.033726 0.175162
H29   H     H_    0.700979 0.580799 0.524795 0.163954
H30   H     H_    0.418992 0.700306 0.524858 0.164048
H31   H     H_    0.299005 0.418497 0.524602 0.163617
H32   H     H_    0.580538 0.299458 0.525160 0.164036
C45   C     C_3   0.287606 0.027476 0.023414 -0.158305
C46   C     C_3   0.007041 0.287948 0.024865 -0.171627
C47   C     C_3   0.712415 0.972266 0.023411 -0.158027
C48   C     C_3   0.006536 0.711680 0.024933 -0.160138
C49   C     C_3   0.787589 0.527744 0.523382 -0.160967
C50   C     C_3   0.472015 0.787274 0.523373 -0.158529
C51   C     C_3   0.212450 0.471692 0.523339 -0.160445
C52   C     C_3   0.527635 0.212440 0.523496 -0.158286
H33   H     H_    0.305696 0.076048 0.025031 0.177493
H34   H     H_    0.967109 0.306634 0.035428 0.157867
H35   H     H_    0.694309 0.923684 0.025037 0.177911
H36   H     H_    0.052082 0.694887 0.032049 0.169323
H37   H     H_    0.805723 0.576312 0.524940 0.179299
H38   H     H_    0.423450 0.805097 0.524993 0.179730
H39   H     H_    0.194267 0.423110 0.524828 0.179376
H40   H     H_    0.576193 0.194635 0.525210 0.179319
H41   H     H_    0.195890 0.907728 0.014128 0.138138
H42   H     H_    0.101175 0.200078 0.995923 0.124453
H43   H     H_    0.804105 0.092099 0.014124 0.138299
H44   H     H_    0.898985 0.802724 0.000760 0.125665
H45   H     H_    0.695908 0.407975 0.514302 0.138323
H46   H     H_    0.591786 0.696400 0.514131 0.138232
H47   H     H_    0.304069 0.591600 0.514512 0.138896
H48   H     H_    0.407948 0.303450 0.513969 0.137788
H49   H     H_    0.299629 0.902748 0.011025 0.110071
H50   H     H_    0.100532 0.303097 0.990036 0.118957
H51   H     H_    0.700369 0.097139 0.011002 0.110227
H52   H     H_    0.898288 0.699062 0.998164 0.117165
H53   H     H_    0.799638 0.402872 0.511155 0.110873
H54   H     H_    0.596870 0.800103 0.510967 0.110651
H55   H     H_    0.200346 0.596871 0.511313 0.111044
H56   H     H_    0.402981 0.199779 0.510821 0.110849
C53   C     C_3   0.211016 0.934184 0.997902 -0.476535
C54   C     C_3   0.058385 0.212848 0.985751 -0.469462
C55   C     C_3   0.788983 0.065834 0.997895 -0.476326
C56   C     C_3   0.938183 0.787677 0.989043 -0.471647
C57   C     C_3   0.711001 0.434224 0.498021 -0.477324
C58   C     C_3   0.565470 0.711409 0.497883 -0.476940
C59   C     C_3   0.289009 0.565792 0.498166 -0.477342
C60   C     C_3   0.434542 0.288613 0.497794 -0.476834
C61   C     C_3   0.214266 0.040424 0.978087 -0.370022
C62   C     C_3   0.940423 0.212306 0.987187 -0.438118
C63   C     C_3   0.785714 0.959821 0.978081 -0.369723
C64   C     C_3   0.055396 0.787559 0.984198 -0.378260
C65   C     C_3   0.714282 0.540242 0.478024 -0.367409
C66   C     C_3   0.459364 0.714123 0.478034 -0.367464
C67   C     C_3   0.285683 0.460293 0.477940 -0.367061
C68   C     C_3   0.540986 0.286138 0.478218 -0.367352
C69   C     C_3   0.189388 0.002460 0.999937 0.074986
C70   C     C_3   0.000545 0.189471 0.999802 0.084613
C71   C     C_3   0.810612 0.997533 0.999931 0.073060
C72   C     C_3   0.000494 0.810514 0.999909 0.070764
C73   C     C_3   0.689383 0.502529 0.499936 0.071396
C74   C     C_3   0.497189 0.689350 0.499892 0.070764
C75   C     C_3   0.310622 0.497436 0.499931 0.071639
C76   C     C_3   0.502788 0.310651 0.499981 0.070955
H57   H     H_    0.198795 0.017996 0.961081 0.235460
H58   H     H_    0.940350 0.196549 0.968164 0.214510
H59   H     H_    0.801163 0.982453 0.961074 0.235429
H60   H     H_    0.049548 0.804878 0.965465 0.228196
H61   H     H_    0.698839 0.517610 0.461054 0.234881
H62   H     H_    0.481930 0.698930 0.461032 0.234885
H63   H     H_    0.301067 0.483389 0.461018 0.234994
H64   H     H_    0.518737 0.301566 0.461157 0.234925
H65   H     H_    0.194482 0.088297 0.978279 0.135593
H66   H     H_    0.898646 0.191252 0.995895 0.148023
H67   H     H_    0.805505 0.911949 0.978269 0.137776
H68   H     H_    0.100121 0.807076 0.991029 0.134439
H69   H     H_    0.694490 0.588114 0.478129 0.143049
H70   H     H_    0.411500 0.694004 0.478211 0.143142
H71   H     H_    0.305498 0.412430 0.477929 0.143188
H72   H     H_    0.588858 0.306225 0.478530 0.142776
C77   C     C_3   0.310455 0.999772 0.998966 0.026769
C78   C     C_3   0.000164 0.310591 0.998245 0.025836
C79   C     C_3   0.689544 0.000236 0.998960 0.026190
C80   C     C_3   0.000264 0.689446 0.998297 0.025286
C81   C     C_3   0.810450 0.499796 0.498975 0.024691
C82   C     C_3   0.499863 0.810441 0.498929 0.024238
C83   C     C_3   0.189554 0.500210 0.498983 0.024422
C84   C     C_3   0.500140 0.189574 0.498983 0.024276
C85   C     C_3   0.282584 0.932048 0.995897 0.216559
C86   C     C_3   0.055879 0.284623 0.982813 0.179873
C87   C     C_3   0.717413 0.067992 0.995882 0.216318
C88   C     C_3   0.938264 0.715973 0.987214 0.196061
C89   C     C_3   0.782564 0.432053 0.495997 0.217020
C90   C     C_3   0.567607 0.782960 0.495852 0.217590
C91   C     C_3   0.217449 0.568017 0.496119 0.216824
C92   C     C_3   0.432438 0.217086 0.495763 0.217576
C93   C     C_3   0.285970 0.044456 0.978798 -0.098950
C94   C     C_3   0.936436 0.283895 0.988859 -0.087551
C95   C     C_3   0.714012 0.955770 0.978796 -0.098977
C96   C     C_3   0.058543 0.715816 0.984478 -0.091732
C97   C     C_3   0.785985 0.544300 0.478744 -0.099141
C98   C     C_3   0.455270 0.785817 0.478764 -0.099188
C99   C     C_3   0.213983 0.456173 0.478674 -0.099241
C100  C     C_3   0.545022 0.214448 0.478926 -0.099319
H73   H     H_    0.298777 0.093348 0.983496 0.145356
H74   H     H_    0.900127 0.294862 0.002540 0.164276
H75   H     H_    0.701217 0.906826 0.983502 0.146986
H76   H     H_    0.101647 0.702358 0.994389 0.148423
H77   H     H_    0.798775 0.593236 0.483383 0.150307
H78   H     H_    0.406352 0.798261 0.483477 0.150417
H79   H     H_    0.201233 0.407128 0.483239 0.150234
H80   H     H_    0.593867 0.201906 0.483737 0.150405
H81   H     H_    0.188162 0.911074 0.982340 0.212182
H82   H     H_    0.062481 0.188317 0.968323 0.235599
H83   H     H_    0.811838 0.089128 0.982337 0.212911
H84   H     H_    0.929902 0.809897 0.971282 0.227187
H85   H     H_    0.688114 0.410917 0.482510 0.211375
H86   H     H_    0.588732 0.688768 0.482342 0.211715
H87   H     H_    0.311925 0.589517 0.482717 0.210917
H88   H     H_    0.411544 0.311418 0.482189 0.212114
C101  C     C_R   0.527347 0.048408 0.086000 -0.217897
C102  C     C_R   0.951779 0.529749 0.085724 -0.219835
C103  C     C_R   0.470231 0.950713 0.085654 -0.216973
C104  C     C_R   0.048268 0.471179 0.085874 -0.223488
C105  C     C_R   0.006576 0.553771 0.586626 -0.217840
C106  C     C_R   0.451460 0.027599 0.585944 -0.216954
C107  C     C_R   0.987675 0.442299 0.585462 -0.212460
C108  C     C_R   0.548891 0.970630 0.585715 -0.216340
H89   H     H_    0.874363 0.591290 0.810205 0.194439
H90   H     H_    0.343741 0.997323 0.809242 0.192177
H91   H     H_    0.128998 0.410907 0.809796 0.193388
H92   H     H_    0.658089 0.999990 0.809878 0.193769
H93   H     H_    0.496376 0.155942 0.309034 0.191733
H94   H     H_    0.842833 0.499836 0.309660 0.193023
H95   H     H_    0.498293 0.841635 0.310070 0.193289
H96   H     H_    0.157152 0.502554 0.309613 0.192972
C109  C     C_R   0.499226 0.999680 0.073219 -0.034939
C110  C     C_R   0.000009 0.500303 0.073199 -0.034226
C111  C     C_R   0.998117 0.498836 0.573365 -0.041325
C112  C     C_R   0.500111 0.999424 0.573221 -0.035049
C113  C     C_R   0.497528 0.999144 0.123461 0.298836
C114  C     C_R   0.000017 0.500871 0.123428 0.300455
C115  C     C_R   0.994770 0.495318 0.623571 0.308603
C116  C     C_R   0.500445 0.998258 0.623466 0.298602
C117  C     C_R   0.951023 0.466136 0.889077 -0.144415
C118  C     C_R   0.471253 0.951458 0.888641 -0.128059
C119  C     C_R   0.047009 0.525358 0.888207 -0.134241
C120  C     C_R   0.528617 0.048570 0.888527 -0.126602
C121  C     C_R   0.450941 0.028551 0.388623 -0.128000
C122  C     C_R   0.971387 0.451995 0.388586 -0.127205
C123  C     C_R   0.547883 0.971509 0.388528 -0.126437
C124  C     C_R   0.028784 0.549095 0.388623 -0.127126
C125  C     C_R   0.951238 0.467060 0.914155 0.060580
C126  C     C_R   0.469879 0.951479 0.913762 0.030554
C127  C     C_R   0.048162 0.526948 0.913284 0.047364
C128  C     C_R   0.529776 0.048780 0.913657 0.029880
C129  C     C_R   0.451207 0.029991 0.413742 0.030512
C130  C     C_R   0.970108 0.451700 0.413709 0.030294
C131  C     C_R   0.548326 0.970408 0.413660 0.029978
C132  C     C_R   0.030055 0.548979 0.413746 0.030141
C133  C     C_R   0.999790 0.498065 0.926512 0.001811
C134  C     C_R   0.499839 0.000144 0.926472 -0.084424
C135  C     C_R   0.499889 0.000198 0.426466 -0.084158
C136  C     C_R   0.000067 0.500243 0.426485 -0.084319
C137  C     C_R   0.998568 0.495287 0.876148 0.274643
C138  C     C_R   0.500034 0.999919 0.876029 0.254030
C139  C     C_R   0.499191 0.999888 0.376021 0.253825
C140  C     C_R   0.000078 0.500653 0.376053 0.253357
O25   O     O_2   0.087119 0.431514 0.850691 -0.542408
O26   O     O_2   0.610115 0.998306 0.850729 -0.556293
O27   O     O_2   0.910081 0.559976 0.850980 -0.542980
O28   O     O_2   0.390652 0.001156 0.850270 -0.556909
O29   O     O_2   0.497022 0.889730 0.350861 -0.556755
O30   O     O_2   0.109770 0.499454 0.350518 -0.556838
O31   O     O_2   0.500430 0.109183 0.350120 -0.557093
O32   O     O_2   0.890327 0.502360 0.350551 -0.556600
C141  C     C_R   0.527098 0.047765 0.111006 -0.101141
C142  C     C_R   0.952175 0.530626 0.110718 -0.102336
C143  C     C_R   0.468790 0.950825 0.110644 -0.101696
C144  C     C_R   0.047877 0.470864 0.110872 -0.100225
C145  C     C_R   0.005047 0.551939 0.611653 -0.102597
C146  C     C_R   0.452004 0.027611 0.610950 -0.100860
C147  C     C_R   0.985797 0.440664 0.610387 -0.107194
C148  C     C_R   0.548677 0.969456 0.610708 -0.101121
H97   H     H_    0.549903 0.085025 0.120728 0.151418
H98   H     H_    0.915315 0.554432 0.120234 0.150802
H99   H     H_    0.445305 0.913374 0.120074 0.151426
H100  H     H_    0.084731 0.447260 0.120511 0.150991
H101  H     H_    0.012063 0.594344 0.621796 0.146836
H102  H     H_    0.414814 0.050462 0.620625 0.151470
H103  H     H_    0.977321 0.396872 0.619518 0.145065
H104  H     H_    0.585987 0.946137 0.620188 0.151521
H105  H     H_    0.550326 0.086341 0.076656 0.161580
H106  H     H_    0.914457 0.552921 0.076179 0.162401
H107  H     H_    0.447810 0.913003 0.076042 0.161943
H108  H     H_    0.085599 0.447818 0.076447 0.161321
H109  H     H_    0.014738 0.597895 0.577699 0.166129
H110  H     H_    0.413678 0.050437 0.576553 0.161947
H111  H     H_    0.980548 0.399317 0.575692 0.167546
H112  H     H_    0.586543 0.948182 0.576150 0.162167
C149  C     C_R   0.990737 0.486450 0.775111 0.053524
C150  C     C_R   0.501369 0.996583 0.774984 0.073783
C151  C     C_R   0.495139 0.998217 0.274977 0.073736
C152  C     C_R   0.999946 0.501310 0.274983 0.055462
N5    N     N_R   0.997565 0.494338 0.850466 -0.349170
N6    N     N_R   0.500382 0.999576 0.850254 -0.345934
N7    N     N_R   0.498594 0.999456 0.350245 -0.345877
N8    N     N_R   0.000048 0.500882 0.350281 -0.346239
O33   O     O_R   0.500000 0.052340 0.035630 -0.619310
O34   O     O_R   0.947660 0.500000 0.035630 -0.623220
O35   O     O_R   0.500000 0.947660 0.035630 -0.619609
O36   O     O_R   0.052340 0.500000 0.035630 -0.619506
O37   O     O_R   0.000000 0.552340 0.535630 -0.621895
O38   O     O_R   0.447660 0.000000 0.535630 -0.618843
O39   O     O_R   1.000000 0.447660 0.535630 -0.623903
O40   O     O_R   0.552340 0.000000 0.535630 -0.619286
C153  C     C_R   0.499914 0.999926 0.046991 0.889804
C154  C     C_R   0.000004 0.500046 0.046983 0.879700
C155  C     C_R   0.999706 0.499850 0.547043 0.892674
C156  C     C_R   0.500012 0.999931 0.546991 0.889262
O41   O     O_R   0.407370 0.052330 0.000010 -0.647184
O42   O     O_R   0.947670 0.407370 0.000010 -0.630352
O43   O     O_R   0.592630 0.947670 0.000010 -0.646722
O44   O     O_R   0.052330 0.592630 0.000010 -0.656324
O45   O     O_R   0.907370 0.552330 0.500010 -0.646365
O46   O     O_R   0.447670 0.907370 0.500010 -0.645393
O47   O     O_R   0.092630 0.447670 0.500010 -0.646129
O48   O     O_R   0.552330 0.092630 0.500010 -0.645629
O49   O     O_R   0.407380 0.947770 0.000040 -0.587059
O50   O     O_R   0.052230 0.407380 0.000040 -0.602330
O51   O     O_R   0.592620 0.052230 0.000040 -0.586904
O52   O     O_R   0.947770 0.592620 0.000040 -0.592538
O53   O     O_R   0.907380 0.447770 0.500040 -0.586239
O54   O     O_R   0.552230 0.907380 0.500040 -0.587306
O55   O     O_R   0.092620 0.552230 0.500040 -0.585713
O56   O     O_R   0.447770 0.092620 0.500040 -0.587252
C157  C     C_R   0.378715 0.999805 0.999343 0.867922
C158  C     C_R   0.999889 0.378841 0.998606 0.940252
C159  C     C_R   0.621284 0.000202 0.999341 0.868238
C160  C     C_R   0.000104 0.621166 0.998522 0.880779
C161  C     C_R   0.878713 0.499808 0.499355 0.868372
C162  C     C_R   0.500043 0.878713 0.499321 0.867268
C163  C     C_R   0.121289 0.500199 0.499368 0.868841
C164  C     C_R   0.499958 0.121298 0.499344 0.867356
Zn5   Zn    Zn3+2 0.499970 0.069870 0.000000 1.017836
Zn6   Zn    Zn3+2 0.930130 0.499970 0.000000 1.025078
Zn7   Zn    Zn3+2 0.500030 0.930130 0.000000 1.018732
Zn8   Zn    Zn3+2 0.069870 0.500030 0.000000 0.999322
Zn9   Zn    Zn3+2 0.999970 0.569870 0.500000 1.021065
Zn10  Zn    Zn3+2 0.430130 0.999970 0.500000 1.022671
Zn11  Zn    Zn3+2 0.000030 0.430130 0.500000 1.019883
Zn12  Zn    Zn3+2 0.569870 0.000030 0.500000 1.022365
O57   O     O_R   0.499940 0.052330 0.964390 -0.593637
O58   O     O_R   0.947670 0.499940 0.964390 -0.586218
O59   O     O_R   0.500060 0.947670 0.964390 -0.593039
O60   O     O_R   0.052330 0.500060 0.964390 -0.592427
O61   O     O_R   0.999940 0.552330 0.464390 -0.593031
O62   O     O_R   0.447670 0.999940 0.464390 -0.592850
O63   O     O_R   0.000060 0.447670 0.464390 -0.592720
O64   O     O_R   0.552330 0.000060 0.464390 -0.592848
C165  C     C_R   0.906145 0.560647 0.800859 -0.148546
C166  C     C_R   0.388205 0.995273 0.800097 -0.129492
C167  C     C_R   0.089367 0.430894 0.800561 -0.148658
C168  C     C_R   0.613869 0.000905 0.800522 -0.146386
C169  C     C_R   0.494187 0.111445 0.299946 -0.129868
C170  C     C_R   0.887139 0.498428 0.300380 -0.147064
C171  C     C_R   0.499280 0.885826 0.300658 -0.146901
C172  C     C_R   0.112820 0.504027 0.300346 -0.147285
C173  C     C_R   0.499955 0.000059 0.952948 0.857501
C174  C     C_R   0.999981 0.499799 0.952952 0.967069
C175  C     C_R   0.000016 0.500067 0.452952 0.856808
C176  C     C_R   0.499989 0.000068 0.452945 0.856653
C177  C     C_R   0.949736 0.525292 0.813392 -0.026020
C178  C     C_R   0.444230 0.996928 0.812932 -0.021515
C179  C     C_R   0.041753 0.460002 0.813237 -0.025570
C180  C     C_R   0.557513 0.999761 0.813142 -0.024821
C181  C     C_R   0.495798 0.055473 0.312852 -0.021294
C182  C     C_R   0.943363 0.499744 0.313073 -0.022294
C183  C     C_R   0.498357 0.942212 0.313207 -0.024513
C184  C     C_R   0.056631 0.502547 0.313056 -0.022235
H113  H     H_    0.874490 0.593107 0.767697 0.175024
H114  H     H_    0.344376 0.992191 0.766147 0.153359
H115  H     H_    0.130139 0.412853 0.767313 0.174810
H116  H     H_    0.658842 0.001891 0.766796 0.172738
H117  H     H_    0.491040 0.155153 0.265940 0.152957
H118  H     H_    0.842459 0.496950 0.266628 0.171502
H119  H     H_    0.500009 0.840757 0.266988 0.172267
H120  H     H_    0.157416 0.505796 0.266582 0.171664
C185  C     C_R   0.993763 0.490148 0.800573 -0.048240
C186  C     C_R   0.501043 0.997718 0.800370 -0.054490
C187  C     C_R   0.496383 0.998628 0.300362 -0.054494
C188  C     C_R   0.999980 0.501209 0.300383 -0.052203
C189  C     C_R   0.513440 0.943668 0.237277 0.048248
C190  C     C_R   0.054434 0.520025 0.237163 0.047144
C191  C     C_R   0.474461 0.051964 0.237149 0.006251
C192  C     C_R   0.945369 0.482698 0.237202 0.047041
C193  C     C_R   0.033278 0.447535 0.737016 0.049179
C194  C     C_R   0.555890 0.015056 0.737204 0.048363
C195  C     C_R   0.938747 0.513750 0.737186 0.048943
C196  C     C_R   0.447426 0.975827 0.737238 0.006159
C197  C     C_R   0.494225 0.997894 0.224594 0.013186
C198  C     C_R   0.999897 0.501347 0.224565 -0.004619
C199  C     C_R   0.986987 0.482349 0.724549 -0.004623
C200  C     C_R   0.501563 0.995688 0.724602 0.013291
C201  C     C_R   0.904402 0.559215 0.775971 -0.179263
C202  C     C_R   0.388670 0.990358 0.775185 -0.237210
C203  C     C_R   0.088260 0.429464 0.775672 -0.178720
C204  C     C_R   0.614086 0.003952 0.775556 -0.182030
C205  C     C_R   0.489157 0.110882 0.275033 -0.237334
C206  C     C_R   0.887137 0.494733 0.275444 -0.179426
C207  C     C_R   0.502223 0.885542 0.275693 -0.182377
C208  C     C_R   0.112756 0.507925 0.275407 -0.179113
C209  C     C_R   0.542680 0.894885 0.224248 0.073388
C210  C     C_R   0.103695 0.548650 0.224029 0.074977
C211  C     C_R   0.444359 0.100373 0.223923 0.076806
C212  C     C_R   0.896087 0.454062 0.224126 0.074891
C213  C     C_R   0.072583 0.407610 0.723289 0.075992
C214  C     C_R   0.604764 0.044399 0.724091 0.073042
C215  C     C_R   0.887311 0.537025 0.723642 0.076058
C216  C     C_R   0.398862 0.945603 0.724097 0.076598
C217  C     C_R   0.545100 0.897233 0.199194 -0.193639
C218  C     C_R   0.101659 0.550351 0.198964 -0.191472
C219  C     C_R   0.443605 0.098414 0.198916 -0.123302
C220  C     C_R   0.898132 0.452252 0.199066 -0.191779
C221  C     C_R   0.075467 0.413897 0.698388 -0.191038
C222  C     C_R   0.602411 0.046719 0.699036 -0.193106
C223  C     C_R   0.891328 0.541708 0.698700 -0.191093
C224  C     C_R   0.400807 0.944759 0.699089 -0.122617
C225  C     C_R   0.520285 0.947625 0.186553 -0.030664
C226  C     C_R   0.051042 0.525561 0.186418 -0.032227
C227  C     C_R   0.470145 0.048820 0.186415 -0.060854
C228  C     C_R   0.948775 0.476937 0.186469 -0.032246
C229  C     C_R   0.034786 0.453277 0.686232 -0.033267
C230  C     C_R   0.551927 0.021703 0.686477 -0.030780
C231  C     C_R   0.942065 0.517326 0.686355 -0.033793
C232  C     C_R   0.450520 0.971333 0.686504 -0.061196
N9    N     N_3   0.312781 0.031047 0.955122 -0.383867
H121  H     H_    0.292815 0.061337 0.942578 0.205477
H122  H     H_    0.360166 0.042276 0.955317 0.177645
N10   N     N_3   0.916189 0.312525 0.966163 -0.416548
H123  H     H_    0.937055 0.291081 0.951457 0.247691
H124  H     H_    0.868311 0.304860 0.964279 0.192683
N11   N     N_3   0.687171 0.969427 0.955120 -0.383584
H125  H     H_    0.707132 0.939278 0.942579 0.206402
H126  H     H_    0.639790 0.958184 0.955320 0.177892
N12   N     N_3   0.063739 0.691633 0.959934 -0.379052
H127  H     H_    0.102816 0.711942 0.951835 0.196056
H128  H     H_    0.073324 0.644072 0.960650 0.203316
N13   N     N_3   0.812836 0.530695 0.455092 -0.383959
H129  H     H_    0.792866 0.560859 0.442504 0.207298
H130  H     H_    0.860212 0.541960 0.455282 0.177970
N14   N     N_3   0.468765 0.812913 0.455096 -0.383897
H131  H     H_    0.438543 0.792835 0.442551 0.207649
H132  H     H_    0.457495 0.860211 0.455310 0.177996
N15   N     N_3   0.187060 0.470290 0.455053 -0.384327
H133  H     H_    0.207043 0.440449 0.442407 0.207279
H134  H     H_    0.139701 0.458947 0.455237 0.177504
N16   N     N_3   0.531833 0.187707 0.455215 -0.383879
H135  H     H_    0.562258 0.207930 0.442746 0.207354
H136  H     H_    0.543038 0.140391 0.455430 0.178356
N17   N     N_R   0.302276 0.901369 0.973522 0.215442
O65   O     O_R   0.273996 0.912319 0.953273 -0.393416
O66   O     O_R   0.340760 0.854764 0.974628 -0.389041
N18   N     N_R   0.052949 0.304892 0.957482 0.201982
O67   O     O_R   0.046842 0.265373 0.939928 -0.400111
O68   O     O_R   0.063323 0.362985 0.952149 -0.395762
N19   N     N_R   0.697716 0.098895 0.973499 0.215693
O69   O     O_R   0.726000 0.088163 0.953254 -0.392517
O70   O     O_R   0.659199 0.145463 0.974589 -0.388717
N20   N     N_R   0.927392 0.694508 0.962451 0.215645
O71   O     O_R   0.949694 0.724795 0.944068 -0.365697
O72   O     O_R   0.888078 0.649394 0.958601 -0.376910
N21   N     N_R   0.802203 0.401196 0.473651 0.216062
O73   O     O_R   0.773891 0.412000 0.453397 -0.392396
O74   O     O_R   0.840695 0.354603 0.474796 -0.386108
N22   N     N_R   0.598390 0.802907 0.473461 0.215856
O75   O     O_R   0.587434 0.774693 0.453219 -0.392613
O76   O     O_R   0.645085 0.841569 0.474543 -0.386200
N23   N     N_R   0.197860 0.599356 0.473811 0.216338
O77   O     O_R   0.226211 0.588979 0.453552 -0.392543
O78   O     O_R   0.159375 0.645932 0.475008 -0.385667
N24   N     N_R   0.401945 0.197379 0.473314 0.215568
O79   O     O_R   0.413163 0.225806 0.453090 -0.392726
O80   O     O_R   0.355234 0.158709 0.474308 -0.386568
N25   N     N_3   0.575939 0.846017 0.236178 -0.467467
H137  H     H_    0.558256 0.803361 0.230184 0.183019
H138  H     H_    0.622724 0.848699 0.231057 0.200647
N26   N     N_3   0.152826 0.581964 0.235838 -0.467822
H139  H     H_    0.195346 0.563941 0.229949 0.183056
H140  H     H_    0.150709 0.628623 0.230496 0.200339
N27   N     N_3   0.405516 0.146594 0.234885 -0.462928
H141  H     H_    0.430875 0.187729 0.237181 0.183685
H142  H     H_    0.386744 0.130661 0.251089 0.208612
N28   N     N_3   0.846931 0.420820 0.236002 -0.467606
H143  H     H_    0.804424 0.438852 0.230067 0.182801
H144  H     H_    0.849018 0.374141 0.230765 0.200708
N29   N     N_3   0.104404 0.355762 0.733853 -0.470188
H145  H     H_    0.086845 0.314845 0.726235 0.200981
H146  H     H_    0.151610 0.359026 0.729366 0.182515
N30   N     N_3   0.653757 0.077834 0.735933 -0.467036
H147  H     H_    0.696354 0.060262 0.729924 0.183965
H148  H     H_    0.651229 0.124591 0.730749 0.200909
N31   N     N_3   0.828085 0.549409 0.734467 -0.470752
H149  H     H_    0.815016 0.594860 0.729985 0.182439
H150  H     H_    0.795203 0.519025 0.727035 0.200807
N32   N     N_3   0.352468 0.906713 0.735151 -0.462321
H151  H     H_    0.311468 0.932022 0.737480 0.184441
H152  H     H_    0.368365 0.887936 0.751346 0.208577
N33   N     N_3   0.902968 0.434937 0.926977 -0.412830
H153  H     H_    0.860205 0.453813 0.921777 0.206447
H154  H     H_    0.903512 0.388234 0.921718 0.199127
N34   N     N_3   0.436966 0.903034 0.926383 -0.383977
H155  H     H_    0.397701 0.923315 0.934184 0.246469
H156  H     H_    0.420561 0.869254 0.914435 0.202968
N35   N     N_3   0.097911 0.559040 0.925169 -0.445970
H157  H     H_    0.139807 0.538144 0.920114 0.212887
H158  H     H_    0.098688 0.604990 0.918922 0.190281
N36   N     N_3   0.562544 0.097352 0.926179 -0.384745
H159  H     H_    0.601837 0.077204 0.934052 0.246380
H160  H     H_    0.578900 0.131110 0.914157 0.203118
N37   N     N_3   0.402994 0.062806 0.426345 -0.382902
H161  H     H_    0.423495 0.102146 0.434085 0.246459
H162  H     H_    0.369153 0.079081 0.414394 0.204026
N38   N     N_3   0.937243 0.403106 0.426262 -0.383519
H163  H     H_    0.897964 0.423267 0.434101 0.245981
H164  H     H_    0.920860 0.369433 0.414265 0.204012
N39   N     N_3   0.596922 0.937829 0.426193 -0.383325
H165  H     H_    0.576728 0.898468 0.434102 0.246664
H166  H     H_    0.630541 0.921596 0.414174 0.204144
N40   N     N_3   0.062913 0.597376 0.426337 -0.383561
H167  H     H_    0.102168 0.577089 0.434184 0.245537
H168  H     H_    0.079335 0.631222 0.414364 0.204096
N41   N     N_3   0.311530 0.992237 0.044115 -0.469615
H169  H     H_    0.286342 0.950927 0.046407 0.189607
H170  H     H_    0.304330 0.018717 0.059607 0.201548
N42   N     N_3   0.064443 0.311221 0.036176 -0.451865
H171  H     H_    0.102899 0.285779 0.030262 0.192379
H172  H     H_    0.061098 0.303844 0.054709 0.191585
N43   N     N_3   0.688533 0.007298 0.044108 -0.469585
H173  H     H_    0.713737 0.048577 0.046388 0.189739
H174  H     H_    0.695754 0.980656 0.059604 0.200969
N44   N     N_3   0.957562 0.685523 0.040464 -0.458328
H175  H     H_    0.915476 0.708794 0.037721 0.190776
H176  H     H_    0.970196 0.693243 0.058359 0.194484
N45   N     N_3   0.811439 0.492663 0.544133 -0.465241
H177  H     H_    0.786201 0.451400 0.546470 0.191720
H178  H     H_    0.804231 0.519286 0.559589 0.205222
N46   N     N_3   0.507179 0.811234 0.544074 -0.469349
H179  H     H_    0.548468 0.786266 0.546353 0.189782
H180  H     H_    0.480623 0.803761 0.559568 0.202324
N47   N     N_3   0.188699 0.506345 0.544152 -0.465101
H181  H     H_    0.213996 0.547526 0.546543 0.191981
H182  H     H_    0.195930 0.479376 0.559563 0.204587
N48   N     N_3   0.492221 0.188156 0.544114 -0.469454
H183  H     H_    0.450877 0.213050 0.546315 0.189797
H184  H     H_    0.518561 0.195446 0.559666 0.201658

loop_
_geom_bond_atom_site_label_1
_geom_bond_atom_site_label_2
_geom_bond_distance
_ccdc_geom_bond_type
C128  C134  1.416340 A    
C133  C174  1.472779 S    
C94   H74   1.116182 S    
C31   C195  1.423243 A    
C113  C143  1.402209 A    
C12   N2    1.369054 A    
C10   N2    1.369038 A    
C114  C144  1.402407 A    
C132  C136  1.416332 A    
C165  C177  1.393447 A    
C46   H34   1.116075 S    
N22   O76   1.301354 A    
H49   C85   1.112878 S    
C48   C80   1.564742 S    
N9    H121  1.046185 S    
C195  C199  1.424694 A    
C124  C132  1.399125 A    
C212  N28   1.433357 S    
H52   C88   1.112525 S    
C10   C226  1.402024 A    
O46   Zn10  2.025228 S    
C98   H78   1.116223 S    
O55   Zn9   2.026499 S    
C131  C135  1.416367 A    
N44   H175  1.045151 S    
C22   O26   1.349753 S    
H46   C58   1.114173 S    
C131  N39   1.437987 S    
O16   Zn4   2.025452 S    
C82   C98   1.567313 S    
C220  C228  1.396655 A    
N40   H167  1.045334 S    
C97   H77   1.116243 S    
C22   N6    1.370310 A    
H91   C167  1.083604 S    
C2    C71   1.461526 S    
O43   Zn7   2.022699 S    
O11   Zn3   2.024890 S    
C8    C73   1.461500 S    
C109  C153  1.460518 S    
N18   O67   1.302210 A    
N13   H130  1.045053 S    
C103  H107  1.083312 S    
C15   C231  1.402574 A    
C104  H108  1.083364 S    
O3    C3    1.277454 A    
C35   C205  1.409767 A    
C58   C90   1.541104 S    
C215  C223  1.394868 A    
H45   C57   1.114139 S    
C33   C207  1.411425 A    
C24   N6    1.370275 A    
C27   O31   1.349760 S    
C224  C232  1.396762 A    
C84   C164  1.466415 S    
C101  H105  1.083287 S    
C96   H76   1.116100 S    
O37   Zn9   2.018509 S    
N27   H142  1.044753 S    
O52   C160  1.281176 A    
C137  N5    1.430340 S    
N48   H184  1.046061 S    
C54   C70   1.549671 S    
O12   Zn3   2.025452 S    
C20   C230  1.405913 A    
O48   C164  1.284338 A    
H55   C91   1.112898 S    
C65   H69   1.113763 S    
N31   H150  1.045852 S    
C41   C49   1.544806 S    
C116  C148  1.402220 A    
C51   H39   1.115788 S    
C171  C183  1.399632 A    
O44   C160  1.282308 A    
C43   H31   1.113616 S    
O49   Zn7   2.026501 S    
C192  C198  1.422192 A    
C48   H36   1.115883 S    
C43   C75   1.554531 S    
N32   H151  1.044403 S    
C117  C125  1.396596 A    
N2    C114  1.435091 S    
C64   H68   1.113946 S    
C101  C109  1.401955 A    
C60   C76   1.543524 S    
O63   C175  1.291797 A    
C106  C146  1.392427 A    
C134  C173  1.474184 S    
H3    C119  1.083519 S    
H14   C222  1.083877 S    
N34   H155  1.045289 S    
O12   C4    1.279754 A    
C35   C191  1.418683 A    
H7    C123  1.083302 S    
H43   C55   1.114117 S    
N42   H171  1.045298 S    
C33   C189  1.418990 A    
H44   C56   1.114182 S    
C39   H27   1.113595 S    
O40   Zn12  2.019373 S    
C53   C69   1.543911 S    
N19   O70   1.301350 A    
C147  H103  1.083026 S    
N24   O80   1.301354 A    
N41   H170  1.046058 S    
C105  C111  1.404515 A    
C114  C142  1.402349 A    
O57   C173  1.292022 A    
C138  N6    1.435270 S    
C123  C139  1.397046 A    
C9    C225  1.402114 A    
C210  C218  1.396754 A    
C55   H83   1.112784 S    
C125  C133  1.414681 A    
C30   C150  1.413720 A    
N12   H128  1.043271 S    
C38   C46   1.543119 S    
C129  C135  1.416409 A    
C149  C185  1.421645 A    
C117  C137  1.395273 A    
C42   H22   1.112862 S    
C50   C82   1.566185 S    
C130  C136  1.416248 A    
H56   C92   1.112912 S    
C12   C228  1.401975 A    
N36   H159  1.045325 S    
C35   C151  1.413940 A    
C165  C201  1.386732 A    
O5    Zn2   2.023721 S    
O45   Zn9   2.022699 S    
O40   C156  1.289602 A    
C28   N8    1.370056 A    
H119  C207  1.078913 S    
C132  N40   1.438115 S    
H16   C224  1.084007 S    
C68   H72   1.113756 S    
O51   C159  1.278061 A    
C63   C95   1.542450 S    
C57   C73   1.543957 S    
O10   C2    1.279722 A    
C63   H59   1.113574 S    
N46   H180  1.046057 S    
N26   H139  1.045924 S    
O53   Zn11  2.026501 S    
C40   C72   1.555425 S    
C100  N16   1.468079 S    
N11   H126  1.045046 S    
O4    C4    1.278938 A    
O36   Zn8   2.019373 S    
O5    C5    1.278824 A    
C148  H104  1.082865 S    
C19   C229  1.405368 A    
C95   N11   1.468096 S    
O10   Zn3   2.025556 S    
C10   O18   1.349922 S    
H93   C169  1.083241 S    
C90   N22   1.473394 S    
C78   C86   1.577171 S    
C104  C110  1.401845 A    
Zn6   O58   2.018323 S    
C170  C182  1.399157 A    
H2    C118  1.083315 S    
C143  H99   1.082864 S    
C14   O22   1.349930 S    
O6    C6    1.279070 A    
C193  C213  1.428119 A    
C168  C180  1.399617 A    
C169  C181  1.399641 A    
O55   C163  1.278127 A    
C194  C214  1.423283 A    
N17   O65   1.301905 A    
O41   Zn5   2.022699 S    
C66   H62   1.113540 S    
C179  C185  1.407258 A    
C222  C230  1.396700 A    
C170  C206  1.390956 A    
C3    C72   1.462020 S    
C86   N18   1.476617 S    
N42   H172  1.046102 S    
C172  C184  1.399165 A    
C83   C163  1.466086 S    
O58   C174  1.291396 A    
O47   Zn11  2.022699 S    
C217  C225  1.396700 A    
C104  C144  1.392000 A    
N30   H147  1.045910 S    
H42   C54   1.114059 S    
C47   H35   1.115790 S    
H15   C223  1.084041 S    
C136  C175  1.473709 S    
C36   C152  1.414642 A    
C37   H17   1.112878 S    
C146  H102  1.082848 S    
C127  C133  1.414359 A    
H41   C53   1.114124 S    
C80   C96   1.572533 S    
C39   H19   1.112873 S    
H47   C59   1.114135 S    
C213  N29   1.433410 S    
C17   C225  1.405889 A    
O54   C162  1.277608 A    
C42   C50   1.544938 S    
C17   C197  1.413806 A    
C49   C81   1.566482 S    
H12   C220  1.083876 S    
C125  N33   1.433028 S    
C99   H79   1.116247 S    
O39   Zn11  2.020153 S    
O15   Zn4   2.024890 S    
C67   C99   1.542478 S    
C33   C151  1.413727 A    
C195  C215  1.428349 A    
C40   H28   1.113669 S    
C34   C152  1.414656 A    
O4    Zn1   2.024392 S    
O2    Zn1   2.024292 S    
N28   H144  1.045772 S    
N16   H135  1.046183 S    
C22   C180  1.401222 A    
C106  H110  1.083292 S    
O7    Zn2   2.025364 S    
C61   H57   1.113578 S    
C36   C192  1.418956 A    
C77   C157  1.465974 S    
C103  C109  1.402049 A    
C56   H84   1.111662 S    
C25   C183  1.401230 A    
N20   O71   1.302096 A    
O14   Zn4   2.025556 S    
C67   C75   1.556898 S    
C141  H97   1.082845 S    
C68   H64   1.113551 S    
N1    C113  1.435390 S    
N29   H146  1.046164 S    
H5    C121  1.083316 S    
N25   H137  1.045906 S    
C14   C230  1.402091 A    
C128  N36   1.438029 S    
C150  C186  1.413765 A    
C51   C83   1.566556 S    
C130  N38   1.438080 S    
C47   C79   1.566394 S    
C129  N37   1.438055 S    
C181  C187  1.406434 A    
C32   C202  1.409762 A    
N37   H162  1.045683 S    
C182  C188  1.406549 A    
C82   C162  1.466440 S    
N38   H164  1.045680 S    
Zn12  O64   2.018218 S    
C172  C208  1.390973 A    
O36   C154  1.289546 A    
C56   C72   1.547258 S    
N35   H157  1.045566 S    
C25   N7    1.370324 A    
C26   N8    1.370065 A    
Zn8   O60   2.018218 S    
N15   H134  1.045055 S    
C7    C76   1.461536 S    
C45   C77   1.566388 S    
C94   N10   1.470479 S    
C191  C197  1.422714 A    
C55   C87   1.541796 S    
C5    C74   1.461574 S    
C36   C206  1.411485 A    
C82   C90   1.581116 S    
N14   H131  1.046182 S    
C107  C147  1.388790 A    
C32   C150  1.413949 A    
N31   H149  1.046166 S    
C13   C229  1.400977 A    
N21   O74   1.301350 A    
C26   O30   1.349791 S    
O1    C1    1.277029 A    
C34   C208  1.411505 A    
C97   N13   1.468091 S    
O14   C6    1.279691 A    
O38   Zn10  2.019274 S    
C28   C182  1.401075 A    
O56   C164  1.277619 A    
C59   C75   1.543970 S    
O13   C5    1.280075 A    
N44   H176  1.046085 S    
O1    Zn1   2.023721 S    
C61   C69   1.556702 S    
O7    C7    1.279184 A    
C88   N20   1.473213 S    
N45   H178  1.046069 S    
C211  C219  1.393265 A    
N40   H168  1.045679 S    
C212  C220  1.396720 A    
C29   C149  1.420608 A    
C11   N1    1.369074 A    
C92   N24   1.473368 S    
O62   C176  1.291729 A    
O48   Zn12  2.025230 S    
C16   N4    1.369063 A    
C49   H37   1.115793 S    
C126  C134  1.416327 A    
N18   O68   1.300370 A    
N13   H129  1.046188 S    
C41   H29   1.113614 S    
N43   H173  1.045194 S    
C19   C231  1.406030 A    
C43   H23   1.112863 S    
C118  C138  1.396850 A    
H95   C171  1.083265 S    
C21   C179  1.401073 A    
C119  C127  1.397000 A    
O46   C162  1.284372 A    
C40   H20   1.113295 S    
C166  C202  1.391424 A    
C108  H112  1.083313 S    
C215  N31   1.433398 S    
N23   O77   1.301905 A    
O64   C176  1.291997 A    
C177  C185  1.407148 A    
C45   H33   1.115791 S    
N47   H182  1.046068 S    
O60   C174  1.291950 A    
H9    C217  1.083875 S    
C58   C74   1.543488 S    
O11   C3    1.280148 A    
Zn5   O57   2.019099 S    
C96   N12   1.467470 S    
O34   Zn6   2.019274 S    
C37   C45   1.544768 S    
C19   C199  1.418804 A    
N33   H153  1.045581 S    
C58   H86   1.112809 S    
C98   N14   1.468017 S    
C39   C47   1.544755 S    
N32   H152  1.044761 S    
C54   C86   1.550852 S    
C83   C99   1.567315 S    
C103  C143  1.391816 A    
N10   H123  1.042318 S    
C11   O19   1.349910 S    
H4    C120  1.083302 S    
C81   C97   1.567375 S    
C37   H25   1.113589 S    
C21   O25   1.349926 S    
C123  C131  1.399573 A    
C77   C85   1.580651 S    
C124  C140  1.396862 A    
O54   Zn12  2.024333 S    
N34   H156  1.045684 S    
C80   C88   1.575092 S    
C110  C154  1.459748 S    
C105  C145  1.394376 A    
C169  C205  1.391422 A    
C67   H71   1.113760 S    
C65   C97   1.542480 S    
C167  C203  1.386415 A    
C41   C73   1.554643 S    
C11   C227  1.402333 A    
H54   C90   1.112923 S    
C191  C211  1.428912 A    
N15   H133  1.046185 S    
N41   H169  1.045189 S    
C91   N23   1.473382 S    
C223  C231  1.392557 A    
C37   C69   1.554735 S    
C221  C229  1.392291 A    
N22   O75   1.301902 A    
C66   C98   1.543135 S    
C66   C74   1.556810 S    
O37   C155  1.292857 A    
N9    H122  1.045049 S    
N4    C116  1.435351 S    
C29   C193  1.423110 A    
C218  C226  1.396677 A    
C106  C112  1.401997 A    
C53   C85   1.541764 S    
C54   H82   1.108865 S    
C93   H73   1.116238 S    
Zn9   O61   2.019099 S    
N36   H160  1.045678 S    
C118  C126  1.399087 A    
N3    C115  1.431139 S    
O3    Zn1   2.025364 S    
C183  C187  1.406336 A    
H10   C218  1.083873 S    
O52   Zn6   2.024343 S    
C135  C176  1.474373 S    
C13   N3    1.367043 A    
C216  N32   1.435845 S    
O49   C157  1.278043 A    
C111  C155  1.466118 S    
C194  C200  1.422835 A    
C112  C156  1.460522 S    
C27   N7    1.370285 A    
H11   C219  1.084005 S    
C24   C178  1.401127 A    
C107  C111  1.404630 A    
N26   H140  1.045767 S    
C23   O27   1.349950 S    
C60   H88   1.112806 S    
C42   H30   1.113609 S    
H113  C201  1.075183 S    
C42   C74   1.555016 S    
C80   C160  1.466436 S    
C4    C69   1.461514 S    
C66   H70   1.113737 S    
O33   Zn5   2.018509 S    
O61   C175  1.291752 A    
C107  H111  1.082971 S    
N48   H183  1.045191 S    
C64   H60   1.113820 S    
C78   C158  1.465977 S    
C214  N30   1.433313 S    
C219  C227  1.396777 A    
N39   H166  1.045679 S    
C126  N34   1.438069 S    
C62   C70   1.550162 S    
C151  C187  1.413772 A    
C16   C232  1.402339 A    
C211  N27   1.435860 S    
C152  C188  1.414286 A    
H96   C172  1.083288 S    
C93   N9    1.468096 S    
N35   H158  1.045680 S    
C108  C112  1.402030 A    
C56   C88   1.543540 S    
N33   H154  1.045604 S    
O39   C155  1.289740 A    
C20   C200  1.413802 A    
C189  C209  1.423322 A    
C31   C201  1.415167 A    
C84   C100  1.567149 S    
C121  C129  1.399086 A    
C210  N26   1.433357 S    
C17   C227  1.405533 A    
H117  C205  1.076850 S    
C18   C228  1.405907 A    
C29   C203  1.415313 A    
C39   C71   1.554682 S    
O35   C153  1.289695 A    
O44   Zn8   2.025230 S    
N30   H148  1.045774 S    
C77   C93   1.567381 S    
C127  N35   1.432313 S    
C193  C199  1.425205 A    
C122  C140  1.396917 A    
C40   C48   1.543523 S    
C209  C217  1.396796 A    
C57   H85   1.112784 S    
Zn10  O62   2.018323 S    
N24   O79   1.301898 A    
H94   C170  1.083288 S    
C65   H61   1.113564 S    
C81   C89   1.580592 S    
Zn7   O59   2.017454 S    
C171  C207  1.391562 A    
C62   C94   1.543127 S    
C65   C73   1.556770 S    
C192  C212  1.423359 A    
H1    C117  1.083528 S    
C64   C72   1.550548 S    
O43   C159  1.283852 A    
N12   H127  1.046276 S    
O8    C8    1.278997 A    
C20   C232  1.405522 A    
N43   H174  1.046060 S    
C26   C184  1.401103 A    
C78   C94   1.571878 S    
C23   N5    1.366975 A    
C144  H100  1.082858 S    
C209  N25   1.433308 S    
O42   Zn6   2.025228 S    
C14   N4    1.369107 A    
C52   C84   1.566415 S    
N16   H136  1.045059 S    
C81   C161  1.466033 S    
C189  C197  1.422849 A    
N46   H179  1.045196 S    
H90   C166  1.083241 S    
C21   N5    1.366811 A    
N20   O72   1.301204 A    
C120  C138  1.397040 A    
O50   Zn8   2.024333 S    
N39   H165  1.045294 S    
C63   C71   1.556749 S    
C105  H109  1.082907 S    
C28   O32   1.349794 S    
N29   H145  1.045853 S    
O35   Zn7   2.020153 S    
C38   H18   1.113499 S    
C63   H67   1.113767 S    
H115  C203  1.074973 S    
C168  C204  1.391543 A    
O33   C153  1.289984 A    
H116  C204  1.078911 S    
C52   H40   1.115770 S    
C25   O29   1.349751 S    
C45   N41   1.470933 S    
N27   H141  1.044405 S    
C59   C91   1.541766 S    
C102  C142  1.391915 A    
C44   H32   1.113589 S    
N37   H161  1.045290 S    
C31   C149  1.420706 A    
C46   N42   1.470794 S    
C213  C221  1.394130 A    
C178  C186  1.406433 A    
C38   H26   1.113730 S    
C115  C147  1.398620 A    
C44   C76   1.554691 S    
O15   C7    1.279673 A    
O53   C161  1.278117 A    
O16   C8    1.279740 A    
C27   C181  1.401135 A    
C64   C96   1.542512 S    
C100  H80   1.116226 S    
C47   N43   1.470916 S    
O50   C158  1.281095 A    
C167  C179  1.393090 A    
C140  N8    1.435017 S    
Zn11  O63   2.017454 S    
O8    Zn2   2.024392 S    
N17   O66   1.301349 A    
O38   C156  1.289920 A    
H53   C89   1.112888 S    
C18   C198  1.414192 A    
C62   H58   1.112700 S    
C184  C188  1.406543 A    
C30   C204  1.411429 A    
H48   C60   1.114172 S    
C113  C141  1.402563 A    
C139  N7    1.435309 S    
C9    N1    1.369124 A    
N14   H132  1.045055 S    
C53   H81   1.112773 S    
N47   H181  1.045206 S    
C23   C177  1.401332 A    
C18   C226  1.405947 A    
C15   N3    1.366654 A    
O34   C154  1.289543 A    
N21   O73   1.301902 A    
C79   C159  1.465984 S    
C102  C110  1.401875 A    
C79   C95   1.567388 S    
H6    C122  1.083311 S    
C41   H21   1.112868 S    
C119  C137  1.395537 A    
C121  C139  1.396809 A    
C99   N15   1.468088 S    
C44   C52   1.545346 S    
C190  C210  1.423326 A    
O41   C157  1.283859 A    
N19   O69   1.301901 A    
C214  C222  1.396776 A    
H92   C168  1.083269 S    
C120  C128  1.399546 A    
H51   C87   1.112875 S    
C180  C186  1.406341 A    
C95   H75   1.116239 S    
N45   H177  1.045199 S    
O42   C158  1.281994 A    
C57   C89   1.541759 S    
H118  C206  1.078793 S    
C89   N21   1.473355 S    
C1    C70   1.461774 S    
C38   C70   1.556367 S    
C84   C92   1.581057 S    
O47   C163  1.283812 A    
O9    C1    1.280366 A    
C62   H66   1.113992 S    
C30   C194  1.418946 A    
H89   C165  1.083579 S    
C216  C224  1.393259 A    
O56   Zn10  2.024343 S    
C68   C100  1.542749 S    
C87   N19   1.473334 S    
C46   C78   1.566049 S    
O45   C161  1.283803 A    
C44   H24   1.112868 S    
N28   H143  1.045926 S    
C43   C51   1.544828 S    
C9    O17   1.349931 S    
O6    Zn2   2.024292 S    
C83   C91   1.580624 S    
C50   N46   1.470921 S    
C142  H98   1.082857 S    
C85   N17   1.473309 S    
O2    C2    1.278975 A    
C32   C196  1.418720 A    
C79   C87   1.580637 S    
O59   C173  1.291769 A    
O13   Zn4   2.026527 S    
C13   O21   1.350129 S    
N23   O78   1.301349 A    
O9    Zn3   2.026527 S    
C60   C92   1.541061 S    
C15   O23   1.349925 S    
H8    C124  1.083309 S    
C116  C146  1.402521 A    
C16   O24   1.349904 S    
H13   C221  1.084087 S    
H50   C86   1.112121 S    
C52   N48   1.470879 S    
N11   H125  1.046187 S    
N25   H138  1.045772 S    
C115  C145  1.400908 A    
C6    C75   1.461465 S    
H114  C202  1.076836 S    
C108  C148  1.391808 A    
C48   N44   1.470987 S    
C102  H106  1.083356 S    
C190  C198  1.422163 A    
H120  C208  1.078780 S    
N10   H124  1.046024 S    
C61   H65   1.113762 S    
C55   C71   1.543952 S    
C59   H87   1.112802 S    
O51   Zn5   2.026499 S    
C51   N47   1.470833 S    
C50   H38   1.115779 S    
C67   H63   1.113559 S    
N38   H163  1.045331 S    
C68   C76   1.557023 S    
C34   C190  1.418965 A    
C145  H101  1.082814 S    
C24   O28   1.349759 S    
C12   O20   1.349933 S    
C166  C178  1.399641 A    
C101  C141  1.392444 A    
C49   N45   1.470871 S    
C196  C200  1.422754 A    
C122  C130  1.399156 A    
C196  C216  1.428966 A    
C61   C93   1.542441 S    
