data_mof_unit_25577.cif
_audit_creation_date              2012-12-10T16:49:25-0500
_audit_creation_method            fapswitch 2.2
_symmetry_space_group_name_H-M    P1
_symmetry_Int_Tables_number       1
_space_group_crystal_system       triclinic
_cell_length_a                    19.29744
_cell_length_b                    8.670051
_cell_length_c                    7.628802
_cell_angle_alpha                 102.743924
_cell_angle_beta                  96.504637
_cell_angle_gamma                 95.107617
_cell_volume                      1228.32597591

loop_
_atom_site_label
_atom_site_type_symbol
_atom_type_description
_atom_site_fract_x
_atom_site_fract_y
_atom_site_fract_z
_atom_type_partial_charge
C1    C     C_R   0.496412 0.200125 0.453805 0.885317
C2    C     C_R   0.504753 0.799916 0.545872 0.857579
C3    C     C_2   0.489030 0.031146 0.431247 -0.355454
C4    C     C_2   0.514125 0.968749 0.566508 -0.342478
C5    C     C_R   0.367955 0.512382 0.499924 0.781917
C6    C     C_R   0.632196 0.507797 0.502698 0.781779
C7    C     C_R   0.266141 0.583899 0.666619 -0.264207
C8    C     C_R   0.737397 0.406395 0.388904 -0.252744
C9    C     C_R   0.194778 0.594064 0.673956 -0.172433
C10   C     C_R   0.809731 0.412729 0.391293 -0.171593
C11   C     C_R   0.147906 0.565393 0.513776 0.032633
C12   C     C_R   0.854561 0.534548 0.514672 0.024623
C13   C     C_R   0.174212 0.544524 0.348285 -0.179358
C14   C     C_R   0.826054 0.651930 0.633197 -0.185031
C15   C     C_R   0.246131 0.540848 0.340138 0.160357
C16   C     C_R   0.753223 0.649267 0.629998 0.150035
C17   C     C_R   0.292476 0.542549 0.500224 -0.061120
C18   C     C_R   0.708565 0.522119 0.508664 -0.019157
C19   C     C_R   0.930941 0.541814 0.516465 0.417594
C20   C     C_R   0.071721 0.558460 0.516248 0.415469
Cu1   Cu    Cu3+1 0.507710 0.517380 0.684380 0.921280
Cu2   Cu    Cu3+1 0.492290 0.482620 0.315620 0.927164
H1    H     H_    0.300925 0.613790 0.791903 0.159205
H2    H     H_    0.703752 0.309954 0.294142 0.136769
H3    H     H_    0.176109 0.621893 0.804467 0.152503
H4    H     H_    0.830603 0.321058 0.297977 0.156394
H5    H     H_    0.138554 0.535338 0.224972 0.148116
H6    H     H_    0.860634 0.748880 0.724659 0.151331
H7    H     H_    0.460126 0.958142 0.305801 0.157807
H8    H     H_    0.543308 0.041848 0.691463 0.159743
N1    N     N_R   0.027059 0.478934 0.366900 -0.235663
N2    N     N_R   0.975546 0.621348 0.666220 -0.235462
N3    N     N_R   0.958004 0.470420 0.367058 -0.238058
N4    N     N_R   0.044753 0.628913 0.666490 -0.239245
N5    N     N_2   0.480680 0.456420 0.038530 -0.193068
N6    N     N_2   0.519320 0.543580 0.961470 -0.195481
O1    O     O_R   0.505010 0.286130 0.619770 -0.578278
O2    O     O_R   0.494990 0.713870 0.380230 -0.583012
O3    O     O_R   0.491990 0.256780 0.308370 -0.603299
O4    O     O_R   0.508010 0.743220 0.691630 -0.605603
O5    O     O_R   0.406650 0.514660 0.655750 -0.599101
O6    O     O_R   0.593350 0.485340 0.344250 -0.595968
O7    O     O_R   0.393640 0.485310 0.344340 -0.572751
O8    O     O_R   0.606360 0.514690 0.655660 -0.599073
C21   C     C_3   0.271036 0.545844 0.161906 -0.401984
C22   C     C_3   0.316311 0.704172 0.173995 -0.767029
H9    H     H_    0.344974 0.755582 0.312189 0.248950
H10   H     H_    0.356229 0.686943 0.080062 0.226683
H11   H     H_    0.282456 0.792772 0.138047 0.232012
H12   H     H_    0.298306 0.440568 0.121802 0.217919
H13   H     H_    0.226481 0.531777 0.051917 0.178964
C23   C     C_3   0.725733 0.787730 0.749925 -0.428647
C24   C     C_3   0.701360 0.906983 0.643903 -0.818675
H14   H     H_    0.745611 0.955147 0.582925 0.256769
H15   H     H_    0.657431 0.849364 0.536192 0.259489
H16   H     H_    0.682494 0.007291 0.736705 0.235823
H17   H     H_    0.681691 0.746353 0.814306 0.244455
H18   H     H_    0.767217 0.851260 0.862260 0.205684
C25   C     C_R   0.439387 0.315526 0.932455 0.410708
C26   C     C_R   0.462181 0.166288 0.932742 -0.124250
C27   C     C_R   0.415457 0.026396 0.867646 -0.198469
C28   C     C_R   0.346522 0.033290 0.795193 -0.123056
C29   C     C_R   0.323190 0.180593 0.795638 -0.192723
C30   C     C_R   0.368944 0.319608 0.869372 -0.158031
H19   H     H_    0.515554 0.158620 0.988595 0.121705
H20   H     H_    0.432140 0.912253 0.873599 0.158509
H21   H     H_    0.310894 0.925092 0.742734 0.150590
H22   H     H_    0.269097 0.187629 0.745299 0.152561
H23   H     H_    0.349083 0.431558 0.882808 0.134101
C31   C     C_R   0.575141 0.654893 0.065198 0.396611
C32   C     C_R   0.643255 0.609778 0.084259 -0.136136
C33   C     C_R   0.700974 0.723960 0.159570 -0.200253
C34   C     C_R   0.691796 0.885407 0.202645 -0.161619
C35   C     C_R   0.624826 0.932068 0.173911 -0.194987
C36   C     C_R   0.567091 0.817219 0.103068 -0.127864
H24   H     H_    0.651426 0.485903 0.040784 0.134367
H25   H     H_    0.753048 0.687809 0.177985 0.167508
H26   H     H_    0.736627 0.974323 0.255870 0.144510
H27   H     H_    0.617733 0.057123 0.203594 0.140855
H28   H     H_    0.516208 0.854240 0.072789 0.114971

loop_
_geom_bond_atom_site_label_1
_geom_bond_atom_site_label_2
_ccdc_geom_bond_type
C34   C35   A    
N5    N6    D    
C9    H3    S    
Cu1   N6    S    
C24   H14   S    
Cu2   N5    S    
C22   H11   S    
C25   C30   A    
C33   H25   S    
C28   H21   S    
C32   H24   S    
C5    C17   S    
C21   H13   S    
Cu2   O2    S    
N5    C25   S    
C3    H7    S    
C29   H22   S    
C27   H20   S    
C7    C17   A    
C34   H26   S    
N1    N3    A    
C31   C32   A    
C36   H28   S    
C1    O1    A    
C20   N4    A    
C10   H4    S    
C5    O7    A    
C25   C26   A    
C6    O8    A    
Cu1   Cu2   S    
C19   N2    A    
C10   C12   A    
N6    C31   S    
C7    C9    A    
C24   H15   S    
C6    C18   S    
C22   H10   S    
C11   C20   S    
C35   C36   A    
C19   N3    A    
C21   C22   S    
C8    C18   A    
C26   C27   A    
C1    C3    S    
N2    N4    A    
C2    C4    S    
C28   C29   A    
Cu1   O8    S    
C2    O2    A    
Cu2   O7    S    
C30   H23   S    
C9    C11   A    
C23   H18   S    
Cu1   O5    S    
C16   C18   A    
C12   C14   A    
C26   H19   S    
C35   H27   S    
C13   C15   A    
C14   C16   A    
C15   C21   S    
C3    C4    D    
C23   C24   S    
C24   H16   S    
C15   C17   A    
C5    O5    A    
C22   H9    S    
C16   C23   S    
C33   C34   A    
C32   C33   A    
C11   C13   A    
Cu2   O6    S    
Cu1   O4    S    
C21   H12   S    
C7    H1    S    
Cu2   O3    S    
C12   C19   S    
C8    H2    S    
C27   C28   A    
C23   H17   S    
C1    O3    A    
C29   C30   A    
C2    O4    A    
Cu1   O1    S    
C8    C10   A    
C6    O6    A    
C31   C36   A    
C13   H5    S    
C14   H6    S    
C4    H8    S    
C20   N1    A    
