data_mof_unit_29421.cif
_audit_creation_date              2012-12-10T16:51:32-0500
_audit_creation_method            fapswitch 2.2
_symmetry_space_group_name_H-M    P1
_symmetry_Int_Tables_number       1
_space_group_crystal_system       triclinic
_cell_length_a                    7.830977
_cell_length_b                    8.570077
_cell_length_c                    12.076151
_cell_angle_alpha                 92.282091
_cell_angle_beta                  101.47795
_cell_angle_gamma                 94.132788
_cell_volume                      790.965245274

loop_
_atom_site_label
_atom_site_type_symbol
_atom_type_description
_atom_site_fract_x
_atom_site_fract_y
_atom_site_fract_z
_atom_type_partial_charge
C1    C     C_R   0.044692 0.794724 0.497489 0.967638
C2    C     C_R   0.159234 0.502988 0.832840 -0.104374
C3    C     C_2   0.068121 0.958492 0.496457 -0.398845
C4    C     C_R   0.106476 0.504434 0.710538 0.861998
C5    C     C_2   0.932669 0.041683 0.505193 -0.381945
C6    C     C_R   0.955577 0.205328 0.503074 0.958021
C7    C     C_R   0.892023 0.487651 0.289458 0.865322
C8    C     C_R   0.801876 0.269816 0.008023 -0.162182
C9    C     C_R   0.828708 0.450876 0.169857 -0.082241
C10   C     C_R   0.074594 0.594206 0.900626 -0.213056
C11   C     C_R   0.138498 0.613388 0.016244 -0.157786
C12   C     C_R   0.389133 0.469640 0.993916 0.057275
C13   C     C_R   0.295139 0.551575 0.064853 0.091196
C14   C     C_R   0.305780 0.425947 0.881779 0.025254
C15   C     C_R   0.562887 0.430081 0.029136 0.042413
C16   C     C_R   0.633000 0.315781 0.966105 0.157275
C17   C     C_R   0.532908 0.250937 0.863205 0.058665
C18   C     C_R   0.371927 0.308153 0.820844 -0.245526
C19   C     C_R   0.672353 0.508596 0.122302 -0.233686
C20   C     C_R   0.896759 0.333168 0.112095 -0.206531
H1    H     H_    0.018972 0.286670 0.149025 0.151390
H2    H     H_    0.857757 0.180959 0.963287 0.162467
H3    H     H_    0.326695 0.445442 0.212569 0.193531
H4    H     H_    0.272152 0.631203 0.223875 0.203870
H5    H     H_    0.298093 0.257617 0.740427 0.170557
H6    H     H_    0.195785 0.009991 0.488267 0.176660
H7    H     H_    0.469594 0.374364 0.416833 0.186349
H8    H     H_    0.635365 0.611991 0.162781 0.180324
H9    H     H_    0.959401 0.651652 0.864053 0.164530
H10   H     H_    0.066395 0.678033 0.067915 0.139787
H11   H     H_    0.805089 0.990220 0.513574 0.179040
H12   H     H_    0.530505 0.625327 0.583444 0.190891
H13   H     H_    0.505915 0.034496 0.786112 0.184519
H14   H     H_    0.604052 0.174425 0.719857 0.200426
N1    N     N_2   0.434800 0.456690 0.470850 -0.176746
N2    N     N_2   0.565200 0.543310 0.529150 -0.168627
N3    N     N_3   0.597075 0.132144 0.799030 -0.478953
N4    N     N_3   0.348348 0.558459 0.186043 -0.466562
O1    O     O_R   0.893060 0.738880 0.507150 -0.608022
O2    O     O_R   0.172250 0.711130 0.488470 -0.626825
O3    O     O_R   0.944700 0.520730 0.667600 -0.611895
O4    O     O_R   0.223890 0.492980 0.648920 -0.616624
O5    O     O_R   0.827750 0.288870 0.511530 -0.626841
O6    O     O_R   0.106940 0.261120 0.492850 -0.617876
O7    O     O_R   0.776110 0.507020 0.351080 -0.603797
O8    O     O_R   0.055300 0.479270 0.332400 -0.632684
Zn1   Zn    Zn3+2 0.813580 0.518530 0.512470 0.936943
Zn2   Zn    Zn3+2 0.186420 0.481470 0.487530 0.915283

loop_
_geom_bond_atom_site_label_1
_geom_bond_atom_site_label_2
_ccdc_geom_bond_type
C2    C4    S    
H3    N4    S    
C14   C18   A    
C9    C20   A    
H4    N4    S    
N1    N2    D    
C12   C15   A    
C3    C5    D    
C17   C18   A    
O3    Zn1   S    
C8    C16   A    
C17   N3    S    
C12   C13   A    
C15   C19   A    
C19   H8    S    
C11   C13   A    
C10   H9    S    
C13   N4    S    
C8    C20   A    
C18   H5    S    
C4    O4    A    
N1    Zn2   S    
H12   N2    S    
C12   C14   A    
C6    O5    A    
O7    Zn1   S    
C5    C6    S    
C2    C14   A    
O8    Zn2   S    
C5    H11   S    
C10   C11   A    
C1    O1    A    
C15   C16   A    
H14   N3    S    
C7    O8    A    
C7    O7    A    
C20   H1    S    
C6    O6    A    
N2    Zn1   S    
O1    Zn1   S    
C4    O3    A    
C7    C9    S    
O2    Zn2   S    
O4    Zn2   S    
C1    O2    A    
H7    N1    S    
O5    Zn1   S    
C8    H2    S    
C9    C19   A    
C3    H6    S    
H13   N3    S    
O6    Zn2   S    
C11   H10   S    
C16   C17   A    
C1    C3    S    
C2    C10   A    
