data_mof_unit_53886.cif
_audit_creation_date              2013-03-05T15:40:54-0500
_audit_creation_method            fapswitch 2.2
_symmetry_space_group_name_H-M    P1
_symmetry_Int_Tables_number       1
_space_group_crystal_system       triclinic
_cell_length_a                    27.837328
_cell_length_b                    18.866448
_cell_length_c                    16.785086
_cell_angle_alpha                 89.844612
_cell_angle_beta                  62.756362
_cell_angle_gamma                 90.202614
_cell_volume                      7837.334086

loop_
_atom_site_label
_atom_site_type_symbol
_atom_site_description
_atom_site_fract_x
_atom_site_fract_y
_atom_site_fract_z
_atom_type_partial_charge
O1    O     O_R   0.255040 0.869590 0.478480 -0.524575
O2    O     O_R   0.744960 0.130410 0.521520 -0.527570
O3    O     O_R   0.744960 0.869590 0.521520 -0.531461
O4    O     O_R   0.255040 0.130410 0.478480 -0.530703
O5    O     O_R   0.755040 0.369590 0.478480 -0.519401
O6    O     O_R   0.244960 0.630410 0.521520 -0.527069
O7    O     O_R   0.244960 0.369590 0.521520 -0.521598
O8    O     O_R   0.755040 0.630410 0.478480 -0.529227
O9    O     O_R   0.182050 0.796550 0.624440 -0.554308
O10   O     O_R   0.817950 0.203450 0.375560 -0.575355
O11   O     O_R   0.817950 0.796550 0.375560 -0.567616
O12   O     O_R   0.182050 0.203450 0.624440 -0.579827
O13   O     O_R   0.682050 0.296550 0.624440 -0.550663
O14   O     O_R   0.317950 0.703450 0.375560 -0.535200
O15   O     O_R   0.317950 0.296550 0.375560 -0.564272
O16   O     O_R   0.682050 0.703450 0.624440 -0.578973
Cu1   Cu    Cu3+1 0.209920 0.785290 0.495070 1.076771
Cu2   Cu    Cu3+1 0.790080 0.214710 0.504930 1.117456
Cu3   Cu    Cu3+1 0.790080 0.785290 0.504930 1.087319
Cu4   Cu    Cu3+1 0.209920 0.214710 0.495070 1.118394
Cu5   Cu    Cu3+1 0.709920 0.285290 0.495070 1.080634
Cu6   Cu    Cu3+1 0.290080 0.714710 0.504930 1.124603
Cu7   Cu    Cu3+1 0.290080 0.285290 0.504930 1.110453
Cu8   Cu    Cu3+1 0.709920 0.714710 0.495070 1.113568
C1    C     C_R   0.296334 0.731478 0.328047 0.818011
C2    C     C_R   0.704206 0.269532 0.671374 0.849687
C3    C     C_R   0.704303 0.730293 0.671622 0.784369
C4    C     C_R   0.296800 0.267798 0.328517 0.852753
C5    C     C_R   0.792980 0.224712 0.330190 0.786490
C6    C     C_R   0.204069 0.769328 0.671636 0.826864
C7    C     C_R   0.207647 0.223250 0.669193 0.784431
C8    C     C_R   0.797014 0.767276 0.328203 0.871884
O17   O     O_R   0.250530 0.763330 0.367210 -0.619150
O18   O     O_R   0.749470 0.236670 0.632790 -0.571080
O19   O     O_R   0.749470 0.763330 0.632790 -0.604172
O20   O     O_R   0.250530 0.236670 0.367210 -0.544863
O21   O     O_R   0.750530 0.263330 0.367210 -0.602529
O22   O     O_R   0.249470 0.736670 0.632790 -0.602932
O23   O     O_R   0.249470 0.263330 0.632790 -0.591350
O24   O     O_R   0.750530 0.736670 0.367210 -0.545898
O25   O     O_R   0.177260 0.690030 0.513710 -0.592121
O26   O     O_R   0.822740 0.309970 0.486290 -0.562957
O27   O     O_R   0.822740 0.690030 0.486290 -0.586007
O28   O     O_R   0.177260 0.309970 0.513710 -0.551521
O29   O     O_R   0.677260 0.190030 0.513710 -0.579281
O30   O     O_R   0.322740 0.809970 0.486290 -0.549950
O31   O     O_R   0.322740 0.190030 0.486290 -0.587191
O32   O     O_R   0.677260 0.809970 0.513710 -0.558173
C9    C     C_R   0.196576 0.631983 0.528152 0.859883
C10   C     C_R   0.801624 0.368963 0.479784 0.844977
C11   C     C_R   0.803099 0.631923 0.473802 0.845841
C12   C     C_R   0.200063 0.369380 0.515457 0.866775
C13   C     C_R   0.695873 0.131904 0.529744 0.839219
C14   C     C_R   0.304374 0.868030 0.469509 0.850581
C15   C     C_R   0.302810 0.131575 0.474621 0.812746
C16   C     C_R   0.700565 0.869397 0.513942 0.864525
C17   C     C_R   0.037763 0.630415 0.542789 -0.052276
C18   C     C_R   0.959606 0.378446 0.472656 -0.042480
C19   C     C_R   0.954090 0.633162 0.489142 -0.056711
C20   C     C_R   0.068076 0.386654 0.440133 -0.063471
C21   C     C_R   0.530152 0.120360 0.558688 -0.044162
C22   C     C_R   0.484976 0.888847 0.389465 -0.049104
C23   C     C_R   0.447041 0.125825 0.505343 -0.056438
C24   C     C_R   0.585043 0.897483 0.397902 -0.049851
C25   C     C_R   0.014228 0.695862 0.536960 -0.050648
C26   C     C_R   0.995491 0.323344 0.425917 -0.069845
C27   C     C_R   0.972248 0.697074 0.511033 -0.055291
C28   C     C_R   0.051375 0.333888 0.397587 -0.046224
C29   C     C_R   0.497183 0.181733 0.576402 -0.083755
C30   C     C_R   0.530762 0.850206 0.327860 -0.076556
C31   C     C_R   0.456798 0.184942 0.547453 -0.051884
C32   C     C_R   0.581269 0.858695 0.328362 -0.055548
C33   C     C_R   0.975632 0.569109 0.500178 0.018153
C34   C     C_R   0.032694 0.443530 0.478912 0.006489
C35   C     C_R   0.020851 0.568239 0.517060 0.016649
C36   C     C_R   0.981313 0.442157 0.483059 0.015245
C37   C     C_R   0.474775 0.062545 0.498287 0.017720
C38   C     C_R   0.543861 0.946293 0.444754 0.002104
C39   C     C_R   0.519464 0.061734 0.516597 0.019704
C40   C     C_R   0.495147 0.943782 0.437028 0.009484
C41   C     C_R   0.460097 0.001453 0.465909 -0.010710
C42   C     C_R   0.554005 0.002735 0.490478 -0.007145
C43   C     C_R   0.953375 0.504990 0.490653 -0.008290
C44   C     C_R   0.050198 0.504942 0.504576 -0.003931
C45   C     C_R   0.392779 0.937065 0.437006 -0.069315
C46   C     C_R   0.613184 0.062547 0.541952 -0.083079
C47   C     C_R   0.635802 0.943712 0.476230 -0.077799
C48   C     C_R   0.385396 0.065422 0.462339 -0.068936
C49   C     C_R   0.878606 0.437942 0.488871 -0.063879
C50   C     C_R   0.113675 0.565150 0.543699 -0.074630
C51   C     C_R   0.131282 0.442505 0.487297 -0.070971
C52   C     C_R   0.885071 0.567489 0.466116 -0.068622
C53   C     C_R   0.337829 0.935035 0.449909 -0.177858
C54   C     C_R   0.663952 0.064617 0.543476 -0.165433
C55   C     C_R   0.675012 0.938012 0.509691 -0.196608
C56   C     C_R   0.334712 0.065252 0.460252 -0.176886
C57   C     C_R   0.830682 0.436374 0.477127 -0.207317
C58   C     C_R   0.165002 0.565340 0.542376 -0.141246
C59   C     C_R   0.173735 0.437868 0.513236 -0.203972
C60   C     C_R   0.834650 0.566072 0.462829 -0.154462
C61   C     C_R   0.311746 0.000037 0.453412 0.254803
C62   C     C_R   0.689351 0.000118 0.541480 0.264224
C63   C     C_R   0.810621 0.500648 0.460890 0.254536
C64   C     C_R   0.190187 0.500501 0.540460 0.253743
C65   C     C_R   0.411905 0.000802 0.457011 -0.015211
C66   C     C_R   0.600998 0.003032 0.502876 -0.016878
C67   C     C_R   0.905208 0.503636 0.482219 -0.006466
C68   C     C_R   0.098443 0.504122 0.512027 -0.018184
C69   C     C_R   0.630589 0.894709 0.415656 0.316238
C70   C     C_R   0.413572 0.128513 0.462597 0.291048
C71   C     C_R   0.431584 0.881822 0.396515 0.314674
C72   C     C_R   0.573463 0.115925 0.581427 0.307781
C73   C     C_R   0.119789 0.388830 0.438051 0.316224
C74   C     C_R   0.917810 0.629939 0.450612 0.296194
C75   C     C_R   0.903471 0.375982 0.502352 0.292002
C76   C     C_R   0.077323 0.623956 0.574096 0.299233
C77   C     C_R   0.235262 0.792490 0.938269 0.023088
C78   C     C_R   0.788326 0.245893 0.036868 0.022656
C79   C     C_R   0.790049 0.748421 0.038211 0.036105
C80   C     C_R   0.224702 0.219162 0.953107 0.019057
C81   C     C_R   0.732693 0.285928 0.940390 0.024473
C82   C     C_R   0.295153 0.759495 0.031199 0.025588
C83   C     C_R   0.280930 0.260783 0.047713 0.024897
C84   C     C_R   0.724660 0.725462 0.952299 0.024209
C85   C     C_R   0.275830 0.740085 0.905154 0.038142
C86   C     C_R   0.740777 0.286559 0.077430 0.045324
C87   C     C_R   0.743046 0.705943 0.080198 0.051245
C88   C     C_R   0.273103 0.258035 0.910308 0.043626
C89   C     C_R   0.776260 0.237894 0.903049 0.042105
C90   C     C_R   0.253451 0.810459 0.066237 0.047751
C91   C     C_R   0.239417 0.209125 0.084981 0.047621
C92   C     C_R   0.773121 0.765334 0.909026 0.047308
C93   C     C_R   0.311034 0.731763 0.944642 -0.004863
C94   C     C_R   0.719500 0.317371 0.023744 -0.002974
C95   C     C_R   0.707602 0.699050 0.040571 0.005633
C96   C     C_R   0.294485 0.290216 0.962686 -0.001483
C97   C     C_R   0.809847 0.228319 0.945342 -0.002617
C98   C     C_R   0.228133 0.833591 0.013428 -0.001422
C99   C     C_R   0.205269 0.197555 0.043744 0.009210
C100  C     C_R   0.808162 0.772186 0.949104 -0.005704
C101  C     C_R   0.163047 0.858378 0.925870 0.041192
C102  C     C_R   0.863419 0.185948 0.046444 0.048695
C103  C     C_R   0.865710 0.810294 0.045073 0.038548
C104  C     C_R   0.143654 0.173573 0.949571 0.040800
C105  C     C_R   0.661088 0.353942 0.929499 0.046138
C106  C     C_R   0.366201 0.690212 0.043359 0.044067
C107  C     C_R   0.345348 0.340882 0.063520 0.052825
C108  C     C_R   0.643226 0.676231 0.950752 0.041048
C109  C     C_R   0.126386 0.864620 0.888723 -0.117974
C110  C     C_R   0.885266 0.154332 0.099971 -0.114430
C111  C     C_R   0.887502 0.842098 0.098583 -0.119090
C112  C     C_R   0.116826 0.151206 0.899185 -0.109327
C113  C     C_R   0.626110 0.363650 0.889515 -0.123628
C114  C     C_R   0.387013 0.657457 0.098033 -0.116070
C115  C     C_R   0.376456 0.358878 0.108300 -0.122265
C116  C     C_R   0.616347 0.652987 0.900289 -0.104260
C117  C     C_R   0.138196 0.830085 0.808314 -0.219395
C118  C     C_R   0.861584 0.169090 0.191682 -0.253375
C119  C     C_R   0.865398 0.824254 0.189555 -0.204037
C120  C     C_R   0.138233 0.169730 0.808829 -0.257491
C121  C     C_R   0.638840 0.330870 0.807673 -0.219125
C122  C     C_R   0.364257 0.674735 0.189162 -0.210631
C123  C     C_R   0.362347 0.329854 0.192732 -0.219778
C124  C     C_R   0.636339 0.674191 0.810934 -0.259627
H1    H     H_    0.113977 0.840721 0.774277 0.206919
H2    H     H_    0.879971 0.148450 0.231504 0.201336
H3    H     H_    0.880606 0.850262 0.230979 0.200282
H4    H     H_    0.116112 0.156128 0.772045 0.197019
H5    H     H_    0.615355 0.343089 0.772794 0.209983
H6    H     H_    0.378819 0.648136 0.231130 0.204077
H7    H     H_    0.382583 0.348305 0.230721 0.205025
H8    H     H_    0.617106 0.654586 0.771900 0.196408
C125  C     C_R   0.182449 0.784800 0.768788 -0.103515
C126  C     C_R   0.813495 0.207359 0.233909 -0.111525
C127  C     C_R   0.822690 0.775770 0.229126 -0.068991
C128  C     C_R   0.188755 0.202308 0.763965 -0.109532
C129  C     C_R   0.682781 0.284950 0.768083 -0.100325
C130  C     C_R   0.321748 0.723164 0.228394 -0.089898
C131  C     C_R   0.320804 0.279976 0.230866 -0.081553
C132  C     C_R   0.681649 0.718165 0.769883 -0.109840
C133  C     C_R   0.210054 0.764624 0.818946 0.046670
C134  C     C_R   0.786485 0.228442 0.183029 0.062404
C135  C     C_R   0.801142 0.743978 0.175211 0.073852
C136  C     C_R   0.220005 0.213720 0.810640 0.058590
C137  C     C_R   0.710460 0.263712 0.817524 0.064951
C138  C     C_R   0.301544 0.756804 0.173081 0.053043
C139  C     C_R   0.298049 0.250700 0.177844 0.076086
C140  C     C_R   0.708365 0.741540 0.820690 0.059941
C141  C     C_R   0.202469 0.804764 0.894811 0.075346
C142  C     C_R   0.813158 0.220768 0.088772 0.075421
C143  C     C_R   0.819013 0.767645 0.086254 0.081335
C144  C     C_R   0.195970 0.202192 0.904400 0.073331
C145  C     C_R   0.701294 0.301142 0.895770 0.080253
C146  C     C_R   0.320899 0.735317 0.082850 0.075389
C147  C     C_R   0.308576 0.283660 0.095949 0.087108
C148  C     C_R   0.692358 0.713653 0.907490 0.072508
C149  C     C_R   0.164355 0.907105 0.988062 -0.204870
C150  C     C_R   0.890104 0.184663 0.951885 -0.206646
C151  C     C_R   0.890041 0.816221 0.951058 -0.180973
C152  C     C_R   0.120518 0.166928 0.043561 -0.211361
C153  C     C_R   0.658959 0.396773 0.999848 -0.201396
C154  C     C_R   0.390130 0.682215 0.949448 -0.203696
C155  C     C_R   0.347835 0.379612 0.989735 -0.193706
C156  C     C_R   0.621767 0.666706 0.044031 -0.194854
C157  C     C_R   0.196697 0.896063 0.030474 -0.031281
C158  C     C_R   0.863364 0.202505 0.901626 -0.052583
C159  C     C_R   0.862127 0.797783 0.903029 -0.053154
C160  C     C_R   0.151690 0.170531 0.088808 -0.026719
C161  C     C_R   0.685760 0.377516 0.049207 -0.038470
C162  C     C_R   0.362423 0.699627 0.900820 -0.045389
C163  C     C_R   0.325333 0.353388 0.936923 -0.042840
C164  C     C_R   0.653104 0.675470 0.088494 -0.049062
C165  C     C_R   0.244915 0.706052 0.796229 -0.137534
C166  C     C_R   0.733097 0.254999 0.222154 -0.160247
C167  C     C_R   0.763692 0.687544 0.204856 -0.089860
C168  C     C_R   0.274942 0.234356 0.767637 -0.164123
C169  C     C_R   0.747154 0.206618 0.791774 -0.097436
C170  C     C_R   0.262642 0.811202 0.203854 -0.154694
C171  C     C_R   0.264891 0.189917 0.203860 -0.107007
C172  C     C_R   0.749041 0.794082 0.790520 -0.153832
C173  C     C_R   0.277333 0.694328 0.838037 -0.178449
C174  C     C_R   0.712170 0.287269 0.170741 -0.176517
C175  C     C_R   0.735298 0.668824 0.158039 -0.157647
C176  C     C_R   0.299963 0.259977 0.816663 -0.173836
C177  C     C_R   0.780954 0.195889 0.831159 -0.146829
C178  C     C_R   0.237560 0.834679 0.153749 -0.179390
C179  C     C_R   0.234973 0.170823 0.159937 -0.139367
C180  C     C_R   0.781102 0.804902 0.832909 -0.189962
H9    H     H_    0.143101 0.956924 0.999881 0.171019
H10   H     H_    0.932469 0.171648 0.915517 0.172008
H11   H     H_    0.931984 0.831407 0.913040 0.186554
H12   H     H_    0.077508 0.159965 0.084130 0.180669
H13   H     H_    0.638254 0.446981 0.015692 0.174360
H14   H     H_    0.431425 0.665257 0.911450 0.181203
H15   H     H_    0.364601 0.432470 0.974386 0.175631
H16   H     H_    0.579191 0.657125 0.085429 0.196139
H17   H     H_    0.246235 0.666969 0.748358 0.198864
H18   H     H_    0.704803 0.248668 0.291712 0.180979
H19   H     H_    0.756693 0.655713 0.262704 0.190509
H20   H     H_    0.300171 0.229966 0.696594 0.178713
H21   H     H_    0.749242 0.167793 0.743208 0.187313
H22   H     H_    0.251097 0.838699 0.265905 0.203910
H23   H     H_    0.262087 0.155679 0.257547 0.182569
H24   H     H_    0.755352 0.830497 0.737015 0.197213
H25   H     H_    0.301964 0.647178 0.819671 0.170714
H26   H     H_    0.671331 0.307390 0.204526 0.165004
H27   H     H_    0.708363 0.623767 0.182485 0.173582
H28   H     H_    0.341433 0.278173 0.780938 0.164039
H29   H     H_    0.808092 0.151185 0.808848 0.156695
H30   H     H_    0.203742 0.869662 0.187428 0.170266
H31   H     H_    0.210501 0.123805 0.183468 0.184506
H32   H     H_    0.810291 0.847599 0.807851 0.162227
O33   O     O_R   0.051640 0.926880 0.885090 -0.579505
O34   O     O_R   0.948360 0.073120 0.114910 -0.578043
O35   O     O_R   0.948360 0.926880 0.114910 -0.565374
O36   O     O_R   0.051640 0.073120 0.885090 -0.583821
O37   O     O_R   0.551640 0.426880 0.885090 -0.567670
O38   O     O_R   0.448360 0.573120 0.114910 -0.573443
O39   O     O_R   0.448360 0.426880 0.114910 -0.567686
O40   O     O_R   0.551640 0.573120 0.885090 -0.584266
Cu9   Cu    Cu3+1 0.495240 0.500000 0.924150 0.989901
Cu10  Cu    Cu3+1 0.504760 0.500000 0.075850 1.002948
Cu11  Cu    Cu3+1 0.995240 0.000000 0.924150 0.986536
Cu12  Cu    Cu3+1 0.004760 0.000000 0.075850 0.998321
C181  C     C_R   0.928308 0.900095 0.064690 0.826610
C182  C     C_R   0.072224 0.099029 0.935026 0.782619
C183  C     C_R   0.077126 0.908582 0.930403 0.813717
C184  C     C_R   0.928098 0.099500 0.064758 0.802781
C185  C     C_R   0.423564 0.407096 0.068878 0.827773
C186  C     C_R   0.572687 0.598754 0.934801 0.789046
C187  C     C_R   0.577023 0.408229 0.930616 0.825844
C188  C     C_R   0.427998 0.599627 0.064747 0.791399
O41   O     O_R   0.940620 0.926560 0.986760 -0.591842
O42   O     O_R   0.059380 0.073440 0.013240 -0.609300
O43   O     O_R   0.059380 0.926560 0.013240 -0.582962
O44   O     O_R   0.940620 0.073440 0.986760 -0.591776
O45   O     O_R   0.440620 0.426560 0.986760 -0.589264
O46   O     O_R   0.559380 0.573440 0.013240 -0.608406
O47   O     O_R   0.559380 0.426560 0.013240 -0.586766
O48   O     O_R   0.440620 0.573440 0.986760 -0.607136
C189  C     C_1   0.629944 0.842738 0.246838 0.355198
N1    N     N_1   0.668762 0.831308 0.181364 -0.248442
C190  C     C_1   0.423111 0.247461 0.566053 0.276184
N2    N     N_1   0.396433 0.297418 0.580637 -0.248255
C191  C     C_1   0.529646 0.812060 0.253671 0.366281
N3    N     N_1   0.529047 0.781964 0.194120 -0.243053
C192  C     C_1   0.507436 0.244540 0.616129 0.339613
N4    N     N_1   0.515300 0.294944 0.647678 -0.219108
C193  C     C_1   0.088746 0.312408 0.307871 0.356704
N5    N     N_1   0.119079 0.298017 0.235168 -0.254758
C194  C     C_1   0.944128 0.762907 0.516487 0.343908
N6    N     N_1   0.921590 0.815367 0.521069 -0.236406
C195  C     C_1   0.977079 0.263785 0.392649 0.313384
N7    N     N_1   0.962357 0.216248 0.366018 -0.249545
C196  C     C_1   0.037584 0.762522 0.545532 0.342819
N8    N     N_1   0.056267 0.815709 0.552168 -0.235028
N9    N     N_R   0.262197 0.999922 0.446540 0.149393
O49   O     O_R   0.263478 0.995643 0.368244 -0.348625
O50   O     O_R   0.215876 0.000398 0.518587 -0.336744
N10   N     N_R   0.728679 0.998231 0.574599 0.140169
O51   O     O_R   0.780028 0.997507 0.518625 -0.318067
O52   O     O_R   0.713628 0.011148 0.658789 -0.360955
N11   N     N_R   0.766793 0.499655 0.438041 0.146267
O53   O     O_R   0.716958 0.498570 0.500887 -0.324904
O54   O     O_R   0.776699 0.507957 0.354944 -0.349421
N12   N     N_R   0.231650 0.498792 0.568890 0.147365
O55   O     O_R   0.219087 0.510895 0.652394 -0.334608
O56   O     O_R   0.282349 0.497860 0.509580 -0.317403
N13   N     N_R   0.673327 0.846507 0.366387 0.109361
O57   O     O_R   0.721271 0.871244 0.313963 -0.408598
O58   O     O_R   0.662544 0.779608 0.363522 -0.342784
N14   N     N_R   0.426217 0.180239 0.391455 0.155780
O59   O     O_R   0.413559 0.167309 0.327172 -0.355702
O60   O     O_R   0.459630 0.232268 0.379904 -0.348695
N15   N     N_R   0.419361 0.823660 0.353805 0.115703
O61   O     O_R   0.425184 0.758689 0.374188 -0.338942
O62   O     O_R   0.403128 0.835464 0.293561 -0.377736
N16   N     N_R   0.565829 0.145734 0.665220 0.116853
O63   O     O_R   0.525414 0.123821 0.739158 -0.334680
O64   O     O_R   0.594914 0.198529 0.668486 -0.356784
N17   N     N_R   0.161802 0.342634 0.379044 0.115514
O65   O     O_R   0.208157 0.369104 0.322037 -0.398092
O66   O     O_R   0.153961 0.274376 0.381878 -0.340382
N18   N     N_R   0.927464 0.675531 0.374690 0.144779
O67   O     O_R   0.906957 0.659080 0.321252 -0.365735
O68   O     O_R   0.967134 0.721078 0.344877 -0.352990
N19   N     N_R   0.872708 0.329033 0.576609 0.155000
O69   O     O_R   0.827729 0.350503 0.642656 -0.368233
O70   O     O_R   0.892562 0.268560 0.584312 -0.338825
N20   N     N_R   0.071013 0.663948 0.652252 0.136293
O71   O     O_R   0.102135 0.651756 0.689568 -0.365118
O72   O     O_R   0.025737 0.696358 0.700843 -0.350946
C197  C     C_1   0.202771 0.955297 0.079311 0.240018
N21   N     N_1   0.207739 0.002854 0.118223 -0.294432
C198  C     C_1   0.894513 0.201861 0.805127 0.259081
N22   N     N_1   0.919676 0.201345 0.727918 -0.194026
C199  C     C_1   0.892936 0.796889 0.806437 0.279210
N23   N     N_1   0.917771 0.796106 0.729190 -0.252141
C200  C     C_1   0.124400 0.151242 0.182678 0.274741
N24   N     N_1   0.102125 0.135394 0.257683 -0.237394
C201  C     C_1   0.682945 0.425502 0.118311 0.246022
N25   N     N_1   0.680702 0.464068 0.173409 -0.256402
C202  C     C_1   0.391392 0.692872 0.804382 0.240769
N26   N     N_1   0.414716 0.687544 0.727240 -0.244227
C203  C     C_1   0.328426 0.398066 0.864434 0.251084
N27   N     N_1   0.330905 0.433953 0.806618 -0.231869
C204  C     C_1   0.624674 0.668786 0.185123 0.256452
N28   N     N_1   0.601623 0.663435 0.262375 -0.224383

loop_
_geom_bond_atom_site_label_1
_geom_bond_atom_site_label_2
_geom_bond_distance
_ccdc_geom_bond_type
C150  C158  1.397918 A    
Cu2   Cu5   2.671667 S    
C120  C128  1.394459 A    
C194  N6    1.157466 T    
C88   C176  1.398048 A    
C199  N23   1.157069 T    
N11   O54   1.300900 A    
O38   Cu10  1.968675 S    
C197  N21   1.155760 T    
O33   C183  1.302059 A    
O34   C184  1.307258 A    
O37   Cu9   1.968679 S    
C127  C135  1.426855 A    
Cu6   O22   1.960208 S    
C27   C194  1.451094 S    
C184  O44   1.290021 A    
C22   C30   1.424524 A    
C178  H30   1.077305 S    
C151  H11   1.080275 S    
C166  C174  1.383702 A    
C118  C126  1.398781 A    
N18   O67   1.302238 A    
O3    Cu3   1.970011 S    
C50   C76   1.433038 A    
C106  C146  1.413939 A    
C107  C115  1.423155 A    
C19   C33   1.399955 A    
C55   C62   1.418482 A    
C7    C128  1.480661 S    
O15   Cu7   1.953535 S    
C187  O47   1.290113 A    
C95   C164  1.422152 A    
C152  C160  1.391982 A    
C28   C193  1.444363 S    
C33   C35   1.411301 A    
C113  C187  1.482803 S    
C101  C149  1.405683 A    
C82   C146  1.429126 A    
C114  C188  1.494235 S    
C36   C43   1.393883 A    
O25   C9    1.292023 A    
C98   C157  1.420110 A    
C17   C76   1.426216 A    
C37   C39   1.411527 A    
C135  C167  1.407975 A    
N20   O71   1.301249 A    
C162  C202  1.446894 S    
C3    C132  1.488281 S    
C53   C61   1.414998 A    
C1    C130  1.497260 S    
C3    O19   1.279114 A    
Cu12  O42   1.962210 S    
C113  C121  1.398444 A    
Cu8   O32   1.977025 S    
C168  C176  1.385819 A    
C61   N9    1.435776 S    
C164  C204  1.447715 S    
C154  H14   1.078459 S    
C25   C196  1.451169 S    
N11   O53   1.302895 A    
C104  C152  1.409797 A    
C183  O43   1.291213 A    
O12   Cu4   1.953535 S    
N12   O55   1.300954 A    
O13   Cu5   1.955411 S    
C57   C63   1.413822 A    
C23   C31   1.412533 A    
C167  H19   1.078998 S    
C109  C183  1.480054 S    
C121  C129  1.398132 A    
C90   C98   1.430011 A    
C100  C159  1.420281 A    
C114  C122  1.401525 A    
C8    O24   1.285894 A    
N10   O51   1.302619 A    
C179  H31   1.074456 S    
C128  C136  1.428460 A    
C84   C95   1.421005 A    
C50   C58   1.418754 A    
O2    C13   1.309443 A    
C175  H27   1.079392 S    
C92   C180  1.404553 A    
C156  H16   1.078910 S    
Cu3   O19   1.956053 S    
C186  O46   1.283585 A    
Cu9   O48   1.973793 S    
O10   Cu2   1.955411 S    
Cu10  O47   1.973796 S    
C107  C155  1.410255 A    
C119  H3    1.083210 S    
C120  H4    1.083572 S    
C198  N22   1.157265 T    
C130  C138  1.434753 A    
C131  C139  1.419386 A    
C86   C94   1.410314 A    
N17   O65   1.300973 A    
C103  C143  1.407806 A    
C152  H12   1.080002 S    
C170  C178  1.388796 A    
C102  C142  1.411679 A    
C16   C55   1.496446 S    
C49   C75   1.429860 A    
C78   C142  1.418789 A    
C126  C134  1.428672 A    
C18   C36   1.390342 A    
C138  C170  1.411187 A    
C6    O22   1.286574 A    
C34   C36   1.399952 A    
C79   C100  1.412995 A    
C22   C40   1.414582 A    
C166  H18   1.074440 S    
O7    C12   1.299559 A    
C139  C147  1.409758 A    
Cu2   O26   1.969624 S    
C62   N10   1.437420 S    
Cu9   Cu10  2.678000 S    
C38   C40   1.420750 A    
C35   C44   1.410290 A    
C72   N16   1.439134 S    
N14   O59   1.302631 A    
C84   C92   1.416366 A    
N16   O64   1.298398 A    
C19   C27   1.418660 A    
C45   C53   1.443770 A    
C161  C201  1.447115 S    
C22   C71   1.441577 A    
C47   C55   1.442263 A    
C121  H5    1.083533 S    
O33   Cu11  1.968679 S    
O16   C3    1.310166 A    
O29   C13   1.293678 A    
C188  O48   1.290237 A    
N9    O50   1.302955 A    
C155  C163  1.389797 A    
C46   C66   1.418103 A    
C165  C173  1.391440 A    
C153  C161  1.393300 A    
Cu4   O28   1.977025 S    
C89   C97   1.420878 A    
Cu5   O29   1.969623 S    
C97   C158  1.414669 A    
N13   O58   1.302437 A    
C8    C127  1.487169 S    
C41   C65   1.416139 A    
Cu7   O31   1.977026 S    
C168  H20   1.075290 S    
C117  H1    1.083603 S    
N19   O70   1.301119 A    
C115  C123  1.395419 A    
C90   C178  1.404396 A    
C111  C119  1.399691 A    
C76   N20   1.454795 S    
C195  N7    1.157332 T    
Cu4   Cu7   2.664238 S    
C30   C191  1.452480 S    
C17   C25   1.423792 A    
C84   C148  1.429182 A    
C193  N5    1.155818 T    
C185  O45   1.287251 A    
C20   C28   1.421879 A    
C77   C141  1.424532 A    
O9    C6    1.308303 A    
O26   C10   1.288006 A    
C181  O41   1.289413 A    
O11   C8    1.304134 A    
O12   C7    1.304317 A    
C123  C131  1.394249 A    
O14   Cu6   1.955411 S    
C163  C203  1.447875 S    
O13   C2    1.306047 A    
C124  H8    1.083406 S    
Cu11  O41   1.962210 S    
C110  C184  1.485927 S    
O38   C188  1.310342 A    
C108  C156  1.407816 A    
C2    C129  1.480791 S    
C11   C60   1.486510 S    
C13   C54   1.502382 S    
C24   C38   1.402388 A    
C138  C146  1.416408 A    
C34   C44   1.398680 A    
O40   Cu9   1.958377 S    
O39   C185  1.304143 A    
C39   C42   1.407143 A    
C85   C173  1.406611 A    
C134  C142  1.414862 A    
O1    Cu1   1.961604 S    
C31   C190  1.452535 S    
C17   C35   1.403268 A    
C50   C68   1.412222 A    
C106  C154  1.411338 A    
C48   C65   1.409045 A    
C24   C69   1.430159 A    
C21   C39   1.416116 A    
O7    Cu7   1.970011 S    
C103  C111  1.426164 A    
O8    Cu8   1.970013 S    
C33   C43   1.399729 A    
C170  H22   1.074627 S    
O40   C186  1.311926 A    
C122  C130  1.402218 A    
C91   C99   1.425519 A    
Cu9   O45   1.962210 S    
N18   O68   1.301271 A    
C89   C177  1.400976 A    
C190  N2    1.157385 T    
C133  C165  1.406907 A    
C32   C189  1.451434 S    
C51   C59   1.437180 A    
C21   C72   1.424141 A    
C73   N17   1.435172 S    
C169  C177  1.390477 A    
C79   C87   1.412876 A    
C48   C56   1.427285 A    
C149  C157  1.395722 A    
C77   C98   1.417526 A    
C5    C126  1.484680 S    
Cu11  Cu12  2.678000 S    
O11   Cu3   1.953535 S    
N20   O72   1.301767 A    
C87   C95   1.425917 A    
C88   C96   1.405456 A    
C136  C168  1.412437 A    
C116  C186  1.484262 S    
C85   C93   1.421121 A    
O6    Cu6   1.961602 S    
C129  C137  1.424344 A    
C172  C180  1.387560 A    
C14   C53   1.510816 S    
C132  C140  1.433604 A    
C133  C141  1.414151 A    
C176  H28   1.082781 S    
Cu3   O27   1.977026 S    
C25   C27   1.421724 A    
N12   O56   1.302723 A    
C136  C144  1.415906 A    
O37   C187  1.304470 A    
C81   C94   1.407080 A    
C123  H7    1.083425 S    
C105  C145  1.412907 A    
C124  C132  1.395629 A    
C48   C70   1.424269 A    
C59   C64   1.416172 A    
C125  C133  1.427180 A    
N15   O61   1.302203 A    
C94   C161  1.412461 A    
C56   C61   1.413547 A    
C83   C147  1.415639 A    
Cu1   O17   1.960207 S    
C81   C145  1.416774 A    
N10   O52   1.300926 A    
C140  C172  1.409101 A    
C101  C141  1.409283 A    
C196  N8    1.157496 T    
C15   C56   1.491944 S    
C104  C144  1.403062 A    
N13   O57   1.300578 A    
C60   C63   1.409385 A    
C64   N12   1.437181 S    
C167  C175  1.391119 A    
O5    Cu5   1.961604 S    
C155  H15   1.078850 S    
C191  N3    1.157626 T    
C153  H13   1.079404 S    
C200  N24   1.157929 T    
C122  H6    1.083222 S    
C37   C41   1.412147 A    
O30   C14   1.294110 A    
C86   C174  1.394884 A    
Cu6   O30   1.969624 S    
C149  H9    1.081809 S    
O4    C15   1.301521 A    
O5    C10   1.307021 A    
C204  N28   1.157738 T    
C118  H2    1.083338 S    
C18   C26   1.410095 A    
C159  C199  1.446254 S    
C158  C198  1.445643 S    
C110  C118  1.398683 A    
C83   C91   1.415448 A    
C108  C148  1.406225 A    
C51   C68   1.421998 A    
C81   C89   1.414176 A    
C45   C71   1.433411 A    
C80   C88   1.404725 A    
C47   C69   1.431357 A    
C92   C100  1.421659 A    
O35   C181  1.307131 A    
Cu1   Cu6   2.671667 S    
C112  C182  1.475400 S    
C102  C110  1.425750 A    
Cu3   Cu8   2.664238 S    
N19   O69   1.302300 A    
C174  H26   1.082644 S    
O10   C5    1.307257 A    
O27   C11   1.283207 A    
O15   C4    1.300031 A    
C182  O42   1.284526 A    
C19   C74   1.428182 A    
C44   C68   1.404801 A    
N14   O60   1.301415 A    
O14   C1    1.310357 A    
C4    C131  1.476483 S    
C169  H21   1.079165 S    
C49   C67   1.419182 A    
Cu4   O20   1.956052 S    
C91   C179  1.404400 A    
Cu5   O21   1.960207 S    
O35   Cu12  1.958377 S    
C4    O20   1.285475 A    
C104  C112  1.424452 A    
O36   Cu11  1.958377 S    
C5    O21   1.284391 A    
C108  C116  1.431630 A    
C171  C179  1.388648 A    
C109  C117  1.397929 A    
C117  C125  1.396379 A    
C180  H32   1.080135 S    
C26   C28   1.416255 A    
C202  N26   1.157470 T    
C112  C120  1.394843 A    
C157  C197  1.442196 S    
O2    Cu2   1.961602 S    
N9    O49   1.301005 A    
O39   Cu10  1.958377 S    
C101  C109  1.423823 A    
C139  C171  1.406598 A    
C201  N25   1.157453 T    
C172  H24   1.077393 S    
C137  C169  1.412995 A    
C79   C143  1.423649 A    
C165  H17   1.080294 S    
C80   C144  1.417356 A    
Cu7   O23   1.956053 S    
Cu10  O46   1.962210 S    
C20   C34   1.403398 A    
C29   C31   1.415677 A    
C38   C42   1.415421 A    
C46   C54   1.425527 A    
C9    C58   1.486212 S    
C75   N19   1.443215 S    
C111  C181  1.485748 S    
C192  N4    1.157605 T    
C7    O23   1.280844 A    
N17   O66   1.302499 A    
C106  C114  1.430359 A    
C107  C147  1.410122 A    
C78   C97   1.410848 A    
C6    C125  1.487243 S    
C87   C175  1.407133 A    
C105  C113  1.425109 A    
C42   C66   1.415562 A    
O16   Cu8   1.953535 S    
C119  C127  1.399049 A    
C93   C162  1.414294 A    
C102  C150  1.411545 A    
C156  C164  1.393194 A    
C20   C73   1.424334 A    
C74   N18   1.454297 S    
C154  C162  1.394895 A    
C45   C65   1.415472 A    
C115  C185  1.476112 S    
C2    O18   1.285318 A    
N15   O62   1.301600 A    
Cu12  O43   1.973796 S    
C70   N14   1.452114 S    
C26   C195  1.448619 S    
C189  N1    1.156558 T    
C51   C73   1.433668 A    
C49   C57   1.435270 A    
C46   C72   1.420050 A    
O1    C14   1.311687 A    
C82   C93   1.413393 A    
N16   O63   1.300943 A    
C96   C163  1.412384 A    
O3    C16   1.298994 A    
C52   C67   1.407226 A    
C71   N15   1.434839 S    
C151  C159  1.395662 A    
C171  H23   1.080504 S    
C80   C99   1.419486 A    
Cu2   O18   1.960208 S    
O8    C11   1.303954 A    
C140  C148  1.413451 A    
C160  C200  1.446099 S    
O9    Cu1   1.955411 S    
C18   C75   1.406666 A    
C69   N13   1.427330 S    
C52   C60   1.429835 A    
O31   C15   1.287929 A    
C23   C37   1.399643 A    
C21   C29   1.425113 A    
O32   C16   1.294260 A    
O36   C182  1.307591 A    
C10   C57   1.494389 S    
C177  H29   1.081417 S    
C29   C192  1.451320 S    
C137  C145  1.410035 A    
C40   C41   1.395784 A    
C135  C143  1.411052 A    
C150  H10   1.080508 S    
O4    Cu4   1.970013 S    
C103  C151  1.407636 A    
C12   C59   1.496519 S    
C83   C96   1.410252 A    
C23   C70   1.413343 A    
C105  C153  1.411460 A    
O28   C12   1.293170 A    
C47   C66   1.415938 A    
C173  H25   1.081079 S    
C58   C64   1.405206 A    
C63   N11   1.436770 S    
Cu8   O24   1.956052 S    
C43   C67   1.411416 A    
C24   C32   1.423152 A    
O6    C9    1.300138 A    
Cu1   O25   1.969623 S    
C99   C160  1.419962 A    
O34   Cu12  1.968675 S    
C116  C124  1.396497 A    
Cu11  O44   1.973793 S    
C1    O17   1.288094 A    
C134  C166  1.415820 A    
C30   C32   1.418354 A    
C78   C86   1.410381 A    
C203  N27   1.157480 T    
C77   C85   1.413506 A    
C52   C74   1.435301 A    
C82   C90   1.415594 A    
C54   C62   1.402290 A    
