data_mof_unit_16498.cif
_audit_creation_date              2012-12-11T15:59:34-0500
_audit_creation_method            fapswitch 2.2
_symmetry_space_group_name_H-M    P1
_symmetry_Int_Tables_number       1
_space_group_crystal_system       triclinic
_cell_length_a                    10.823748
_cell_length_b                    10.781203
_cell_length_c                    17.032587
_cell_angle_alpha                 100.026351
_cell_angle_beta                  99.949273
_cell_angle_gamma                 60.128145
_cell_volume                      1688.55243728

loop_
_atom_site_label
_atom_site_type_symbol
_atom_type_description
_atom_site_fract_x
_atom_site_fract_y
_atom_site_fract_z
_atom_type_partial_charge
C1    C     C_R   0.356664 0.768370 0.397259 0.578916
C2    C     C_R   0.852159 0.210101 0.200502 -0.006118
C3    C     C_R   0.872927 0.203655 0.284427 0.032516
C4    C     C_R   0.870980 0.432739 0.304893 -0.153002
C5    C     C_R   0.869108 0.431125 0.224187 -0.143149
C6    C     C_R   0.833641 0.100330 0.150433 -0.074484
C7    C     C_R   0.863498 0.975765 0.181082 -0.143508
C8    C     C_R   0.906969 0.960697 0.262313 -0.104253
C9    C     C_R   0.909418 0.074001 0.314654 0.175046
C10   C     C_R   0.858416 0.327039 0.334787 0.022404
C11   C     C_R   0.353978 0.803481 0.152761 0.022219
C12   C     C_R   0.369264 0.345942 0.357578 0.562599
C13   C     C_R   0.464954 0.809007 0.207520 0.032587
C14   C     C_R   0.450442 0.828064 0.290629 -0.007997
C15   C     C_R   0.260200 0.763500 0.257803 -0.142328
C16   C     C_R   0.262722 0.764812 0.177752 -0.149809
C17   C     C_R   0.592088 0.790067 0.182916 0.168062
C18   C     C_R   0.691884 0.808918 0.239690 -0.105575
C19   C     C_R   0.664429 0.854836 0.319376 -0.137965
C20   C     C_R   0.543884 0.865325 0.344973 -0.085176
C21   C     C_R   0.347307 0.802332 0.315929 0.016210
C22   C     C_R   0.309320 0.281576 0.801639 0.009193
C23   C     C_R   0.781571 0.373708 0.405860 0.581989
C24   C     C_R   0.451894 0.201459 0.775080 0.030409
C25   C     C_R   0.483584 0.268216 0.725101 -0.012560
C26   C     C_R   0.234075 0.436788 0.696438 -0.102999
C27   C     C_R   0.202814 0.403125 0.762299 0.112509
C28   C     C_R   0.570586 0.067700 0.799848 0.200022
C29   C     C_R   0.711589 0.028738 0.791049 -0.057966
C30   C     C_R   0.738849 0.112969 0.752818 -0.112821
C31   C     C_R   0.624705 0.233341 0.721766 -0.089123
C32   C     C_R   0.374085 0.366476 0.676464 -0.035093
C33   C     C_1   0.857856 0.325824 0.703767 -0.003901
C34   C     C_R   0.381550 0.714268 0.631014 0.536184
C35   C     C_1   0.903282 0.291334 0.771084 -0.027221
C36   C     C_1   0.357754 0.762184 0.713499 0.004107
C37   C     C_1   0.324232 0.809076 0.780577 0.019055
C38   C     C_R   0.896222 0.308358 0.089781 0.571371
C39   C     C_R   0.319308 0.300776 0.119897 0.552119
C40   C     C_R   0.298627 0.884222 0.082458 0.575792
C41   C     C_R   0.946356 0.271988 0.854881 0.545796
C42   C     C_R   0.282750 0.255223 0.876846 0.546655
C43   C     C_R   0.280596 0.880477 0.857950 0.560486
C44   C     C_R   0.405865 0.377833 0.599553 0.527723
C45   C     C_R   0.783082 0.376132 0.627438 0.548443
C46   C     C_1   0.342995 0.336321 0.274157 -0.036357
C47   C     C_1   0.331451 0.327336 0.203277 -0.036787
C48   C     C_R   0.856259 0.323310 0.170257 0.009673
Cr1   Cr    Cr6+3 0.608100 0.610860 0.522250 1.059327
Cr2   Cr    Cr6+3 0.288890 0.599990 0.488420 1.045316
Cr3   Cr    Cr6+3 0.603040 0.289190 0.489390 1.056496
Cr4   Cr    Cr6+3 0.053960 0.052250 0.967380 1.029210
Cr5   Cr    Cr6+3 0.059890 0.373160 0.992710 1.101309
Cr6   Cr    Cr6+3 0.373370 0.061690 0.991710 1.104120
H1    H     H_    0.871177 0.524121 0.343243 0.151532
H2    H     H_    0.793155 0.782461 0.221678 0.114419
H3    H     H_    0.740381 0.875061 0.362218 0.139075
H4    H     H_    0.526727 0.899812 0.407486 0.153366
H5    H     H_    0.149130 0.520486 0.662056 0.177676
H6    H     H_    0.800471 0.927912 0.809258 0.177874
H7    H     H_    0.847634 0.079671 0.743450 0.139066
H8    H     H_    0.641138 0.305015 0.696201 0.125206
H9    H     H_    0.796884 0.108637 0.087456 0.154511
H10   H     H_    0.881237 0.514267 0.204558 0.163737
H11   H     H_    0.857546 0.888948 0.140906 0.139942
H12   H     H_    0.940550 0.860139 0.285264 0.117438
H13   H     H_    0.189718 0.729703 0.273619 0.147508
H14   H     H_    0.184337 0.746673 0.135824 0.150759
O1    O     O_R   0.749810 0.499790 0.438040 -0.525460
O2    O     O_R   0.298970 0.468800 0.557390 -0.513518
O3    O     O_R   0.489400 0.255930 0.561910 -0.485413
O4    O     O_R   0.723890 0.306050 0.584610 -0.522423
O5    O     O_3   0.500010 0.500010 0.500020 -0.310679
O6    O     O_R   0.171100 0.914680 0.053100 -0.519265
O7    O     O_R   0.941680 0.184840 0.050710 -0.509149
O8    O     O_R   0.922080 0.403420 0.072610 -0.476388
O9    O     O_R   0.196880 0.369150 0.083850 -0.503167
O10   O     O_R   0.411730 0.181020 0.091530 -0.492025
O11   O     O_R   0.365010 0.944360 0.063320 -0.456717
O12   O     O_R   0.477660 0.726260 0.439290 -0.507695
O13   O     O_R   0.159380 0.906670 0.876210 -0.518536
O14   O     O_R   0.930820 0.177420 0.886730 -0.505033
O15   O     O_R   0.910360 0.395420 0.895720 -0.425719
O16   O     O_R   0.186010 0.361730 0.919870 -0.461714
O17   O     O_R   0.400000 0.173010 0.914630 -0.488573
O18   O     O_R   0.354140 0.936940 0.899340 -0.451091
O19   O     O_3   0.162410 0.162370 0.983930 -0.316254
O20   O     O_R   0.260150 0.743000 0.412270 -0.477549
O21   O     O_R   0.297740 0.466550 0.394720 -0.502955
O22   O     O_R   0.488080 0.253500 0.386430 -0.496445
O23   O     O_R   0.722670 0.303800 0.421940 -0.461762
O24   O     O_R   0.751130 0.502220 0.613520 -0.470061
O25   O     O_R   0.478890 0.728510 0.601960 -0.453582
O26   O     O_R   0.261470 0.745430 0.587750 -0.490482
Br1   Br    Br    0.562453 0.901720 0.811084 -0.448911
Br2   Br    Br    0.014313 0.536279 0.793718 -0.459820
Br3   Br    Br    0.988362 0.034626 0.423467 -0.494109
Br4   Br    Br    0.651749 0.708251 0.077332 -0.477287

loop_
_geom_bond_atom_site_label_1
_geom_bond_atom_site_label_2
_ccdc_geom_bond_type
C25   C31   A    
C1    C21   S    
C33   C45   S    
C23   O1    A    
C19   C20   A    
C34   O25   A    
Cr4   O7    S    
C7    C8    A    
C38   O8    A    
C19   H3    S    
C8    H12   S    
C26   C27   A    
Cr5   O16   S    
C39   O9    A    
C14   C21   A    
C12   O22   A    
C36   C37   T    
Cr4   O6    S    
Cr3   O22   S    
C30   C31   A    
Cr3   O5    S    
Cr1   O5    S    
C15   C16   A    
C41   O15   A    
C44   O3    A    
C18   C19   A    
C45   O24   A    
Cr3   O23   S    
C8    C9    A    
C22   C42   S    
C44   O2    A    
C16   H14   S    
C24   C28   A    
C17   Br4   S    
C38   C48   S    
C18   H2    S    
C1    O20   A    
Cr1   O1    S    
C13   C14   A    
C45   O4    A    
C31   H8    S    
C27   Br2   S    
C2    C6    A    
Cr3   O3    S    
C38   O7    A    
C5    C48   A    
C11   C40   S    
C39   O10   A    
C14   C20   A    
C12   O21   A    
C42   O16   A    
C24   C25   A    
C12   C46   S    
Cr2   O5    S    
Cr6   O18   S    
C26   C32   A    
Cr2   O26   S    
C2    C48   A    
C5    H10   S    
C6    H9    S    
C37   C43   S    
Cr5   O9    S    
C29   C30   A    
C3    C9    A    
C7    H11   S    
C11   C16   A    
Cr2   O21   S    
C29   H6    S    
C15   H13   S    
C17   C18   A    
C32   C44   S    
C40   O11   A    
Cr5   O19   S    
C42   O17   A    
Cr4   O14   S    
C22   C27   A    
C28   Br1   S    
C4    H1    S    
C43   O13   A    
C23   O23   A    
Cr5   O8    S    
Cr3   O4    S    
Cr1   O24   S    
C4    C10   A    
C39   C47   S    
Cr6   O11   S    
C26   H5    S    
C46   C47   T    
C28   C29   A    
C9    Br3   S    
C43   O18   A    
Cr4   O19   S    
C34   O26   A    
C4    C5    A    
Cr6   O17   S    
C6    C7    A    
Cr2   O20   S    
C10   C23   S    
Cr1   O12   S    
C13   C17   A    
Cr5   O15   S    
C2    C3    A    
Cr2   O2    S    
C3    C10   A    
C11   C13   A    
Cr6   O19   S    
C25   C32   A    
C41   O14   A    
C33   C35   T    
C34   C36   S    
C40   O6    A    
C22   C24   A    
Cr4   O13   S    
C35   C41   S    
C15   C21   A    
C30   H7    S    
C1    O12   A    
Cr1   O25   S    
C20   H4    S    
Cr6   O10   S    
