data_mof_unit_63328.cif
_audit_creation_date              2012-10-26T18:15:01-0400
_audit_creation_method            fapswitch 2.2
_symmetry_space_group_name_H-M    P1
_symmetry_Int_Tables_number       1
_space_group_crystal_system       triclinic
_cell_length_a                    30.246613
_cell_length_b                    21.395528
_cell_length_c                    21.398078
_cell_angle_alpha                 90.135828
_cell_angle_beta                  134.969953
_cell_angle_gamma                 89.778295
_cell_volume                      9796.79117014

loop_
_atom_site_label
_atom_site_type_symbol
_atom_type_description
_atom_site_fract_x
_atom_site_fract_y
_atom_site_fract_z
_atom_type_partial_charge
C1    C     C_R   0.120366 0.499494 0.120366 0.607080
C2    C     C_3   0.499742 0.811020 0.999548 0.048408
C3    C     C_3   0.499609 0.499506 0.188678 0.049242
C4    C     C_3   0.992702 0.770604 0.934195 -0.115629
C5    C     C_3   0.022193 0.229060 0.967112 -0.112311
C6    C     C_3   0.492661 0.270604 0.934159 -0.115632
C7    C     C_3   0.521968 0.729061 0.966799 -0.112365
C8    C     C_3   0.000418 0.811024 0.000655 0.050906
C9    C     C_3   0.999685 0.188982 0.999485 0.049254
C10   C     C_3   0.500418 0.311024 0.000655 0.050906
C11   C     C_3   0.499686 0.688982 0.999490 0.049250
C12   C     C_3   0.055268 0.770641 0.078082 -0.123912
C13   C     C_3   0.230582 0.455801 0.192206 0.253543
C14   C     C_3   0.035953 0.229279 0.082592 -0.124694
C15   C     C_3   0.555285 0.270641 0.078059 -0.123910
C16   C     C_3   0.536148 0.729279 0.082641 -0.124706
C17   C     C_3   0.008314 0.729509 0.067322 -0.125175
C18   C     C_3   0.977260 0.270858 0.031926 -0.127304
C19   C     C_3   0.508356 0.229509 0.067359 -0.125174
C20   C     C_3   0.477489 0.770857 0.032251 -0.127311
C21   C     C_3   0.953511 0.770874 0.989939 -0.125732
C22   C     C_3   0.940961 0.229587 0.948759 -0.126806
C23   C     C_3   0.453537 0.270874 0.989999 -0.125722
C24   C     C_3   0.229485 0.554599 0.211087 0.256136
C25   C     C_3   0.440995 0.729588 0.949040 -0.126814
C26   C     C_3   0.069888 0.149232 0.819916 0.003623
C27   C     C_3   0.140836 0.153642 0.898192 -0.258591
C28   C     C_3   0.169268 0.197545 0.878301 -0.491617
C29   C     C_3   0.093480 0.864033 0.843306 0.009287
C30   C     C_3   0.063610 0.799848 0.822458 -0.260894
C31   C     C_3   0.087344 0.752948 0.797813 -0.485237
C32   C     C_3   0.569984 0.649186 0.820002 0.003625
C33   C     C_3   0.640937 0.653542 0.898268 -0.258585
C34   C     C_3   0.669394 0.697416 0.878391 -0.491632
C35   C     C_3   0.730582 0.955788 0.192221 0.253552
C36   C     C_3   0.593399 0.363979 0.843225 0.009284
C37   C     C_3   0.563509 0.299804 0.822363 -0.260896
C38   C     C_3   0.587224 0.252894 0.797701 -0.485231
C39   C     C_3   0.253902 0.378152 0.142933 0.008495
C40   C     C_3   0.251211 0.396281 0.071164 -0.256137
C41   C     C_3   0.302996 0.364232 0.085552 -0.494385
C42   C     C_3   0.248994 0.657102 0.200704 0.005490
C43   C     C_3   0.241931 0.709086 0.242300 -0.260075
C44   C     C_3   0.289645 0.760891 0.279731 -0.485789
C45   C     C_3   0.753905 0.878114 0.142979 0.008481
C46   C     C_3   0.729485 0.054593 0.211070 0.256134
C47   C     C_3   0.751222 0.896219 0.071211 -0.256138
C48   C     C_3   0.803010 0.864155 0.085618 -0.494382
C49   C     C_3   0.748995 0.157087 0.200661 0.005496
C50   C     C_3   0.741928 0.209082 0.242242 -0.260078
C51   C     C_3   0.789644 0.260883 0.279672 -0.485792
C52   C     C_3   0.270984 0.511659 0.212161 -0.113247
C53   C     C_3   0.770985 0.011640 0.212158 -0.113236
C54   C     C_3   0.311220 0.500174 0.311372 -0.038982
C55   C     C_3   0.811220 0.000173 0.311373 -0.038984
C56   C     C_3   0.271390 0.443307 0.290842 -0.138984
C57   C     C_R   0.620366 0.999494 0.120366 0.607081
C58   C     C_3   0.270406 0.544653 0.310385 -0.133914
C59   C     C_3   0.771390 0.943313 0.290860 -0.138978
C60   C     C_3   0.770406 0.044665 0.310371 -0.133927
C61   C     C_3   0.229418 0.487931 0.288002 -0.192301
C62   C     C_3   0.729418 0.987949 0.288005 -0.192298
C63   C     C_3   0.188796 0.499163 0.189009 0.084910
C64   C     C_3   0.688796 0.999162 0.189009 0.084912
C65   C     C_3   0.770497 0.557463 0.757812 -0.113740
C66   C     C_3   0.770812 0.459331 0.727680 -0.120428
C67   C     C_3   0.270496 0.057373 0.757412 -0.113784
C68   C     C_3   0.945782 0.729346 0.923440 -0.122481
C69   C     C_3   0.270814 0.959033 0.727968 -0.120331
C70   C     C_3   0.729199 0.517143 0.673049 -0.113871
C71   C     C_3   0.229199 0.016751 0.672932 -0.113800
C72   C     C_R   0.000288 0.620442 0.000364 0.563764
C73   C     C_R   0.999884 0.379561 0.999820 0.556484
C74   C     C_R   0.500289 0.120442 0.000365 0.563761
C75   C     C_R   0.499885 0.879561 0.999821 0.556488
C76   C     C_3   0.688966 0.499649 0.689440 0.047075
C77   C     C_3   0.188966 0.999652 0.689445 0.047076
C78   C     C_3   0.729128 0.539971 0.773122 -0.121615
C79   C     C_3   0.963449 0.270720 0.916401 -0.122191
C80   C     C_3   0.729529 0.441861 0.743011 -0.127717
C81   C     C_3   0.229127 0.040276 0.772845 -0.121691
C82   C     C_3   0.229528 0.941957 0.743418 -0.127692
C83   C     C_3   0.770697 0.482230 0.827690 -0.126817
C84   C     C_3   0.270695 0.982630 0.827814 -0.126864
C85   C     C_3   0.810998 0.499697 0.811314 0.048945
C86   C     C_3   0.310997 0.999701 0.811318 0.048939
C87   C     C_R   0.999990 0.000097 0.879717 0.608265
C88   C     C_R   0.499990 0.500098 0.879717 0.608262
C89   C     C_R   0.000119 0.879558 0.000257 0.558189
C90   C     C_3   0.445767 0.229346 0.923463 -0.122470
C91   C     C_R   0.999914 0.120443 0.999869 0.561814
C92   C     C_R   0.500119 0.379558 0.000257 0.558203
C93   C     C_R   0.499914 0.620443 0.999871 0.561794
C94   C     C_R   0.999900 0.999756 0.120428 0.547163
C95   C     C_R   0.499900 0.499757 0.120428 0.547162
C96   C     C_R   0.499707 0.499898 0.379325 0.553154
C97   C     C_R   0.999707 0.999898 0.379325 0.553154
C98   C     C_R   0.379612 0.500081 0.379841 0.556914
C99   C     C_R   0.879612 0.000081 0.379842 0.556912
C100  C     C_R   0.500127 0.500041 0.620584 0.556519
C101  C     C_3   0.463257 0.770721 0.916363 -0.122228
C102  C     C_R   0.000128 0.000041 0.620584 0.556519
C103  C     C_R   0.879550 0.499869 0.879615 0.547355
C104  C     C_R   0.379550 0.999871 0.879616 0.547357
C105  C     C_R   0.620434 0.499899 0.620722 0.552872
C106  C     C_R   0.120434 0.999900 0.620725 0.552871
C107  C     C_3   0.022984 0.053495 0.793247 0.257118
C108  C     C_3   0.034700 0.953403 0.804827 0.251728
C109  C     C_3   0.523019 0.553481 0.793281 0.257112
C110  C     C_3   0.534669 0.453383 0.804796 0.251734
C111  C     C_3   0.559943 0.506891 0.789270 -0.114335
C112  C     C_3   0.000581 0.688990 0.000840 0.050933
C113  C     C_3   0.059939 0.006930 0.789267 -0.114348
C114  C     C_3   0.500333 0.500070 0.689224 -0.039317
C115  C     C_3   0.000333 0.000070 0.689225 -0.039316
C116  C     C_3   0.464210 0.548038 0.693420 -0.133844
C117  C     C_3   0.476154 0.445331 0.705261 -0.139122
C118  C     C_3   0.964179 0.048013 0.693390 -0.133827
C119  C     C_3   0.976190 0.945315 0.705296 -0.139131
C120  C     C_3   0.940734 0.993386 0.711279 -0.192475
C121  C     C_3   0.440729 0.493427 0.711274 -0.192477
C122  C     C_3   0.999666 0.000182 0.810970 0.086123
C123  C     C_3   0.999740 0.311020 0.999544 0.048398
C124  C     C_3   0.499667 0.500185 0.810970 0.086120
C125  C     C_3   0.043853 0.960016 0.273168 -0.120086
C126  C     C_3   0.011441 0.057543 0.240923 -0.113704
C127  C     C_3   0.543815 0.459974 0.273129 -0.120068
C128  C     C_3   0.511496 0.557532 0.240978 -0.113721
C129  C     C_3   0.555727 0.518055 0.326558 -0.114236
C130  C     C_3   0.055709 0.018109 0.326540 -0.114245
C131  C     C_3   0.499457 0.499577 0.310550 0.047412
C132  C     C_3   0.999456 0.999576 0.310550 0.047407
C133  C     C_3   0.047557 0.729109 0.011642 -0.114864
C134  C     C_3   0.500582 0.188990 0.000841 0.050934
C135  C     C_3   0.058454 0.270507 0.050198 -0.115736
C136  C     C_3   0.547532 0.229109 0.011584 -0.114865
C137  C     C_3   0.558422 0.770506 0.049927 -0.115742
C138  C     C_3   0.487546 0.441504 0.258172 -0.128641
C139  C     C_3   0.455166 0.539029 0.226039 -0.120904
C140  C     C_3   0.987601 0.941492 0.258228 -0.128645
C141  C     C_3   0.955129 0.038986 0.226001 -0.120888
C142  C     C_3   0.943291 0.980966 0.172679 -0.127942
C143  C     C_3   0.443272 0.481021 0.172661 -0.127951
C144  C     C_3   0.999610 0.999505 0.188679 0.049242
Cu1   Cu    Cu3+1 0.000000 0.500000 0.062770 0.911614
Cu2   Cu    Cu3+1 0.499990 0.437240 0.500060 0.892281
Cu3   Cu    Cu3+1 0.999990 0.062760 0.500060 0.892185
Cu4   Cu    Cu3+1 0.999990 0.937240 0.500060 0.892298
Cu5   Cu    Cu3+1 0.500000 0.000000 0.062770 0.911585
Cu6   Cu    Cu3+1 0.000000 0.500000 0.937230 0.951364
Cu7   Cu    Cu3+1 0.500000 1.000000 0.937230 0.951394
Cu8   Cu    Cu3+1 0.937240 0.000000 0.937300 0.911729
Cu9   Cu    Cu3+1 0.437240 0.500000 0.937300 0.911726
Cu10  Cu    Cu3+1 0.062760 1.000000 0.062860 0.952222
Cu11  Cu    Cu3+1 0.562760 0.500000 0.062860 0.952219
Cu12  Cu    Cu3+1 0.499990 0.562760 0.500060 0.892193
H1    H     H_    0.986250 0.788879 0.879657 0.114827
H2    H     H_    0.289149 0.925726 0.710849 0.111227
H3    H     H_    0.241378 0.677262 0.145893 0.143853
H4    H     H_    0.297912 0.638733 0.250269 0.130718
H5    H     H_    0.194138 0.729269 0.191520 0.168453
H6    H     H_    0.248315 0.689372 0.296241 0.160035
H7    H     H_    0.337878 0.741990 0.332029 0.147366
H8    H     H_    0.283061 0.797900 0.309040 0.145988
H9    H     H_    0.283398 0.782019 0.226523 0.147452
H10   H     H_    0.745713 0.827025 0.138759 0.142265
H11   H     H_    0.801839 0.886748 0.209597 0.127430
H12   H     H_    0.705138 0.882599 0.005502 0.172902
H13   H     H_    0.710751 0.572963 0.790489 0.107246
H14   H     H_    0.756239 0.947629 0.071479 0.162353
H15   H     H_    0.849569 0.878258 0.150196 0.147269
H16   H     H_    0.799642 0.878084 0.032410 0.142864
H17   H     H_    0.798366 0.812554 0.084060 0.144353
H18   H     H_    0.741381 0.177239 0.145849 0.143857
H19   H     H_    0.797913 0.138720 0.250233 0.130715
H20   H     H_    0.694135 0.229265 0.191453 0.168454
H21   H     H_    0.748304 0.189377 0.296181 0.160032
H22   H     H_    0.837876 0.241982 0.331977 0.147367
H23   H     H_    0.783058 0.297899 0.308970 0.145985
H24   H     H_    0.711711 0.394422 0.736012 0.116989
H25   H     H_    0.783403 0.282003 0.226465 0.147453
H26   H     H_    0.210752 0.073516 0.789985 0.107377
H27   H     H_    0.211708 0.894597 0.736749 0.116899
H28   H     H_    0.788736 0.467846 0.892163 0.117207
H29   H     H_    0.288730 0.968571 0.892384 0.117291
H30   H     H_    0.608262 0.511697 0.819376 0.087733
H31   H     H_    0.108255 0.011770 0.819371 0.087759
H32   H     H_    0.435859 0.587558 0.646940 0.120142
H33   H     H_    0.040578 0.210593 0.940534 0.142759
H34   H     H_    0.457275 0.400635 0.668089 0.120443
H35   H     H_    0.935802 0.087515 0.646884 0.120134
H36   H     H_    0.957340 0.900607 0.668151 0.120446
H37   H     H_    0.892372 0.987893 0.680849 0.130258
H38   H     H_    0.392364 0.487967 0.680841 0.130264
H39   H     H_    0.601783 0.533185 0.390975 0.102714
H40   H     H_    0.101751 0.033283 0.390943 0.102723
H41   H     H_    0.086084 0.710702 0.020525 0.134422
H42   H     H_    0.106558 0.288669 0.091708 0.127552
H43   H     H_    0.586038 0.210702 0.020418 0.134404
H44   H     H_    0.486175 0.288879 0.879592 0.114836
H45   H     H_    0.606499 0.788668 0.091212 0.127657
H46   H     H_    0.080188 0.927630 0.291225 0.111846
H47   H     H_    0.021183 0.105066 0.232429 0.102129
H48   H     H_    0.580119 0.427554 0.291154 0.111829
H49   H     H_    0.521284 0.605046 0.232530 0.102146
H50   H     H_    0.477623 0.393887 0.266133 0.115665
H51   H     H_    0.418805 0.571350 0.208025 0.106717
H52   H     H_    0.977724 0.893865 0.266234 0.115685
H53   H     H_    0.918736 0.071272 0.207956 0.106698
H54   H     H_    0.100044 0.788834 0.141563 0.113542
H55   H     H_    0.540169 0.710594 0.939962 0.142805
H56   H     H_    0.065628 0.210991 0.150667 0.109762
H57   H     H_    0.600073 0.288835 0.141523 0.113548
H58   H     H_    0.565981 0.710990 0.150752 0.109845
H59   H     H_    0.014789 0.711677 0.122044 0.121079
H60   H     H_    0.958777 0.289059 0.058460 0.117994
H61   H     H_    0.514865 0.211676 0.122110 0.121075
H62   H     H_    0.459190 0.789055 0.059046 0.118052
H63   H     H_    0.914984 0.789205 0.981090 0.113594
H64   H     H_    0.892716 0.211838 0.907130 0.120669
H65   H     H_    0.415032 0.289205 0.981198 0.113586
H66   H     H_    0.211363 0.478173 0.317574 0.129883
H67   H     H_    0.392778 0.711838 0.907638 0.120642
H68   H     H_    0.900930 0.711058 0.860132 0.103939
H69   H     H_    0.933708 0.288932 0.848276 0.115297
H70   H     H_    0.400901 0.211058 0.860174 0.103923
H71   H     H_    0.433358 0.788936 0.848204 0.115203
H72   H     H_    0.289463 0.522171 0.183363 0.087026
H73   H     H_    0.789464 0.022137 0.183358 0.087025
H74   H     H_    0.289737 0.397123 0.324155 0.124085
H75   H     H_    0.288395 0.581431 0.360219 0.114684
H76   H     H_    0.789737 0.897134 0.324188 0.124083
H77   H     H_    0.711362 0.978205 0.317580 0.129886
H78   H     H_    0.788395 0.081453 0.360194 0.114683
H79   H     H_    0.710812 0.531401 0.608321 0.102609
H80   H     H_    0.210813 0.030685 0.608106 0.102539
H81   H     H_    0.049314 0.196456 0.806484 0.142487
H82   H     H_    0.058060 0.135015 0.759258 0.131559
H83   H     H_    0.152088 0.171158 0.957068 0.172671
H84   H     H_    0.162006 0.106482 0.913806 0.163152
H85   H     H_    0.159839 0.180086 0.820868 0.146898
H86   H     H_    0.220634 0.199945 0.936540 0.143589
H87   H     H_    0.149463 0.245327 0.863769 0.146353
H88   H     H_    0.788660 0.604803 0.765286 0.101217
H89   H     H_    0.144863 0.859416 0.900582 0.145359
H90   H     H_    0.085532 0.880386 0.786453 0.126050
H91   H     H_    0.074728 0.782230 0.881140 0.170823
H92   H     H_    0.012019 0.804097 0.766692 0.156775
H93   H     H_    0.075520 0.768971 0.738079 0.147553
H94   H     H_    0.064977 0.706899 0.783478 0.148967
H95   H     H_    0.138799 0.747232 0.853264 0.143899
H96   H     H_    0.549448 0.696426 0.806612 0.142462
H97   H     H_    0.558135 0.634979 0.759325 0.131561
H98   H     H_    0.652212 0.671054 0.957163 0.172710
H99   H     H_    0.789144 0.426271 0.710326 0.111356
H100  H     H_    0.662070 0.606365 0.913847 0.163142
H101  H     H_    0.659943 0.679958 0.820940 0.146932
H102  H     H_    0.720763 0.699778 0.936623 0.143597
H103  H     H_    0.649627 0.745214 0.863895 0.146352
H104  H     H_    0.644782 0.359346 0.900496 0.145362
H105  H     H_    0.585451 0.380331 0.786372 0.126074
H106  H     H_    0.574625 0.282186 0.881044 0.170823
H107  H     H_    0.511919 0.304070 0.766602 0.156782
H108  H     H_    0.575401 0.268917 0.737968 0.147554
H109  H     H_    0.564844 0.206852 0.783358 0.148966
H110  H     H_    0.288658 0.104637 0.764556 0.101268
H111  H     H_    0.638678 0.247163 0.853147 0.143907
H112  H     H_    0.897158 0.965658 0.108534 0.117617
H113  H     H_    0.397125 0.465758 0.108502 0.117629
H114  H     H_    0.245713 0.327061 0.138700 0.142278
H115  H     H_    0.301837 0.386782 0.209552 0.127414
H116  H     H_    0.205125 0.382665 0.005454 0.172907
H117  H     H_    0.256224 0.447693 0.071446 0.162350
H118  H     H_    0.349556 0.378329 0.150134 0.147255
H119  H     H_    0.299624 0.378180 0.032347 0.142870
H120  H     H_    0.298353 0.312629 0.083977 0.144347
O1    O     O_R   0.091580 0.500000 0.144580 -0.528196
O2    O     O_R   0.552980 0.500000 0.144650 -0.520002
O3    O     O_R   0.499990 0.552970 0.408480 -0.512663
O4    O     O_R   0.499990 0.447030 0.408480 -0.515613
O5    O     O_R   0.999990 0.052970 0.408480 -0.512649
O6    O     O_R   0.999990 0.947030 0.408480 -0.515615
O7    O     O_R   0.408420 0.552990 0.408490 -0.517244
O8    O     O_R   0.408420 0.447010 0.408490 -0.515300
O9    O     O_R   0.908420 0.052990 0.408490 -0.517243
O10   O     O_R   0.908420 0.947010 0.408490 -0.515302
O11   O     O_R   0.500000 0.553030 0.591640 -0.517655
O12   O     O_R   0.591580 1.000000 0.144580 -0.528201
O13   O     O_R   0.500000 0.446970 0.591640 -0.514682
O14   O     O_R   0.000000 0.053030 0.591640 -0.517660
O15   O     O_R   0.000000 0.946970 0.591640 -0.514686
O16   O     O_R   0.591570 0.553010 0.591640 -0.512977
O17   O     O_R   0.591570 0.446990 0.591640 -0.515566
O18   O     O_R   0.091570 0.053010 0.591640 -0.512999
O19   O     O_R   0.091570 0.946990 0.591640 -0.515540
O20   O     O_R   0.091570 0.500000 0.038570 -0.469788
O21   O     O_R   0.591570 1.000000 0.038570 -0.469793
O22   O     O_R   0.999990 0.591570 0.052990 -0.516301
O23   O     O_R   0.053010 0.908430 0.053110 -0.510941
O24   O     O_R   0.999990 0.408430 0.052990 -0.519046
O25   O     O_R   0.499990 0.091570 0.052990 -0.516303
O26   O     O_R   0.499990 0.908430 0.052990 -0.519054
O27   O     O_R   0.999990 0.591570 0.946990 -0.510944
O28   O     O_R   0.999990 0.408430 0.946990 -0.510560
O29   O     O_R   0.499990 0.091570 0.946990 -0.510952
O30   O     O_R   0.499990 0.908430 0.946990 -0.510542
O31   O     O_R   0.908430 0.500000 0.961430 -0.518354
O32   O     O_R   0.408430 0.000000 0.961430 -0.518377
O33   O     O_R   0.908420 0.500000 0.855420 -0.519695
O34   O     O_R   0.053010 0.091570 0.053110 -0.510888
O35   O     O_R   0.408420 1.000000 0.855420 -0.519664
O36   O     O_R   0.947020 0.000000 0.855520 -0.529062
O37   O     O_R   0.447020 0.500000 0.855520 -0.529066
O38   O     O_R   0.053020 1.000000 0.961550 -0.468402
O39   O     O_R   0.553020 0.500000 0.961550 -0.468396
O40   O     O_R   0.947010 0.908420 0.947070 -0.517799
O41   O     O_R   0.947010 0.091580 0.947070 -0.516550
O42   O     O_R   0.447010 0.408420 0.947070 -0.517789
O43   O     O_R   0.447010 0.591580 0.947070 -0.516551
O44   O     O_3   0.045492 0.109511 0.842246 -0.575805
O45   O     O_R   0.553010 0.408430 0.053110 -0.510944
O46   O     O_3   0.071198 0.905271 0.867786 -0.564463
O47   O     O_3   0.545566 0.609484 0.842314 -0.575819
O48   O     O_3   0.571135 0.405225 0.867723 -0.564477
O49   O     O_3   0.205624 0.409208 0.127792 -0.565825
O50   O     O_3   0.202480 0.611415 0.164277 -0.572897
O51   O     O_3   0.705626 0.909183 0.127820 -0.565855
O52   O     O_3   0.702481 0.111402 0.164241 -0.572883
O53   O     O_R   0.553010 0.591570 0.053110 -0.510884
O54   O     O_R   0.946970 0.000000 0.038620 -0.519078
O55   O     O_R   0.446970 0.500000 0.038620 -0.519088
O56   O     O_R   0.052980 1.000000 0.144650 -0.520001

loop_
_geom_bond_atom_site_label_1
_geom_bond_atom_site_label_2
_ccdc_geom_bond_type
C72   C112  S    
C76   C105  S    
C55   C59   S    
C35   C53   S    
C42   H3    S    
C66   C85   S    
C39   O49   S    
C100  O11   A    
Cu8   O54   S    
C30   H92   S    
C32   O47   S    
C128  C139  S    
C84   C86   S    
C109  O47   S    
Cu11  O2    S    
C138  C143  S    
C90   C134  S    
Cu2   O4    S    
C125  C144  S    
C1    C63   S    
C104  O35   A    
C60   C62   S    
C61   C63   S    
C110  C111  S    
C107  C113  S    
C62   C64   S    
Cu11  O53   S    
C120  C122  S    
Cu7   O30   S    
C32   H97   S    
Cu8   O41   S    
C19   H61   S    
C51   H22   S    
C85   C103  S    
C39   H114  S    
C11   C93   S    
C58   C61   S    
C99   O9    A    
Cu4   O10   S    
C2    C137  S    
C84   H29   S    
C13   O49   S    
C80   C83   S    
C129  H39   S    
C57   O12   A    
C27   H84   S    
C45   C47   S    
C65   H88   S    
C18   H60   S    
C125  H46   S    
Cu7   O29   S    
C116  C121  S    
C96   O4    A    
C3    C143  S    
Cu12  O3    S    
C72   O27   A    
C7    C137  S    
C98   O7    A    
Cu4   O15   S    
C17   C21   S    
C34   H101  S    
C108  C113  S    
C19   C23   S    
C43   C44   S    
C1    O1    A    
C37   C38   S    
Cu12  O7    S    
C118  H35   S    
C13   C63   S    
C16   C20   S    
C115  C118  S    
C73   O28   A    
Cu6   O27   S    
C31   H95   S    
C29   H89   S    
C74   O29   A    
C92   O42   A    
C24   C63   S    
C82   C84   S    
C93   O43   A    
C142  C144  S    
C141  H53   S    
C121  H38   S    
C49   H19   S    
C89   O23   A    
C92   O45   A    
C26   O44   S    
C133  H41   S    
C1    O20   A    
C46   C60   S    
C90   H70   S    
Cu1   O1    S    
C105  O17   A    
C51   H25   S    
C87   C122  S    
C126  C141  S    
C101  H71   S    
C94   C144  S    
C36   H105  S    
C5    H33   S    
C131  C138  S    
C103  O33   A    
C26   H81   S    
C66   C70   S    
C77   C82   S    
C74   C134  S    
C46   C53   S    
C88   O37   A    
C70   H79   S    
C110  O48   S    
C118  C120  S    
C3    C95   S    
C107  C122  S    
C2    C75   S    
C102  O15   A    
C113  C115  S    
Cu7   O35   S    
Cu8   O36   S    
Cu10  O38   S    
C29   H90   S    
Cu3   Cu4   S    
Cu7   O21   S    
C88   C124  S    
C86   C104  S    
C128  C129  S    
C19   C134  S    
C34   H102  S    
C77   C106  S    
C142  H112  S    
C57   O21   A    
Cu9   O42   S    
C109  C111  S    
C14   C135  S    
C11   C25   S    
C65   C70   S    
C31   H93   S    
C74   O25   A    
C68   C112  S    
C61   H66   S    
C69   C82   S    
C139  C143  S    
C73   C123  S    
C44   H7    S    
C5    C79   S    
C127  H48   S    
C107  C118  S    
Cu1   Cu6   S    
C41   H119  S    
C13   C56   S    
C68   H68   S    
C81   H26   S    
C51   H23   S    
C39   H115  S    
C8    C21   S    
C40   H116  S    
C125  C140  S    
C100  C114  S    
C119  H36   S    
C39   C40   S    
C4    C68   S    
C75   O30   A    
C3    C128  S    
C15   C136  S    
C6    C90   S    
C88   O39   A    
C123  C135  S    
C38   H111  S    
C127  C129  S    
C5    C9    S    
C29   C30   S    
C97   O5    A    
C48   H15   S    
C4    H1    S    
C8    C12   S    
C16   H58   S    
C139  H51   S    
C96   C131  S    
Cu10  O34   S    
C67   C81   S    
C115  C119  S    
C21   C68   S    
C71   C77   S    
Cu2   O8    S    
C99   O10   A    
C132  C141  S    
C5    C135  S    
Cu4   O19   S    
C111  H30   S    
C18   C22   S    
C42   H4    S    
C76   C80   S    
C49   O52   S    
C114  C116  S    
Cu11  O45   S    
Cu3   O18   S    
C126  H47   S    
C87   O38   A    
C66   C80   S    
C120  H37   S    
C35   O51   S    
C70   C76   S    
C47   H12   S    
C137  H45   S    
C40   H117  S    
C126  C144  S    
C44   H9    S    
C36   H104  S    
C114  C117  S    
C131  C139  S    
C95   O55   A    
Cu3   O9    S    
C43   H6    S    
C49   C50   S    
C21   H63   S    
C55   C99   S    
C62   H77   S    
C8    C89   S    
Cu12  O11   S    
C107  O44   S    
C24   C52   S    
C47   H14   S    
C138  H50   S    
C27   H83   S    
C15   C19   S    
C26   C27   S    
C28   H86   S    
C33   H98   S    
C38   H109  S    
C140  C142  S    
C22   C79   S    
C130  H40   S    
C54   C58   S    
C30   C31   S    
Cu2   O13   S    
C98   O8    A    
C20   C25   S    
C126  C130  S    
C113  H31   S    
Cu12  O16   S    
C35   C59   S    
C102  C115  S    
C109  C116  S    
C110  C124  S    
C78   C83   S    
C52   H72   S    
C23   H65   S    
C12   C17   S    
Cu6   O28   S    
C36   O48   S    
C127  C138  S    
Cu9   Cu11  S    
C42   C43   S    
C15   H57   S    
C18   C123  S    
Cu1   O31   S    
C10   C92   S    
C95   O2    A    
C143  H113  S    
C55   C60   S    
C106  O19   A    
C108  C119  S    
C140  H52   S    
C110  C117  S    
C49   H18   S    
C94   O56   A    
C30   H91   S    
C2    C20   S    
C29   O46   S    
C50   H21   S    
C60   H78   S    
C67   H110  S    
Cu1   O22   S    
C130  C132  S    
C9    C14   S    
C100  O13   A    
C45   O51   S    
C13   C52   S    
C93   O53   A    
C11   C16   S    
C26   H82   S    
C7    H55   S    
C77   C81   S    
C50   C51   S    
C23   C90   S    
C24   O50   S    
C83   C85   S    
Cu5   O12   S    
C128  H49   S    
C42   O50   S    
C91   O34   A    
C87   O36   A    
C22   H64   S    
C36   C37   S    
C67   C86   S    
C65   C78   S    
C96   O3    A    
C20   H62   S    
C33   H100  S    
C97   C132  S    
C76   C78   S    
Cu9   O55   S    
C72   O22   A    
C6    C10   S    
C119  C120  S    
C56   H74   S    
C132  C140  S    
C46   O52   S    
C14   H56   S    
C32   C33   S    
Cu5   Cu7   S    
C12   H54   S    
C6    H44   S    
C91   O41   A    
C25   C101  S    
C83   H28   S    
C111  C114  S    
C67   C71   S    
C24   C58   S    
Cu5   O26   S    
C56   C61   S    
C44   H8    S    
C141  C142  S    
C41   H118  S    
C53   H73   S    
Cu3   O14   S    
C94   O54   A    
C14   C18   S    
C16   C137  S    
C112  C133  S    
C4    C8    S    
C9    C91   S    
C135  H42   S    
Cu1   O24   S    
Cu11  O39   S    
C7    C11   S    
C116  H32   S    
C104  O32   A    
Cu4   O6    S    
C80   H24   S    
C10   C15   S    
Cu3   O5    S    
C3    C127  S    
C9    C22   S    
C50   H20   S    
C69   C71   S    
C117  C121  S    
C136  H43   S    
C6    C136  S    
C58   H75   S    
C37   H106  S    
C125  C130  S    
Cu5   O32   S    
C121  C124  S    
C35   C64   S    
C28   H87   S    
C102  O14   A    
C48   H16   S    
C73   O24   A    
C59   H76   S    
C106  O18   A    
Cu2   O17   S    
C52   C54   S    
C53   C55   S    
C54   C56   S    
C108  O46   S    
Cu9   O43   S    
C134  C136  S    
C2    C101  S    
C79   C123  S    
C82   H27   S    
C78   H13   S    
C31   H94   S    
C46   C64   S    
Cu10  O56   S    
C37   H107  S    
C38   H108  S    
C47   C48   S    
Cu9   O37   S    
C33   C34   S    
C71   H80   S    
C75   O26   A    
C45   H11   S    
C41   H120  S    
C43   H5    S    
C40   C41   S    
Cu8   Cu10  S    
Cu10  O23   S    
Cu6   O33   S    
C103  O31   A    
C12   C133  S    
C7    C101  S    
C17   C112  S    
C81   C84   S    
C57   C64   S    
C48   H17   S    
C45   H10   S    
C59   C62   S    
C108  C122  S    
C109  C124  S    
C65   C85   S    
C10   C23   S    
C32   H96   S    
Cu5   O25   S    
Cu8   O40   S    
Cu6   O20   S    
C105  O16   A    
C97   O6    A    
C69   H2    S    
C34   H103  S    
C25   H67   S    
C89   O40   A    
C117  H34   S    
Cu2   Cu12  S    
C66   H99   S    
C28   H85   S    
C27   C28   S    
C54   C98   S    
C17   H59   S    
C79   H69   S    
C69   C86   S    
C4    C133  S    
C129  C131  S    
