data_mof_unit_35379.cif
_audit_creation_date              2013-03-05T15:42:41-0500
_audit_creation_method            fapswitch 2.2
_symmetry_space_group_name_H-M    P1
_symmetry_Int_Tables_number       1
_space_group_crystal_system       triclinic
_cell_length_a                    7.771358
_cell_length_b                    8.705392
_cell_length_c                    27.283439
_cell_angle_alpha                 92.672174
_cell_angle_beta                  85.654337
_cell_angle_gamma                 92.416409
_cell_volume                      1837.10779788

loop_
_atom_site_label
_atom_site_type_symbol
_atom_site_description
_atom_site_fract_x
_atom_site_fract_y
_atom_site_fract_z
_atom_type_partial_charge
O1    O     O_R   0.389250 0.738570 0.503220 -0.649041
O2    O     O_R   0.610750 0.261430 0.496780 -0.649025
O3    O     O_R   0.678390 0.711630 0.494810 -0.606452
O4    O     O_R   0.321610 0.288370 0.505190 -0.606371
C1    C     C_R   0.543982 0.793763 0.497509 0.967716
C2    C     C_R   0.456027 0.206236 0.502493 0.968116
O5    O     O_R   0.355440 0.513440 0.575450 -0.600601
O6    O     O_R   0.644560 0.486560 0.424550 -0.600622
O7    O     O_R   0.644590 0.486500 0.567040 -0.549199
O8    O     O_R   0.355410 0.513500 0.432960 -0.549207
C3    C     C_R   0.501289 0.493422 0.594054 0.973747
C4    C     C_R   0.498710 0.506570 0.405947 0.974398
Zn1   Zn    Zn3+2 0.306940 0.517990 0.505620 1.112971
Zn2   Zn    Zn3+2 0.693060 0.482010 0.494380 1.112937
C5    C     C_R   0.651887 0.452301 0.817456 0.571363
C6    C     C_R   0.348644 0.547918 0.182536 0.571456
O9    O     O_2   0.783455 0.510375 0.787845 -0.494605
O10   O     O_2   0.216951 0.490026 0.212142 -0.494583
N1    N     N_R   0.508178 0.387972 0.797750 -0.344854
N2    N     N_R   0.492385 0.612145 0.202252 -0.344910
C7    C     C_R   0.374698 0.323526 0.826269 0.642414
C8    C     C_R   0.626006 0.676390 0.173737 0.642234
C9    C     C_R   0.568278 0.296966 0.711643 0.053611
C10   C     C_R   0.432297 0.703192 0.288355 0.053394
C11   C     C_R   0.576715 0.329933 0.661359 0.243819
C12   C     C_R   0.423584 0.670125 0.338633 0.243410
C13   C     C_R   0.422113 0.566755 0.681565 0.192510
C14   C     C_R   0.577685 0.433017 0.318438 0.192621
C15   C     C_R   0.417924 0.536885 0.731557 0.243636
C16   C     C_R   0.582156 0.463023 0.268451 0.243770
C17   C     C_R   0.491096 0.402992 0.746425 0.066298
C18   C     C_R   0.509374 0.597094 0.253580 0.066332
C19   C     C_R   0.514924 0.416497 0.898819 -0.070354
C20   C     C_R   0.485781 0.583491 0.101180 -0.070366
C21   C     C_R   0.659674 0.464298 0.868308 0.005837
C22   C     C_R   0.340953 0.535812 0.131683 0.006002
C23   C     C_R   0.807862 0.524227 0.889239 -0.029565
C24   C     C_R   0.192778 0.475893 0.110743 -0.029515
C25   C     C_R   0.375482 0.335018 0.878012 -0.178645
C26   C     C_R   0.625253 0.664902 0.121995 -0.178684
C27   C     C_R   0.503153 0.464920 0.646534 -0.324112
C28   C     C_R   0.496860 0.535015 0.353464 -0.323743
H1    H     H_    0.926057 0.548790 0.866829 0.225058
H2    H     H_    0.074538 0.451406 0.133142 0.224901
C29   C     C_R   0.637558 0.593373 0.019540 -0.092785
C30   C     C_R   0.363214 0.406551 0.980465 -0.092792
C31   C     C_R   0.349729 0.463031 0.030211 0.113635
C32   C     C_R   0.651018 0.536930 0.969788 0.113591
C33   C     C_R   0.491429 0.546573 0.050109 0.084794
C34   C     C_R   0.509318 0.453378 0.949893 0.084786
C35   C     C_R   0.759358 0.702083 0.039430 0.143963
C36   C     C_R   0.241435 0.297811 0.960581 0.143967
C37   C     C_R   0.757464 0.731707 0.090606 0.245813
C38   C     C_R   0.243317 0.268172 0.909407 0.245865
O11   O     O_2   0.761341 0.743975 0.195630 -0.475604
O12   O     O_2   0.239454 0.255754 0.804382 -0.475547
C39   C     C_R   0.805829 0.552830 0.939609 -0.108513
C40   C     C_R   0.194880 0.447194 0.060376 -0.108526
H3    H     H_    0.927341 0.587134 0.954224 0.175792
H4    H     H_    0.073386 0.412886 0.045751 0.175737
C41   C     C_2   0.562733 0.953319 0.489148 -0.038634
C42   C     C_2   0.437326 0.046684 0.510869 -0.038923
N3    N     N_2   0.950320 0.457960 0.486880 0.020840
N4    N     N_2   0.049680 0.542040 0.513120 0.020802
N5    N     N_R   0.352960 0.705619 0.666592 0.241536
O13   O     O_R   0.453820 0.803833 0.642764 -0.368404
O14   O     O_R   0.196300 0.742199 0.681408 -0.279654
N6    N     N_R   0.646087 0.293806 0.333406 0.241301
O15   O     O_R   0.545027 0.196528 0.357574 -0.368758
O16   O     O_R   0.802202 0.256099 0.318393 -0.280184
N7    N     N_R   0.026677 0.399972 0.442700 0.311047
O17   O     O_R   0.996786 0.463383 0.402159 -0.299787
O18   O     O_R   0.079530 0.259957 0.440010 -0.364420
N8    N     N_R   0.973321 0.600025 0.557300 0.311086
O19   O     O_R   0.003160 0.536578 0.597838 -0.299525
O20   O     O_R   0.920507 0.740054 0.559994 -0.364514
N9    N     N_R   0.351947 0.648954 0.767732 0.249051
O21   O     O_R   0.411950 0.790753 0.767324 -0.310003
O22   O     O_R   0.227365 0.611261 0.800003 -0.331230
N10   N     N_R   0.647875 0.350889 0.232266 0.249032
O23   O     O_R   0.773112 0.388227 0.200148 -0.330544
O24   O     O_R   0.586714 0.209427 0.232462 -0.310737
N11   N     N_R   0.342711 0.774538 0.374715 0.196658
O25   O     O_R   0.412200 0.910355 0.383395 -0.385767
O26   O     O_R   0.190733 0.740042 0.395350 -0.370291
N12   N     N_R   0.657449 0.225463 0.625265 0.196593
O27   O     O_R   0.588055 0.089547 0.616685 -0.385767
O28   O     O_R   0.809294 0.259973 0.604548 -0.370364
C43   C     C_3   0.360232 0.850489 0.271589 -0.315479
C44   C     C_3   0.162942 0.844812 0.273961 -0.611497
H5    H     H_    0.114395 0.748904 0.249965 0.292803
H6    H     H_    0.106473 0.830674 0.312051 0.276528
H7    H     H_    0.117991 0.954156 0.260920 0.279938
H8    H     H_    0.406711 0.950943 0.294090 0.288023
H9    H     H_    0.408574 0.874161 0.233263 0.232001
C45   C     C_3   0.640758 0.149847 0.728410 -0.315424
C46   C     C_3   0.838063 0.155821 0.725932 -0.612029
H10   H     H_    0.894247 0.169773 0.687805 0.276488
H11   H     H_    0.886611 0.251959 0.749838 0.292876
H12   H     H_    0.883326 0.046658 0.739019 0.279950
H13   H     H_    0.592731 0.126228 0.766765 0.231730
H14   H     H_    0.594307 0.049255 0.705967 0.287994
N13   N     N_R   0.878806 0.843536 0.109612 0.282786
O29   O     O_R   0.037782 0.807802 0.113656 -0.322622
O30   O     O_R   0.828648 0.979741 0.124477 -0.254445
N14   N     N_R   0.121941 0.156365 0.890408 0.282818
O31   O     O_R   0.963004 0.192167 0.886335 -0.322579
O32   O     O_R   0.172025 0.020101 0.875584 -0.254412
N15   N     N_R   0.865338 0.801817 0.008107 0.225375
O33   O     O_R   0.795550 0.878866 0.975522 -0.269063
O34   O     O_R   0.031420 0.814726 0.011573 -0.290468
N16   N     N_R   0.135458 0.198094 0.991911 0.225375
O35   O     O_R   0.969382 0.185152 0.988438 -0.290441
O36   O     O_R   0.205241 0.121101 0.024511 -0.269050
C47   C     C_3   0.715190 0.007887 0.453234 -0.354092
C48   C     C_3   0.803342 0.887079 0.418220 -0.612482
H15   H     H_    0.894484 0.821720 0.437763 0.285544
H16   H     H_    0.707480 0.807171 0.401426 0.238362
H17   H     H_    0.880514 0.945753 0.388097 0.276393
H18   H     H_    0.667852 0.091522 0.428609 0.284879
H19   H     H_    0.816856 0.065465 0.474906 0.258641
C49   C     C_3   0.284961 0.992121 0.546811 -0.354109
C50   C     C_3   0.196932 0.112947 0.581844 -0.612750
H20   H     H_    0.292865 0.192828 0.598617 0.238325
H21   H     H_    0.105760 0.178337 0.562323 0.285587
H22   H     H_    0.119819 0.054287 0.611981 0.276358
H23   H     H_    0.183222 0.934560 0.525163 0.258682
H24   H     H_    0.332379 0.908474 0.571420 0.284774

loop_
_geom_bond_atom_site_label_1
_geom_bond_atom_site_label_2
_geom_bond_distance
_ccdc_geom_bond_type
C43   H9    1.109532 S    
C12   N11   1.435714 S    
C47   H19   1.111237 S    
C45   H14   1.108575 S    
C13   C15   1.398093 A    
N1    C17   1.429098 S    
C10   C43   1.523545 S    
N16   O36   1.301436 A    
C46   H10   1.107237 S    
C50   H20   1.107750 S    
C31   C33   1.422148 A    
N9    O21   1.301269 A    
C48   H15   1.108705 S    
O5    C3    1.298003 A    
C19   C25   1.410882 A    
N8    O20   1.299653 A    
C20   C26   1.410868 A    
C14   N6    1.432265 S    
C10   C12   1.410786 A    
N15   O34   1.301039 A    
N12   O28   1.298886 A    
C39   H3    1.077987 S    
C25   C38   1.410686 A    
N14   O31   1.300610 A    
C36   N16   1.436916 S    
C40   H4    1.077999 S    
C47   C48   1.534874 S    
C30   C36   1.428436 A    
C49   H23   1.111229 S    
C9    C45   1.523579 S    
C14   C28   1.404684 A    
C43   H8    1.108587 S    
C4    C28   1.465734 S    
C24   C40   1.384201 A    
O4    Zn1   2.006413 S    
N6    O15   1.298551 A    
N5    O14   1.301202 A    
C41   C47   1.552273 S    
O6    C4    1.297981 A    
C16   N10   1.436721 S    
C32   C34   1.422160 A    
C35   N15   1.436912 S    
C45   H13   1.109520 S    
O2    C2    1.277032 A    
C5    C21   1.392166 A    
N16   O35   1.301039 A    
C46   H11   1.108126 S    
C36   C38   1.407069 A    
N9    O22   1.300462 A    
N8    O19   1.299527 A    
C38   N14   1.433671 S    
C32   C39   1.411026 A    
N10   O24   1.301292 A    
C11   C27   1.416797 A    
N7    O18   1.299651 A    
N12   O27   1.298116 A    
C50   H22   1.111146 S    
C19   C34   1.413149 A    
C35   C37   1.407088 A    
C9    C17   1.411021 A    
C23   H1    1.083412 S    
C5    N1    1.363877 A    
O7    Zn2   1.988523 S    
C10   C18   1.410974 A    
C24   H2    1.083424 S    
C13   N5    1.432179 S    
C13   C27   1.404589 A    
C44   H6    1.107248 S    
N11   O25   1.298102 A    
C7    C25   1.411050 A    
C29   C33   1.414340 A    
C6    N2    1.363884 A    
C8    C26   1.411039 A    
C45   C46   1.528485 S    
C1    C41   1.417756 S    
N13   O30   1.300983 A    
C6    O10   1.350213 S    
O7    C3    1.290036 A    
O3    Zn2   2.006413 S    
O8    C4    1.290022 A    
O4    C2    1.286186 A    
N11   O26   1.298906 A    
N3    N7    1.385652 S    
N5    O13   1.298512 A    
O1    C1    1.277092 A    
O1    Zn1   2.000640 S    
C42   C49   1.552203 S    
C46   H12   1.110476 S    
C12   C28   1.416750 A    
C44   H7    1.110484 S    
N2    C18   1.429100 S    
C29   C32   1.419696 A    
C5    O9    1.350192 S    
C30   C31   1.419646 A    
C20   C33   1.413145 A    
O6    Zn2   1.972447 S    
C21   C23   1.394897 A    
N2    C8    1.365835 A    
N10   O23   1.300542 A    
O3    C1    1.286116 A    
O8    Zn1   1.988523 S    
C7    O12   1.348826 S    
C47   H18   1.105650 S    
N4    N8    1.385640 S    
C8    O11   1.348836 S    
C30   C34   1.414309 A    
C48   H17   1.111148 S    
C2    C42   1.417778 S    
C14   C16   1.398116 A    
C49   C50   1.534859 S    
N7    O17   1.299536 A    
C15   C17   1.407641 A    
N15   O33   1.301435 A    
C6    C22   1.392143 A    
C31   C40   1.411017 A    
C16   C18   1.407598 A    
C44   H5    1.108127 S    
Zn1   N4    2.012970 S    
N14   O32   1.300982 A    
C37   N13   1.433688 S    
Zn2   N3    2.012969 S    
C22   C24   1.394899 A    
C11   N12   1.435778 S    
C19   C21   1.408007 A    
C48   H16   1.107768 S    
C3    C27   1.465767 S    
C20   C22   1.408018 A    
C9    C11   1.410802 A    
C49   H24   1.105689 S    
C41   C42   1.376944 D    
O2    Zn2   2.000640 S    
C50   H21   1.108682 S    
N3    N4    1.277410 D    
O5    Zn1   1.972447 S    
C15   N9    1.436862 S    
N6    O16   1.301223 A    
C26   C37   1.410674 A    
N13   O29   1.300606 A    
C29   C35   1.428460 A    
C43   C44   1.528476 S    
C23   C39   1.384222 A    
N1    C7    1.365847 A    
