data_mof_unit_65314.cif
_audit_creation_date              2013-03-05T15:53:18-0500
_audit_creation_method            fapswitch 2.2
_symmetry_space_group_name_H-M    P1
_symmetry_Int_Tables_number       1
_space_group_crystal_system       triclinic
_cell_length_a                    22.176942
_cell_length_b                    24.012636
_cell_length_c                    8.413658
_cell_angle_alpha                 89.999803
_cell_angle_beta                  94.513637
_cell_angle_gamma                 90.004276
_cell_volume                      4466.60298224

loop_
_atom_site_label
_atom_site_type_symbol
_atom_site_description
_atom_site_fract_x
_atom_site_fract_y
_atom_site_fract_z
_atom_type_partial_charge
P1    P     P_3+3 0.876190 0.439990 0.052900 0.506654
P2    P     P_3+3 0.876190 0.560010 0.552900 0.511484
P3    P     P_3+3 0.376190 0.939990 0.052900 0.506650
P4    P     P_3+3 0.376190 0.060010 0.552900 0.511481
O1    O     O_2   0.882020 0.421650 0.880110 -0.342152
O2    O     O_2   0.882020 0.578350 0.380110 -0.341293
O3    O     O_2   0.382020 0.921650 0.880110 -0.342157
O4    O     O_2   0.382020 0.078350 0.380110 -0.341292
O5    O     O_3   0.931280 0.472530 0.130180 -0.408195
O6    O     O_3   0.931280 0.527470 0.630180 -0.409474
O7    O     O_3   0.431280 0.972530 0.130180 -0.408194
O8    O     O_3   0.431280 0.027470 0.630180 -0.409475
O9    O     O_3   0.979610 0.373300 0.637850 -0.396014
O10   O     O_3   0.979610 0.626700 0.137850 -0.385244
O11   O     O_3   0.479610 0.873300 0.637850 -0.396018
O12   O     O_3   0.479610 0.126700 0.137850 -0.385245
O13   O     O_2   0.877276 0.330948 0.734605 -0.358867
O14   O     O_2   0.879432 0.670214 0.237951 -0.360269
O15   O     O_2   0.377275 0.830949 0.734598 -0.358874
O16   O     O_2   0.379430 0.170211 0.237946 -0.360281
O17   O     O_3   0.812276 0.483049 0.040767 -0.525106
O18   O     O_3   0.812249 0.516986 0.540706 -0.518714
O19   O     O_3   0.312276 0.983049 0.040768 -0.525109
O20   O     O_3   0.312249 0.016985 0.540704 -0.518708
O21   O     O_3   0.954287 0.255830 0.660394 -0.607105
O22   O     O_3   0.959910 0.743013 0.168281 -0.562084
O23   O     O_3   0.454289 0.755830 0.660403 -0.607116
O24   O     O_3   0.459906 0.243013 0.168286 -0.562091
H1    H     H_    0.041557 0.284854 0.712418 0.064965
H2    H     H_    0.019664 0.733362 0.990511 -0.095620
H3    H     H_    0.541559 0.784854 0.712414 0.064960
H4    H     H_    0.519670 0.233366 0.990539 -0.095587
C1    C     C_3   0.040016 0.195942 0.670337 -0.134291
C2    C     C_3   0.026532 0.816044 0.092999 -0.155613
C3    C     C_3   0.540016 0.695941 0.670348 -0.134288
C4    C     C_3   0.526522 0.316050 0.093014 -0.155595
H5    H     H_    0.028604 0.182977 0.790970 0.121737
H6    H     H_    0.995557 0.849849 0.125973 0.156559
H7    H     H_    0.528606 0.682979 0.790985 0.121741
H8    H     H_    0.495540 0.349853 0.125966 0.156560
P5    P     P_3+3 0.123690 0.439530 0.636710 0.549167
P6    P     P_3+3 0.123690 0.560470 0.136710 0.551328
P7    P     P_3+3 0.623690 0.939530 0.636710 0.549201
P8    P     P_3+3 0.623690 0.060470 0.136710 0.551296
P9    P     P_3+3 0.074911 0.320622 0.077910 0.536857
P10   P     P_3+3 0.074817 0.679375 0.577581 0.562088
P11   P     P_3+3 0.574913 0.820624 0.077910 0.536868
P12   P     P_3+3 0.574807 0.179383 0.577583 0.562166
O25   O     O_2   0.117830 0.421200 0.809460 -0.298845
O26   O     O_2   0.117830 0.578800 0.309460 -0.297273
O27   O     O_2   0.617830 0.921200 0.809460 -0.298849
O28   O     O_2   0.617830 0.078800 0.309460 -0.297263
O29   O     O_3   0.020150 0.373220 0.051650 -0.410085
O30   O     O_3   0.020150 0.626780 0.551650 -0.409056
O31   O     O_3   0.520150 0.873220 0.051650 -0.410074
O32   O     O_3   0.520150 0.126780 0.551650 -0.409025
O33   O     O_2   0.117442 0.325786 0.941466 -0.325204
O34   O     O_2   0.117899 0.673419 0.442692 -0.275527
O35   O     O_2   0.617446 0.825790 0.941472 -0.325220
O36   O     O_2   0.617890 0.173432 0.442694 -0.275496
O37   O     O_3   0.183524 0.486463 0.676511 -0.582940
O38   O     O_3   0.183572 0.513567 0.176273 -0.585159
O39   O     O_3   0.683551 0.986428 0.676535 -0.582914
O40   O     O_3   0.683594 0.013594 0.176268 -0.585263
O41   O     O_3   0.038804 0.256314 0.044528 -0.520783
O42   O     O_3   0.039079 0.743500 0.539636 -0.472764
O43   O     O_3   0.538808 0.756315 0.044522 -0.520777
O44   O     O_3   0.539059 0.243503 0.539632 -0.472764
C5    C     C_3   0.978532 0.261356 0.083669 0.335399
C6    C     C_3   0.978149 0.738581 0.572273 0.354446
C7    C     C_3   0.478536 0.761355 0.083666 0.335291
C8    C     C_3   0.478129 0.238575 0.572264 0.354362
H9    H     H_    0.952135 0.286796 0.992348 0.134475
H10   H     H_    0.953772 0.709862 0.485924 0.149216
H11   H     H_    0.452138 0.786795 0.992347 0.134483
H12   H     H_    0.453759 0.209852 0.485918 0.149218
H13   H     H_    0.975940 0.280653 0.202856 0.131009
H14   H     H_    0.974372 0.723038 0.695392 0.062575
H15   H     H_    0.475945 0.780652 0.202854 0.131019
H16   H     H_    0.474353 0.223034 0.695384 0.062604
C9    C     C_3   0.949799 0.203937 0.087986 -0.782946
C10   C     C_3   0.947871 0.795340 0.555643 -0.640961
C11   C     C_3   0.449805 0.703936 0.087987 -0.782768
C12   C     C_3   0.447842 0.295329 0.555622 -0.640821
H17   H     H_    0.902717 0.207682 0.122738 0.237431
H18   H     H_    0.949021 0.810842 0.431609 0.255178
H19   H     H_    0.402725 0.707680 0.122748 0.237440
H20   H     H_    0.448995 0.310833 0.431590 0.255171
H21   H     H_    0.948660 0.184145 0.968632 0.254977
H22   H     H_    0.971682 0.825572 0.638433 0.268865
H23   H     H_    0.448663 0.684144 0.968631 0.254957
H24   H     H_    0.471641 0.325565 0.638421 0.268888
C13   C     C_3   0.216982 0.502777 0.044111 0.559970
C14   C     C_3   0.216787 0.497472 0.544250 0.560029
C15   C     C_3   0.716988 0.002799 0.044081 0.560010
C16   C     C_3   0.716785 0.997470 0.544235 0.559927
H25   H     H_    0.196585 0.522519 0.933993 0.063446
H26   H     H_    0.196202 0.477979 0.433993 0.062474
H27   H     H_    0.696588 0.022540 0.933965 0.063319
H28   H     H_    0.696188 0.977998 0.433964 0.062364
C17   C     C_3   0.282536 0.523869 0.078038 -0.157193
C18   C     C_3   0.282319 0.476227 0.577215 -0.155284
C19   C     C_3   0.782541 0.023894 0.077969 -0.157384
C20   C     C_3   0.782321 0.976221 0.577089 -0.155247
H29   H     H_    0.298709 0.514378 0.203468 0.167025
H30   H     H_    0.298764 0.485627 0.702513 0.166877
H31   H     H_    0.798725 0.014392 0.203390 0.166934
H32   H     H_    0.798812 0.985665 0.702337 0.166849
H33   H     H_    0.313306 0.501704 0.001407 0.135208
H34   H     H_    0.312969 0.498377 0.500228 0.133341
H35   H     H_    0.813310 0.001743 0.001294 0.135322
H36   H     H_    0.812948 0.998334 0.499941 0.133352
Ba1   Ba    Ba6+2 0.999960 0.460860 0.844880 1.666402
Ba2   Ba    Ba6+2 0.999960 0.539140 0.344880 1.674494
Ba3   Ba    Ba6+2 0.499960 0.960860 0.844880 1.666411
Ba4   Ba    Ba6+2 0.499960 0.039140 0.344880 1.674499
C21   C     C_3   0.826721 0.535138 0.979878 0.254973
C22   C     C_3   0.826701 0.464847 0.480217 0.256072
C23   C     C_3   0.326719 0.035138 0.979876 0.254976
C24   C     C_3   0.326703 0.964846 0.480217 0.256072
H37   H     H_    0.843300 0.529814 0.860270 0.076262
H38   H     H_    0.843608 0.470074 0.360941 0.072771
H39   H     H_    0.343299 0.029812 0.860268 0.076264
H40   H     H_    0.343611 0.970073 0.360943 0.072768
H41   H     H_    0.861708 0.556485 0.059905 0.105115
H42   H     H_    0.861430 0.443469 0.560920 0.103339
H43   H     H_    0.361707 0.056484 0.059902 0.105115
H44   H     H_    0.361431 0.943469 0.560924 0.103342
C25   C     C_3   0.769499 0.570947 0.963800 -0.081028
C26   C     C_3   0.769393 0.429167 0.463221 -0.074082
C27   C     C_3   0.269497 0.070946 0.963799 -0.081033
C28   C     C_3   0.269396 0.929166 0.463218 -0.074082
H45   H     H_    0.731806 0.547278 0.900623 0.189204
H46   H     H_    0.732100 0.452716 0.397895 0.187085
H47   H     H_    0.231804 0.047275 0.900626 0.189203
H48   H     H_    0.232104 0.952713 0.397884 0.187081
H49   H     H_    0.777596 0.608216 0.890889 0.077278
H50   H     H_    0.777786 0.391552 0.392003 0.069827
H51   H     H_    0.277593 0.108214 0.890882 0.077286
H52   H     H_    0.277790 0.891550 0.392004 0.069831
O45   O     O_3   0.068720 0.527400 0.059520 -0.376309
O46   O     O_3   0.068720 0.472600 0.559520 -0.375128
O47   O     O_3   0.568720 0.027400 0.059520 -0.376307
O48   O     O_3   0.568720 0.972600 0.559520 -0.375134
P13   P     P_3+3 0.925108 0.679628 0.110978 0.491055
P14   P     P_3+3 0.923823 0.321403 0.609983 0.491026
P15   P     P_3+3 0.425108 0.179628 0.110978 0.491040
P16   P     P_3+3 0.423824 0.821402 0.609983 0.491015
C29   C     C_3   0.016041 0.254575 0.633288 0.959492
C30   C     C_3   0.989186 0.764833 0.039465 1.021798
C31   C     C_3   0.516042 0.754574 0.633292 0.959492
C32   C     C_3   0.489185 0.264835 0.039477 1.021758
H53   H     H_    0.017814 0.166245 0.582687 0.151112
H54   H     H_    0.051451 0.831115 0.991780 0.105464
H55   H     H_    0.517812 0.666242 0.582705 0.151115
H56   H     H_    0.551445 0.331122 0.991803 0.105472
H57   H     H_    0.975958 0.177215 0.176383 0.274895
H58   H     H_    0.899990 0.791981 0.584367 0.231438
H59   H     H_    0.475968 0.677214 0.176378 0.274904
H60   H     H_    0.399959 0.291962 0.584325 0.231414
C33   C     C_R   0.898910 0.366509 0.307554 -0.554828
C34   C     C_R   0.899120 0.633779 0.808229 -0.578587
C35   C     C_R   0.398913 0.866510 0.307555 -0.554825
C36   C     C_R   0.399119 0.133778 0.808230 -0.578609
C37   C     C_R   0.865745 0.374308 0.161682 0.268969
C38   C     C_R   0.865777 0.625734 0.662412 0.274704
C39   C     C_R   0.365748 0.874308 0.161681 0.268965
C40   C     C_R   0.365777 0.125734 0.662412 0.274690
C41   C     C_R   0.820700 0.335462 0.109704 -0.272277
C42   C     C_R   0.820567 0.664446 0.610713 -0.265315
C43   C     C_R   0.320708 0.835458 0.109695 -0.272243
C44   C     C_R   0.320568 0.164446 0.610711 -0.265319
C45   C     C_R   0.808251 0.288961 0.206434 0.158839
C46   C     C_R   0.807725 0.710686 0.707948 0.151230
C47   C     C_R   0.308264 0.788954 0.206420 0.158808
C48   C     C_R   0.307726 0.210686 0.707945 0.151208
C49   C     C_R   0.840401 0.284053 0.357287 -0.237973
C50   C     C_R   0.839371 0.715321 0.859494 -0.111614
C51   C     C_R   0.340411 0.784048 0.357276 -0.238010
C52   C     C_R   0.339371 0.215321 0.859492 -0.111619
C53   C     C_R   0.884988 0.323153 0.408267 0.289288
C54   C     C_R   0.884936 0.676988 0.909617 0.231478
C55   C     C_R   0.384993 0.823151 0.408263 0.289321
C56   C     C_R   0.384935 0.176988 0.909617 0.231519
C57   C     C_R   0.179759 0.665170 0.077151 -0.098307
C58   C     C_R   0.179491 0.334641 0.578004 -0.156765
C59   C     C_R   0.679731 0.165187 0.077181 -0.098382
C60   C     C_R   0.679481 0.834634 0.578022 -0.156789
C61   C     C_R   0.136741 0.624863 0.023225 0.176824
C62   C     C_R   0.136898 0.375220 0.523291 0.159815
C63   C     C_R   0.636724 0.124871 0.023239 0.176679
C64   C     C_R   0.636889 0.875215 0.523306 0.159816
C65   C     C_R   0.192494 0.711247 0.978873 0.240973
C66   C     C_R   0.192665 0.288857 0.479197 0.244862
C67   C     C_R   0.692469 0.211262 0.978901 0.240946
C68   C     C_R   0.692659 0.788854 0.479209 0.244874
N1    N     N_2   0.763520 0.247366 0.160619 -0.015846
N2    N     N_2   0.763101 0.752336 0.661871 -0.005125
N3    N     N_2   0.263538 0.747357 0.160599 -0.015926
N4    N     N_2   0.263103 0.252337 0.661865 -0.005153
N5    N     N_2   0.236904 0.753154 0.024715 -0.032677
N6    N     N_2   0.237214 0.247056 0.524927 -0.012315
N7    N     N_2   0.736880 0.253169 0.024745 -0.032650
N8    N     N_2   0.737209 0.747053 0.524937 -0.012301
C69   C     C_R   0.105009 0.631276 0.874619 -0.374812
C70   C     C_R   0.105773 0.369212 0.373804 -0.316850
C71   C     C_R   0.604996 0.131282 0.874625 -0.374756
C72   C     C_R   0.605768 0.869209 0.373812 -0.316922
H61   H     H_    0.203551 0.659945 0.193361 0.201291
H62   H     H_    0.202909 0.339640 0.694776 0.212557
H63   H     H_    0.703508 0.159969 0.193413 0.201421
H64   H     H_    0.702892 0.839630 0.694804 0.212601
H65   H     H_    0.830246 0.250089 0.435549 0.190579
H66   H     H_    0.828622 0.748941 0.938277 0.194391
H67   H     H_    0.330257 0.750082 0.435535 0.190550
H68   H     H_    0.328622 0.248941 0.938275 0.194374
C73   C     C_R   0.116832 0.675902 0.775829 0.243672
C74   C     C_R   0.117636 0.324613 0.275078 0.327083
C75   C     C_R   0.616816 0.175913 0.775841 0.243740
C76   C     C_R   0.617635 0.824613 0.275082 0.327081
C77   C     C_R   0.160477 0.715765 0.827640 -0.238360
C78   C     C_R   0.161107 0.284631 0.327263 -0.165550
C79   C     C_R   0.660457 0.215777 0.827662 -0.238539
C80   C     C_R   0.661106 0.784630 0.327268 -0.165592
H69   H     H_    0.795042 0.342290 0.996597 0.210792
H70   H     H_    0.795021 0.657680 0.497410 0.217703
H71   H     H_    0.295052 0.842284 0.996587 0.210789
H72   H     H_    0.295022 0.157681 0.497407 0.217706
H73   H     H_    0.169680 0.750261 0.750232 0.190476
H74   H     H_    0.170384 0.250165 0.249830 0.185988
H75   H     H_    0.669660 0.250274 0.750255 0.190507
H76   H     H_    0.670385 0.750167 0.249831 0.185995
H77   H     H_    0.933015 0.396653 0.348002 0.177994
H78   H     H_    0.933644 0.603950 0.847989 0.177142
H79   H     H_    0.433014 0.896656 0.348008 0.177990
H80   H     H_    0.433642 0.103949 0.847991 0.177144
H81   H     H_    0.072112 0.600199 0.833020 0.160708
H82   H     H_    0.073047 0.400390 0.331898 0.152215
H83   H     H_    0.572107 0.100201 0.833015 0.160739
H84   H     H_    0.573044 0.900389 0.331904 0.152229
N9    N     N_R   0.287934 0.583295 0.046529 0.241223
O49   O     O_R   0.279044 0.601611 0.901059 -0.381371
O50   O     O_R   0.313831 0.615742 0.155327 -0.360217
N10   N     N_R   0.287484 0.416803 0.545328 0.241565
O51   O     O_R   0.278036 0.398550 0.399963 -0.386794
O52   O     O_R   0.313523 0.384228 0.653574 -0.344741
N11   N     N_R   0.787919 0.083325 0.046509 0.241162
O53   O     O_R   0.779214 0.101632 0.900988 -0.381281
O54   O     O_R   0.813582 0.115815 0.155580 -0.360254
N12   N     N_R   0.787457 0.916781 0.545381 0.241542
O55   O     O_R   0.778123 0.898491 0.400011 -0.386695
O56   O     O_R   0.813411 0.884227 0.653824 -0.344665
N13   N     N_R   0.752008 0.588301 0.119957 0.279872
O57   O     O_R   0.734362 0.551576 0.220034 -0.331094
O58   O     O_R   0.749353 0.640967 0.154947 -0.356931
N14   N     N_R   0.750952 0.412551 0.619093 0.281054
O59   O     O_R   0.732953 0.449778 0.717199 -0.338052
O60   O     O_R   0.747669 0.360044 0.655470 -0.362970
N15   N     N_R   0.252007 0.088301 0.119955 0.279871
O61   O     O_R   0.234366 0.051577 0.220040 -0.331095
O62   O     O_R   0.249351 0.140968 0.154938 -0.356931
N16   N     N_R   0.250952 0.912551 0.619088 0.281056
O63   O     O_R   0.232950 0.949779 0.717188 -0.338056
O64   O     O_R   0.247668 0.860044 0.655469 -0.362967
F1    F     F_    0.024343 0.266636 0.475619 -0.764034
F2    F     F_    0.946665 0.782454 0.921250 -0.765793
F3    F     F_    0.524341 0.766631 0.475619 -0.764030
F4    F     F_    0.446668 0.282448 0.921246 -0.765811
N17   N     N_R   0.105447 0.193723 0.663737 0.251898
O65   O     O_R   0.128953 0.163455 0.556243 -0.338867
O66   O     O_R   0.140602 0.216770 0.776096 -0.369016
N18   N     N_R   0.069825 0.803653 0.227763 0.269992
O67   O     O_R   0.111469 0.766278 0.214169 -0.387418
O68   O     O_R   0.072402 0.835377 0.353434 -0.312790
N19   N     N_R   0.605447 0.693721 0.663743 0.251898
O69   O     O_R   0.628952 0.663451 0.556250 -0.338860
O70   O     O_R   0.640604 0.716768 0.776098 -0.369028
N20   N     N_R   0.569809 0.303669 0.227797 0.269994
O71   O     O_R   0.611463 0.266301 0.214227 -0.387402
O72   O     O_R   0.572370 0.335394 0.353465 -0.312792
N21   N     N_R   0.219009 0.442317 0.021732 0.246207
O73   O     O_R   0.248786 0.420756 0.909845 -0.387859
O74   O     O_R   0.194385 0.409176 0.120198 -0.358139
N22   N     N_R   0.218904 0.557967 0.522814 0.244285
O75   O     O_R   0.194754 0.590970 0.622571 -0.349929
O76   O     O_R   0.248378 0.579671 0.410528 -0.393705
N23   N     N_R   0.719009 0.942338 0.021729 0.246218
O77   O     O_R   0.748849 0.920762 0.909959 -0.387605
O78   O     O_R   0.694360 0.909210 0.120184 -0.358238
N24   N     N_R   0.718887 0.057975 0.522935 0.244326
O79   O     O_R   0.694572 0.090930 0.622482 -0.350116
O80   O     O_R   0.748458 0.079736 0.410917 -0.393366

loop_
_geom_bond_atom_site_label_1
_geom_bond_atom_site_label_2
_geom_bond_distance
_ccdc_geom_bond_type
P15   C56   1.852133 S    
C72   C76   1.393025 A    
O25   Ba1   2.819880 S    
O41   C5    1.406789 S    
P1    O17   1.751001 S    
C36   H80   1.082089 S    
P2    Ba2   3.406591 S    
C5    H13   1.110275 S    
N19   O69   1.300871 A    
C67   C79   1.411663 A    
P5    O37   1.752960 S    
C8    H12   1.110737 S    
O14   P13   1.545558 D    
C51   H67   1.082940 S    
C72   H84   1.082288 S    
C16   C20   1.544671 S    
C13   N21   1.465110 S    
C12   H60   1.110334 S    
N1    N7    1.252623 D    
P3    C39   1.847205 S    
C1    C29   1.528453 S    
P2    O2    1.534195 D    
P2    C38   1.851108 S    
C70   C74   1.393027 A    
C14   N22   1.465003 S    
C44   C48   1.421257 A    
O10   P13   1.756286 S    
C69   C73   1.393637 A    
O31   Ba3   2.744687 S    
C3    C31   1.528453 S    
P5    C62   1.850736 S    
O12   P15   1.756291 S    
P1    O1    1.534204 D    
O5    Ba2   2.776320 S    
Ba2   O46   2.776051 S    
C19   H35   1.110882 S    
C22   C26   1.530012 S    
N19   O70   1.300663 A    
C16   N24   1.465074 S    
N9    O49   1.300908 A    
O28   Ba4   2.819748 S    
P3    O3    1.534204 D    
C80   H76   1.082977 S    
P8    C63   1.851987 S    
O19   C23   1.398328 S    
N13   O57   1.300620 A    
P4    O20   1.750866 S    
C15   H27   1.105352 S    
H2    C30   1.114221 S    
C20   N12   1.458146 S    
C6    H14   1.110407 S    
C14   H26   1.105148 S    
C18   N10   1.458111 S    
N12   O56   1.300860 A    
Ba3   Ba4   4.607673 S    
C66   N6    1.439431 S    
O30   Ba2   2.744645 S    
O13   P14   1.545287 D    
C65   N5    1.439264 S    
Ba1   O46   2.957253 S    
O21   C29   1.406285 S    
N24   O79   1.299861 A    
C22   H38   1.105736 S    
C19   N11   1.458014 S    
O3    Ba3   2.817286 S    
C79   H75   1.082996 S    
C21   H37   1.105668 S    
C68   C80   1.411872 A    
O2    Ba2   2.817418 S    
C47   N3    1.438706 S    
O17   C21   1.398327 S    
C11   H59   1.110673 S    
P7    Ba3   3.408211 S    
C34   C38   1.395149 A    
P3    O19   1.751002 S    
P6    Ba2   3.408148 S    
C7    C11   1.520482 S    
O9    Ba1   2.744935 S    
C61   C69   1.394188 A    
O23   P16   1.752342 S    
C15   C19   1.544661 S    
N14   O60   1.300844 A    
C6    H10   1.110740 S    
O43   C7    1.406789 S    
C23   C27   1.530088 S    
N23   O78   1.299619 A    
C5    H9    1.111521 S    
O21   P14   1.752343 S    
C45   C49   1.410943 A    
P4    O8    1.549529 S    
C17   N9    1.458011 S    
N10   O51   1.300591 A    
C46   C50   1.410617 A    
C59   C63   1.408742 A    
Ba3   O48   2.957253 S    
P4    O4    1.534195 D    
C66   C78   1.411871 A    
O8    Ba3   2.776442 S    
C1    N17   1.457462 S    
P8    O28   1.533918 D    
C20   H32   1.111302 S    
C65   C77   1.411664 A    
C17   H33   1.110820 S    
P9    O29   1.754091 S    
P10   C73   1.847348 S    
C3    N19   1.457466 S    
N17   O65   1.300870 A    
P10   O34   1.546608 D    
C37   C41   1.410809 A    
P9    C74   1.847034 S    
C64   C72   1.393746 A    
C75   C79   1.405902 A    
C2    N18   1.457620 S    
P7    O48   1.553714 S    
C26   H46   1.111018 S    
P1    Ba1   3.406529 S    
O9    P14   1.758610 S    
C48   N4    1.438625 S    
O12   Ba4   2.744978 S    
P11   O43   1.751877 S    
C71   C75   1.393657 A    
C2    H6    1.112609 S    
O29   Ba1   2.744687 S    
P12   O36   1.546616 D    
C51   C55   1.405818 A    
N11   O54   1.300955 A    
C73   C77   1.405905 A    
C35   H79   1.082226 S    
C78   H74   1.082979 S    
Ba3   O47   2.775927 S    
C46   N2    1.438627 S    
C17   H29   1.111180 S    
C9    H57   1.110673 S    
C50   H66   1.082972 S    
O20   C24   1.398188 S    
P7    O39   1.752885 S    
Ba2   O45   2.957274 S    
C49   H65   1.082940 S    
C52   H68   1.082973 S    
C74   C78   1.406219 A    
P1    O5    1.549439 S    
N4    N6    1.252621 D    
Ba4   O48   2.776051 S    
C57   C65   1.422795 A    
C20   H36   1.110823 S    
C27   H51   1.107603 S    
P4    Ba4   3.406591 S    
O37   C14   1.407665 S    
N18   O67   1.299306 A    
N16   O64   1.300845 A    
P16   C55   1.842233 S    
N21   O73   1.299319 A    
O10   Ba2   2.744978 S    
C45   N1    1.438713 S    
O39   C16   1.407709 S    
C32   F4    1.382011 S    
C7    H15   1.110274 S    
P4    C40   1.851101 S    
O44   C8    1.404844 S    
N9    O50   1.300786 A    
C12   H20   1.110166 S    
C58   C62   1.409016 A    
O22   P13   1.756699 S    
C3    H7    1.109746 S    
P2    O18   1.750865 S    
C36   C56   1.394804 A    
N21   O74   1.299613 A    
Ba4   O47   2.957274 S    
H3    C31   1.110284 S    
C12   H24   1.110444 S    
N13   O58   1.300857 A    
N23   O77   1.299510 A    
H4    C32   1.114220 S    
O22   C30   1.407625 S    
C35   C39   1.392943 A    
C28   H48   1.111018 S    
P9    O33   1.547028 D    
N14   O59   1.300639 A    
P10   O30   1.752310 S    
P6    O45   1.553627 S    
O32   Ba4   2.744645 S    
O16   P15   1.545556 D    
C25   H49   1.107602 S    
C70   H82   1.082289 S    
C10   H58   1.110343 S    
C50   C54   1.406873 A    
P12   O44   1.749687 S    
C69   H81   1.082267 S    
O7    Ba4   2.776320 S    
C60   C68   1.422459 A    
O18   C22   1.398187 S    
C8    C12   1.520977 S    
O6    Ba1   2.776442 S    
C57   C61   1.408748 A    
P6    O26   1.533918 D    
C5    C9    1.520486 S    
C27   N15   1.459640 S    
C36   C40   1.395147 A    
C31   F3    1.384196 S    
C43   H71   1.082154 S    
P7    C64   1.850733 S    
C25   H45   1.111006 S    
C2    H54   1.111609 S    
C23   H39   1.105670 S    
N22   O76   1.299438 A    
C58   H62   1.081237 S    
C26   H50   1.107761 S    
N2    N8    1.252620 D    
C15   N23   1.465095 S    
C2    C30   1.530395 S    
C40   C44   1.410694 A    
N20   O72   1.300792 A    
C18   H34   1.110742 S    
C68   N8    1.439433 S    
C13   C17   1.544699 S    
N15   O61   1.300622 A    
P2    O6    1.549529 S    
C13   H25   1.105345 S    
C76   C80   1.406219 A    
C4    H8    1.112607 S    
C21   C25   1.530088 S    
C4    H56   1.111611 S    
N24   O80   1.299464 A    
P11   O31   1.754092 S    
Ba1   Ba2   4.607673 S    
C42   C46   1.421259 A    
C59   H63   1.081179 S    
P12   O32   1.752293 S    
C42   H70   1.082176 S    
P6    O38   1.753152 S    
C30   F2    1.382013 S    
N22   O75   1.300065 A    
O24   P15   1.756700 S    
O23   C31   1.406285 S    
P14   C53   1.842240 S    
O1    Ba1   2.817286 S    
P1    C37   1.847207 S    
C24   C28   1.530012 S    
P8    O40   1.753094 S    
C58   C66   1.422458 A    
C4    C32   1.530396 S    
C7    H11   1.111520 S    
O40   C15   1.407921 S    
C3    H55   1.112476 S    
N15   O62   1.300857 A    
C33   H77   1.082229 S    
C11   H19   1.109875 S    
C25   N13   1.459640 S    
C39   C43   1.410805 A    
N11   O53   1.300923 A    
C24   H44   1.111539 S    
P10   O42   1.749690 S    
C38   C42   1.410698 A    
N16   O63   1.300638 A    
C71   H83   1.082266 S    
C4    N20   1.457618 S    
C28   H52   1.107761 S    
P5    O25   1.533910 D    
C11   H23   1.109487 S    
P11   C76   1.847027 S    
C47   C51   1.410937 A    
C27   H47   1.111007 S    
O15   P16   1.545287 D    
C10   H22   1.110450 S    
C34   C54   1.394806 A    
C60   C64   1.409018 A    
C19   H31   1.111228 S    
C33   C37   1.392941 A    
O24   C32   1.407626 S    
N17   O66   1.300659 A    
C62   C70   1.393743 A    
N12   O55   1.300706 A    
C1    H53   1.112472 S    
C9    H21   1.109489 S    
P5    O46   1.553714 S    
C8    H16   1.110404 S    
C41   H69   1.082154 S    
C10   H18   1.110167 S    
P9    O41   1.751879 S    
C44   H72   1.082177 S    
P6    C61   1.851952 S    
P7    O27   1.533910 D    
O11   P16   1.758601 S    
C43   C47   1.421516 A    
P8    O47   1.553627 S    
C49   C53   1.405821 A    
C16   H28   1.105133 S    
P5    Ba1   3.408211 S    
P13   C54   1.852137 S    
N10   O52   1.300795 A    
C1    H5    1.109743 S    
C18   H30   1.111220 S    
C28   N16   1.459704 S    
O11   Ba3   2.744935 S    
Ba1   O45   2.775927 S    
C63   C71   1.394198 A    
P11   O35   1.547027 D    
C6    C10   1.520981 S    
C35   C55   1.392252 A    
O27   Ba3   2.819880 S    
P3    O7    1.549439 S    
O4    Ba4   2.817418 S    
H1    C29   1.110283 S    
C60   H64   1.081244 S    
C34   H78   1.082089 S    
C52   C56   1.406873 A    
C57   H61   1.081182 S    
C48   C52   1.410616 A    
C67   N7    1.439272 S    
O42   C6    1.404849 S    
P8    Ba4   3.408148 S    
N18   O68   1.300793 A    
O38   C13   1.407928 S    
C77   H73   1.082996 S    
N3    N5    1.252623 D    
C41   C45   1.421520 A    
N20   O71   1.299306 A    
C59   C67   1.422796 A    
P3    Ba3   3.406529 S    
C22   H42   1.111539 S    
O26   Ba2   2.819748 S    
C21   H41   1.111692 S    
C33   C53   1.392251 A    
C9    H17   1.109879 S    
C29   F1    1.384197 S    
C24   H40   1.105736 S    
C14   C18   1.544637 S    
C23   H43   1.111693 S    
P12   C75   1.847372 S    
C26   N14   1.459705 S    
