data_mof_unit_6864.cif
_audit_creation_date              2012-12-11T14:54:27-0500
_audit_creation_method            fapswitch 2.2
_symmetry_space_group_name_H-M    P1
_symmetry_Int_Tables_number       1
_space_group_crystal_system       triclinic
_cell_length_a                    19.02011
_cell_length_b                    10.905448
_cell_length_c                    18.859704
_cell_angle_alpha                 90.044082
_cell_angle_beta                  89.91231
_cell_angle_gamma                 89.725734
_cell_volume                      3911.88241837

loop_
_atom_site_label
_atom_site_type_symbol
_atom_type_description
_atom_site_fract_x
_atom_site_fract_y
_atom_site_fract_z
_atom_type_partial_charge
C1    C     C_R   0.729838 0.375544 0.645511 0.538509
C2    C     C_R   0.270392 0.375068 0.354671 0.552268
C3    C     C_R   0.229877 0.876597 0.645521 0.545041
C4    C     C_R   0.770333 0.875653 0.354472 0.536120
C5    C     C_3   0.495662 0.383501 0.458801 -0.122948
C6    C     C_3   0.519431 0.385529 0.536410 -0.113792
C7    C     C_3   0.965756 0.895028 0.469031 -0.116577
C8    C     C_3   0.999635 0.893818 0.543552 -0.123594
C9    C     C_R   0.773183 0.828262 0.549490 -0.168534
C10   C     C_R   0.295067 0.850532 0.459668 -0.156756
C11   C     C_R   0.215939 0.336847 0.542889 -0.164451
C12   C     C_R   0.783890 0.337891 0.457389 -0.167408
C13   C     C_R   0.779213 0.807758 0.477042 -0.135550
C14   C     C_R   0.296222 0.845812 0.533527 -0.137214
C15   C     C_R   0.215630 0.324596 0.469483 -0.134248
C16   C     C_R   0.784435 0.324524 0.530642 -0.143599
C17   C     C_R   0.756971 0.897574 0.428566 0.033793
C18   C     C_R   0.246096 0.911508 0.573004 0.037485
C19   C     C_R   0.253313 0.407356 0.426970 0.035268
C20   C     C_R   0.747871 0.408909 0.573672 0.034120
C21   C     C_R   0.729388 0.008750 0.452045 -0.145074
C22   C     C_R   0.198263 0.988145 0.538340 -0.144036
C23   C     C_R   0.289004 0.504617 0.457834 -0.143649
C24   C     C_R   0.714522 0.510069 0.543618 -0.149547
C25   C     C_R   0.724105 0.029775 0.524425 -0.131396
C26   C     C_R   0.196927 0.992212 0.465701 -0.141987
C27   C     C_R   0.288602 0.517346 0.530168 -0.136260
C28   C     C_R   0.715363 0.524701 0.471254 -0.151531
C29   C     C_R   0.746458 0.940110 0.572959 0.016656
C30   C     C_R   0.247311 0.928316 0.425558 0.031308
C31   C     C_R   0.251237 0.435435 0.573322 0.023486
C32   C     C_R   0.750305 0.439336 0.427574 0.020470
C33   C     C_R   0.487627 0.051401 0.957786 -0.139994
C34   C     C_R   0.472885 0.050765 0.028768 -0.141629
C35   C     C_R   0.987608 0.551400 0.957779 -0.139839
C36   C     C_R   0.972861 0.550764 0.028761 -0.141528
C37   C     C_R   0.459308 0.160417 0.064615 0.032833
C38   C     C_R   0.496356 0.162646 0.921655 0.034171
C39   C     C_R   0.959281 0.660415 0.064608 0.032107
C40   C     C_R   0.996339 0.662645 0.921648 0.033980
C41   C     C_R   0.462628 0.272510 0.027946 -0.130523
C42   C     C_R   0.482809 0.273881 0.956658 -0.132188
C43   C     C_R   0.962593 0.772507 0.027936 -0.130277
C44   C     C_R   0.982779 0.773878 0.956648 -0.132083
C45   C     C_R   0.565843 0.149443 0.639582 0.568356
C46   C     C_R   0.464672 0.153162 0.355632 0.560530
C47   C     C_R   0.056862 0.650845 0.638194 0.555919
C48   C     C_R   0.935881 0.649913 0.361009 0.561814
C49   C     C_R   0.798052 0.035427 0.975800 0.010903
C50   C     C_R   0.206832 0.046621 0.020735 0.008248
C51   C     C_R   0.298053 0.535427 0.975799 0.010933
C52   C     C_R   0.706830 0.546616 0.020736 0.008224
C53   C     C_R   0.802794 0.004031 0.046534 -0.098604
C54   C     C_R   0.205148 0.022617 0.948301 -0.093001
C55   C     C_R   0.302800 0.504007 0.046528 -0.098542
C56   C     C_R   0.705148 0.522617 0.948301 -0.093102
C57   C     C_R   0.749413 0.941226 0.081823 0.010646
C58   C     C_R   0.253359 0.943438 0.916359 0.009204
C59   C     C_R   0.249416 0.441214 0.081819 0.011370
C60   C     C_R   0.753359 0.443437 0.916358 0.008768
C61   C     C_R   0.684361 0.927260 0.048833 -0.144987
C62   C     C_R   0.313290 0.908466 0.953579 -0.140736
C63   C     C_R   0.184362 0.427262 0.048832 -0.144257
C64   C     C_R   0.813286 0.408455 0.953580 -0.140773
C65   C     C_R   0.677211 0.958840 0.977325 -0.148608
C66   C     C_R   0.317953 0.933737 0.025814 -0.144625
C67   C     C_R   0.177210 0.458847 0.977326 -0.148644
C68   C     C_R   0.817948 0.433719 0.025816 -0.144911
C69   C     C_R   0.734943 0.004043 0.938718 0.025725
C70   C     C_R   0.264396 0.998349 0.061019 0.021827
C71   C     C_R   0.234942 0.504050 0.938718 0.025789
C72   C     C_R   0.764393 0.498340 0.061020 0.021078
C73   C     C_R   0.741510 0.969449 0.647378 0.533595
C74   C     C_R   0.258103 0.968698 0.352696 0.555983
C75   C     C_R   0.241709 0.470095 0.647028 0.546973
C76   C     C_R   0.758694 0.471159 0.353421 0.542937
C77   C     C_R   0.731215 0.383631 0.850392 0.541751
C78   C     C_R   0.269305 0.382649 0.148976 0.531778
C79   C     C_R   0.231214 0.883629 0.850394 0.541355
C80   C     C_R   0.769303 0.882654 0.148979 0.531691
C81   C     C_R   0.530996 0.157022 0.852776 0.550416
C82   C     C_R   0.438677 0.153344 0.138929 0.544582
C83   C     C_R   0.030990 0.657022 0.852773 0.549040
C84   C     C_R   0.938665 0.653342 0.138930 0.547963
C85   C     C_R   0.728073 0.023037 0.861492 0.566993
C86   C     C_R   0.271300 0.020670 0.138057 0.544284
C87   C     C_R   0.228073 0.523040 0.861492 0.566088
C88   C     C_R   0.771299 0.520668 0.138057 0.546366
C89   C     C_R   0.500462 0.151333 0.423782 0.002681
C90   C     C_R   0.552755 0.149380 0.563357 -0.000401
C91   C     C_R   0.957053 0.649461 0.434957 0.001783
C92   C     C_R   0.025181 0.651144 0.568409 0.014683
C93   C     C_R   0.527210 0.257861 0.453820 -0.005548
C94   C     C_R   0.548348 0.258330 0.523837 0.000403
C95   C     C_R   0.969284 0.757525 0.472250 -0.003496
C96   C     C_R   0.998574 0.757252 0.537642 0.005286
C97   C     C_R   0.542369 0.036386 0.526664 -0.005697
C98   C     C_R   0.505858 0.038901 0.462678 -0.000939
C99   C     C_R   0.015689 0.538581 0.530926 -0.001065
C100  C     C_R   0.973665 0.536474 0.469941 0.002134
Cr1   Cr    Cr6+3 0.771950 0.169480 0.750100 0.986533
Cr2   Cr    Cr6+3 0.228050 0.169480 0.249900 0.995836
Cr3   Cr    Cr6+3 0.271950 0.669480 0.750100 0.989408
Cr4   Cr    Cr6+3 0.728050 0.669480 0.249900 0.988757
Cr5   Cr    Cr6+3 0.614930 0.323340 0.749170 0.995621
Cr6   Cr    Cr6+3 0.385070 0.323340 0.250830 1.000708
Cr7   Cr    Cr6+3 0.114930 0.823340 0.749170 0.997293
Cr8   Cr    Cr6+3 0.885070 0.823340 0.250830 0.995185
Cr9   Cr    Cr6+3 0.616590 0.010620 0.750610 0.994112
Cr10  Cr    Cr6+3 0.383410 0.010620 0.249390 1.000687
Cr11  Cr    Cr6+3 0.116590 0.510620 0.750610 0.998904
Cr12  Cr    Cr6+3 0.883410 0.510620 0.249390 0.996106
H1    H     H_    0.851595 0.020634 0.073481 0.151072
H2    H     H_    0.162326 0.056917 0.916643 0.148802
H3    H     H_    0.351607 0.520587 0.073469 0.150908
H4    H     H_    0.662328 0.556923 0.916643 0.148886
H5    H     H_    0.640155 0.889592 0.077383 0.122250
H6    H     H_    0.355406 0.860031 0.927470 0.115622
H7    H     H_    0.140155 0.389599 0.077383 0.122925
H8    H     H_    0.855402 0.360017 0.927472 0.115621
H9    H     H_    0.627277 0.944273 0.951432 0.128798
H10   H     H_    0.362314 0.899203 0.055094 0.120996
H11   H     H_    0.127274 0.444287 0.951433 0.128724
H12   H     H_    0.862304 0.399174 0.055098 0.120902
H13   H     H_    0.910944 0.930789 0.467728 0.165167
H14   H     H_    0.053869 0.930538 0.545510 0.152458
H15   H     H_    0.437610 0.383153 0.451036 0.169817
H16   H     H_    0.561409 0.453346 0.547878 0.156719
H17   H     H_    0.790859 0.759189 0.586748 0.112915
H18   H     H_    0.333098 0.797928 0.429459 0.104521
H19   H     H_    0.186796 0.272923 0.575418 0.109954
H20   H     H_    0.810782 0.271181 0.424356 0.114605
H21   H     H_    0.803342 0.723492 0.458499 0.110457
H22   H     H_    0.335109 0.789544 0.559766 0.113639
H23   H     H_    0.188117 0.248566 0.446076 0.128228
H24   H     H_    0.810032 0.244684 0.553172 0.138088
H25   H     H_    0.713031 0.078871 0.414821 0.114987
H26   H     H_    0.159165 0.040837 0.567193 0.117763
H27   H     H_    0.319807 0.567734 0.426304 0.123263
H28   H     H_    0.685486 0.575314 0.575839 0.124312
H29   H     H_    0.702309 0.115868 0.542978 0.111200
H30   H     H_    0.157702 0.050359 0.441318 0.120681
H31   H     H_    0.317377 0.592821 0.552309 0.129366
H32   H     H_    0.689262 0.604848 0.449639 0.140835
H33   H     H_    0.497083 0.963360 0.932782 0.125989
H34   H     H_    0.472881 0.962992 0.055473 0.122447
H35   H     H_    0.997070 0.463360 0.932776 0.125886
H36   H     H_    0.972862 0.462992 0.055467 0.122435
H37   H     H_    0.451697 0.358275 0.054745 0.124322
H38   H     H_    0.489664 0.360753 0.929806 0.118660
H39   H     H_    0.951657 0.858271 0.054734 0.124366
H40   H     H_    0.989632 0.860750 0.929795 0.118403
O1    O     O_R   0.787510 0.042610 0.670410 -0.516707
O2    O     O_R   0.212490 0.042610 0.329590 -0.522447
O3    O     O_R   0.287510 0.542610 0.670410 -0.523467
O4    O     O_R   0.712490 0.542610 0.329590 -0.520202
O5    O     O_R   0.556450 0.252890 0.823790 -0.498815
O6    O     O_R   0.443550 0.252890 0.176210 -0.496797
O7    O     O_R   0.056450 0.752890 0.823790 -0.499586
O8    O     O_R   0.943550 0.752890 0.176210 -0.491230
O9    O     O_R   0.545750 0.051070 0.830560 -0.534638
O10   O     O_R   0.454250 0.051070 0.169440 -0.525289
O11   O     O_R   0.045750 0.551070 0.830560 -0.534723
O12   O     O_R   0.954250 0.551070 0.169440 -0.519813
O13   O     O_R   0.681210 0.959150 0.825320 -0.497192
O14   O     O_R   0.318790 0.959150 0.174680 -0.508741
O15   O     O_R   0.181210 0.459150 0.825320 -0.497611
O16   O     O_R   0.818790 0.459150 0.174680 -0.507276
O17   O     O_3   0.667820 0.167810 0.749960 -0.279917
O18   O     O_3   0.332180 0.167810 0.250040 -0.277145
O19   O     O_3   0.167820 0.667810 0.749960 -0.270916
O20   O     O_3   0.832180 0.667810 0.250040 -0.296469
O21   O     O_R   0.765670 0.292090 0.675090 -0.508215
O22   O     O_R   0.234330 0.292090 0.324910 -0.502993
O23   O     O_R   0.265670 0.792090 0.675090 -0.506313
O24   O     O_R   0.734330 0.792090 0.324910 -0.500501
O25   O     O_R   0.670220 0.409020 0.668560 -0.532533
O26   O     O_R   0.329780 0.409020 0.331440 -0.527476
O27   O     O_R   0.170220 0.909020 0.668560 -0.533810
O28   O     O_R   0.829780 0.909020 0.331440 -0.530064
O29   O     O_R   0.556580 0.251590 0.674980 -0.504082
O30   O     O_R   0.443420 0.251590 0.325020 -0.497028
O31   O     O_R   0.056580 0.751590 0.674980 -0.501087
O32   O     O_R   0.943420 0.751590 0.325020 -0.491671
O33   O     O_R   0.545890 0.049670 0.670030 -0.520365
O34   O     O_R   0.454110 0.049670 0.329970 -0.526742
O35   O     O_R   0.045890 0.549670 0.670030 -0.522342
O36   O     O_R   0.954110 0.549670 0.329970 -0.513062
O37   O     O_R   0.681340 0.957860 0.676500 -0.528794
O38   O     O_R   0.318660 0.957860 0.323500 -0.507122
O39   O     O_R   0.181340 0.457860 0.676500 -0.520693
O40   O     O_R   0.818660 0.457860 0.323500 -0.526738
O41   O     O_R   0.787380 0.044010 0.830940 -0.537735
O42   O     O_R   0.212620 0.044010 0.169060 -0.527299
O43   O     O_R   0.287380 0.544010 0.830940 -0.537675
O44   O     O_R   0.712620 0.544010 0.169060 -0.525998
O45   O     O_R   0.765540 0.293390 0.823910 -0.525536
O46   O     O_R   0.234460 0.293390 0.176090 -0.529892
O47   O     O_R   0.265540 0.793390 0.823910 -0.526760
O48   O     O_R   0.734460 0.793390 0.176090 -0.528545
O49   O     O_R   0.670090 0.410410 0.829090 -0.525634
O50   O     O_R   0.329910 0.410410 0.170910 -0.537535
O51   O     O_R   0.170090 0.910410 0.829090 -0.526295
O52   O     O_R   0.829910 0.910410 0.170910 -0.537225
C101  C     C_3   0.562197 0.910969 0.555843 -0.360907
H41   H     H_    0.611115 0.914127 0.584677 0.176833
H42   H     H_    0.520072 0.874297 0.590601 0.147469
H43   H     H_    0.572992 0.844433 0.512448 0.111817
C102  C     C_3   0.462253 0.926404 0.444544 -0.357933
H44   H     H_    0.409154 0.957922 0.429989 0.173314
H45   H     H_    0.487362 0.872418 0.401354 0.150370
H46   H     H_    0.452317 0.864049 0.489735 0.098684
C103  C     C_3   0.052297 0.420585 0.552428 -0.365743
H47   H     H_    0.102359 0.442150 0.577778 0.174413
H48   H     H_    0.018585 0.366442 0.588797 0.144603
H49   H     H_    0.066918 0.363426 0.506003 0.110406
C104  C     C_3   0.949176 0.412218 0.443817 -0.365621
H50   H     H_    0.900879 0.421205 0.413308 0.176689
H51   H     H_    0.990207 0.367895 0.410441 0.144407
H52   H     H_    0.935727 0.350956 0.488783 0.112851
C105  C     C_3   0.862927 0.092120 0.940652 -0.259010
C106  C     C_3   0.918325 0.147456 0.989426 -0.499790
H53   H     H_    0.893711 0.204762 0.031095 0.156029
H54   H     H_    0.949756 0.073677 0.014712 0.141228
H55   H     H_    0.953625 0.206493 0.957488 0.132968
H56   H     H_    0.889446 0.021684 0.907263 0.170280
H57   H     H_    0.845740 0.168442 0.906695 0.191695
C107  C     C_3   0.144490 0.113621 0.054492 -0.257058
C108  C     C_3   0.091105 0.171489 0.004204 -0.494777
H58   H     H_    0.117298 0.232277 0.965464 0.158660
H59   H     H_    0.062630 0.098535 0.975231 0.149726
H60   H     H_    0.052952 0.227021 0.035361 0.135188
H61   H     H_    0.115024 0.048147 0.088355 0.180981
H62   H     H_    0.164605 0.188383 0.087703 0.189817
C109  C     C_3   0.362925 0.592134 0.940655 -0.258889
C110  C     C_3   0.418316 0.647481 0.989436 -0.499829
H63   H     H_    0.393692 0.704768 0.031108 0.155945
H64   H     H_    0.449753 0.573707 0.014719 0.141075
H65   H     H_    0.453612 0.706536 0.957504 0.133066
H66   H     H_    0.389451 0.521705 0.907268 0.170588
H67   H     H_    0.345734 0.668454 0.906699 0.191587
C111  C     C_3   0.644488 0.613615 0.054494 -0.257198
C112  C     C_3   0.591101 0.671481 0.004208 -0.494694
H68   H     H_    0.617293 0.732271 0.965467 0.158805
H69   H     H_    0.562627 0.598527 0.975235 0.149800
H70   H     H_    0.552950 0.727012 0.035366 0.134940
H71   H     H_    0.615024 0.548141 0.088359 0.180390
H72   H     H_    0.664604 0.688378 0.087705 0.190023
C113  C     C_3   0.532912 0.476522 0.411432 -0.402801
H73   H     H_    0.590651 0.463255 0.412923 0.163048
H74   H     H_    0.515018 0.465366 0.355830 0.160980
H75   H     H_    0.519840 0.570994 0.429258 0.115360
C114  C     C_3   0.456494 0.394982 0.587117 -0.384653
H76   H     H_    0.421946 0.313346 0.583041 0.155848
H77   H     H_    0.474127 0.407070 0.642544 0.171880
H78   H     H_    0.425616 0.478166 0.573789 0.122799
C115  C     C_3   0.013376 0.952467 0.412729 -0.387563
H79   H     H_    0.062769 0.898837 0.406000 0.158197
H80   H     H_    0.985562 0.957638 0.361230 0.175785
H81   H     H_    0.026544 0.047665 0.428659 0.104398
C116  C     C_3   0.951527 0.944683 0.601764 -0.385743
H82   H     H_    0.902245 0.891256 0.605760 0.158945
H83   H     H_    0.978776 0.941496 0.653660 0.161394
H84   H     H_    0.938223 0.041801 0.589978 0.127961

loop_
_geom_bond_atom_site_label_1
_geom_bond_atom_site_label_2
_ccdc_geom_bond_type
Cr2   O18   S    
C49   C53   A    
C58   C62   A    
C93   C94   A    
C55   C59   A    
C34   C37   A    
Cr6   O18   S    
C41   C42   A    
C88   O44   A    
Cr1   O21   S    
C95   C96   A    
C8    C96   S    
C21   H25   S    
C3    O23   A    
C85   O41   A    
C68   H12   S    
C1    O25   A    
C97   C98   A    
Cr10  O10   S    
C45   O29   A    
C7    C8    S    
Cr4   O24   S    
C46   C89   S    
Cr7   O19   S    
C103  H47   S    
C24   H28   S    
C104  H52   S    
C15   C19   A    
C1    O21   A    
C113  H73   S    
C44   H40   S    
C51   C71   A    
C37   C41   A    
C52   C72   A    
C64   C68   A    
C23   H27   S    
C80   O52   A    
C39   C84   S    
C48   O36   A    
C108  H60   S    
C83   O11   A    
Cr2   O46   S    
C114  H76   S    
C30   C74   S    
Cr1   O45   S    
C101  H43   S    
C41   H37   S    
C112  H68   S    
Cr12  O16   S    
C54   H2    S    
C92   C96   A    
C102  H46   S    
C110  H63   S    
Cr8   O28   S    
C3    C18   S    
C51   C109  S    
C115  H79   S    
C109  H66   S    
C78   O50   A    
C9    C13   A    
C109  H67   S    
C3    O27   A    
C73   O37   A    
C53   H1    S    
Cr5   O29   S    
C74   O38   A    
C52   C56   A    
C11   C15   A    
C36   H36   S    
C87   O15   A    
C35   C36   A    
C15   H23   S    
Cr9   O37   S    
C88   O16   A    
C48   C91   S    
C86   O14   A    
Cr7   O31   S    
C27   H31   S    
C109  C110  S    
C66   H10   S    
Cr1   O17   S    
C2    O26   A    
C28   H32   S    
C65   H9    S    
C91   C100  A    
Cr1   O41   S    
Cr2   O2    S    
C90   C97   A    
Cr11  O19   S    
C84   O12   A    
C9    C29   A    
Cr6   O26   S    
Cr4   O20   S    
C49   C105  S    
C101  H42   S    
C11   C31   A    
C49   C69   A    
C12   C32   A    
Cr3   O19   S    
Cr4   O48   S    
C40   C83   S    
Cr9   O13   S    
Cr3   O43   S    
C4    O28   A    
C47   C92   S    
C75   O39   A    
Cr2   O42   S    
C59   C78   S    
C107  C108  S    
C72   C88   S    
C48   O32   A    
Cr9   O17   S    
C90   C94   A    
C103  H48   S    
C25   C29   A    
Cr12  O12   S    
C98   C102  S    
C63   C67   A    
C60   C77   S    
C113  H74   S    
C81   O5    A    
Cr8   O32   S    
C110  H64   S    
C27   C31   A    
C16   H24   S    
C12   C16   A    
Cr11  O39   S    
C28   C32   A    
Cr11  O11   S    
C5    C113  S    
C102  H44   S    
C10   C14   A    
C116  H83   S    
C62   C66   A    
C105  H57   S    
Cr3   O47   S    
C14   H22   S    
C106  H55   S    
Cr9   O33   S    
C104  H50   S    
Cr6   O6    S    
C61   H5    S    
C105  H56   S    
Cr10  O38   S    
C111  H72   S    
C56   C60   A    
C6    C114  S    
C11   H19   S    
C68   C72   A    
C115  H80   S    
C74   O2    A    
C19   C23   A    
C43   C44   A    
C10   H18   S    
Cr7   O51   S    
C108  H58   S    
C76   O40   A    
C69   C85   S    
C52   C111  S    
Cr6   O50   S    
C105  C106  S    
C63   H7    S    
C10   C30   A    
Cr5   O49   S    
C99   C100  A    
C46   O30   A    
Cr1   O1    S    
C50   C107  S    
C16   C20   A    
C112  H70   S    
Cr5   O5    S    
Cr7   O7    S    
C5    H15   S    
Cr3   O23   S    
C33   C34   A    
C56   H4    S    
C83   O7    A    
C35   H35   S    
C87   O43   A    
C7    H13   S    
C106  H54   S    
C45   C90   S    
C47   O31   A    
C107  H61   S    
C33   H33   S    
Cr12  O40   S    
C71   C87   S    
C4    C17   S    
C58   C79   S    
C101  H41   S    
C8    H14   S    
C57   C80   S    
C100  C104  S    
C26   C30   A    
C23   C27   A    
Cr8   O20   S    
C38   C81   S    
C4    O24   A    
Cr5   O17   S    
C108  H59   S    
C37   C82   S    
C7    C115  S    
Cr2   O22   S    
C17   C21   A    
C47   O35   A    
C70   C86   S    
Cr10  O18   S    
C31   C75   S    
C43   H39   S    
C112  H69   S    
C114  H77   S    
Cr12  O36   S    
C54   C58   A    
C103  H49   S    
Cr3   O3    S    
C59   C63   A    
C65   C69   A    
C21   C25   A    
Cr10  O34   S    
C113  H75   S    
C53   C57   A    
C12   H20   S    
C79   O47   A    
Cr7   O27   S    
C2    C19   S    
C18   C22   A    
C81   O9    A    
C14   C18   A    
C36   C39   A    
C25   H29   S    
C24   C28   A    
Cr5   O25   S    
C1    C20   S    
C77   O49   A    
C32   C76   S    
C116  H84   S    
C5    C93   S    
C7    C95   S    
C84   O8    A    
C57   C61   A    
Cr8   O8    S    
C9    H17   S    
C104  H51   S    
C82   O10   A    
C22   H26   S    
Cr11  O35   S    
C111  H71   S    
C64   H8    S    
C110  H65   S    
C13   C17   A    
C89   C98   A    
C60   C64   A    
C79   O51   A    
C85   O13   A    
C115  H81   S    
C114  H78   S    
C35   C40   A    
C50   C70   A    
C6    H16   S    
C67   H11   S    
C50   C54   A    
Cr9   O9    S    
C86   O42   A    
Cr10  O14   S    
C45   O33   A    
C107  H62   S    
C5    C6    S    
C55   H3    S    
C82   O6    A    
C111  C112  S    
C102  H45   S    
C76   O4    A    
C67   C71   A    
C61   C65   A    
C89   C93   A    
C106  H53   S    
C42   H38   S    
C13   H21   S    
C62   H6    S    
C99   C103  S    
Cr11  O15   S    
C91   C95   A    
Cr4   O4    S    
C38   C42   A    
C75   O3    A    
C40   C44   A    
C29   C73   S    
C66   C70   A    
C46   O34   A    
Cr8   O52   S    
C22   C26   A    
C6    C94   S    
C73   O1    A    
C51   C55   A    
C116  H82   S    
C34   H34   S    
C33   C38   A    
C78   O46   A    
C97   C101  S    
C8    C116  S    
C26   H30   S    
C77   O45   A    
C39   C43   A    
C20   C24   A    
C2    O22   A    
Cr6   O30   S    
C92   C99   A    
Cr4   O44   S    
Cr12  O20   S    
C80   O48   A    
