data_mof_unit_27376.cif
_audit_creation_date              2012-12-10T18:42:34-0500
_audit_creation_method            fapswitch 2.2
_symmetry_space_group_name_H-M    P1
_symmetry_Int_Tables_number       1
_space_group_crystal_system       triclinic
_cell_length_a                    8.643995
_cell_length_b                    10.690834
_cell_length_c                    9.840123
_cell_angle_alpha                 90.035756
_cell_angle_beta                  98.390591
_cell_angle_gamma                 90.196997
_cell_volume                      899.601479123

loop_
_atom_site_label
_atom_site_type_symbol
_atom_type_description
_atom_site_fract_x
_atom_site_fract_y
_atom_site_fract_z
_atom_type_partial_charge
C1    C     C_R   0.499852 0.259926 0.499898 0.830850
C2    C     C_R   0.448087 0.064000 0.608892 -0.211924
C3    C     C_R   0.500157 0.872481 0.500106 0.004850
C4    C     C_R   0.499843 0.127519 0.499894 0.004850
C5    C     C_R   0.597962 0.577257 0.084800 -0.281505
C6    C     C_R   0.402039 0.422743 0.915200 -0.281504
C7    C     C_R   0.596839 0.579250 0.939564 0.608617
C8    C     C_R   0.403161 0.420750 0.060435 0.608617
C9    C     C_3   0.976024 0.305001 0.325970 -0.228935
C10   C     C_3   0.023977 0.695000 0.674030 -0.228931
C11   C     C_3   0.690656 0.779537 0.921281 -0.345586
C12   C     C_R   0.500148 0.740074 0.500102 0.830850
C13   C     C_3   0.309344 0.220464 0.078720 -0.345588
C14   C     C_R   0.201848 0.498796 0.464800 0.870704
C15   C     C_R   0.798152 0.501204 0.535200 0.870707
C16   C     C_2   0.038570 0.483751 0.447642 0.177406
C17   C     C_2   0.961430 0.516250 0.552358 0.177406
C18   C     C_R   0.551861 0.064171 0.391067 -0.216325
C19   C     C_R   0.448139 0.935828 0.608933 -0.216325
C20   C     C_R   0.551913 0.936000 0.391108 -0.211924
H1    H     H_    0.593864 0.113425 0.307338 0.148892
H2    H     H_    0.084902 0.732532 0.772736 0.188007
H3    H     H_    0.900104 0.726275 0.663157 0.165588
H4    H     H_    0.082479 0.735109 0.590239 0.113926
H5    H     H_    0.764293 0.794755 0.022238 0.157253
H6    H     H_    0.568156 0.810226 0.924712 0.139623
H7    H     H_    0.738260 0.839946 0.845496 0.190376
H8    H     H_    0.261739 0.160055 0.154505 0.190375
H9    H     H_    0.431844 0.189774 0.075292 0.139624
H10   H     H_    0.235709 0.205244 0.977763 0.157254
H11   H     H_    0.406136 0.886575 0.692662 0.148892
H12   H     H_    0.593646 0.886893 0.307208 0.146385
H13   H     H_    0.406355 0.113107 0.692793 0.146385
H14   H     H_    0.677642 0.636398 0.151401 0.179185
H15   H     H_    0.322358 0.363602 0.848599 0.179185
H16   H     H_    0.099897 0.273728 0.336833 0.165597
H17   H     H_    0.915091 0.267468 0.227266 0.188006
H18   H     H_    0.917532 0.264890 0.409765 0.113922
N1    N     N_R   0.499960 0.499970 0.857200 -0.139382
N2    N     N_R   0.500040 0.500030 0.142800 -0.139382
O1    O     O_R   0.499990 0.316750 0.614620 -0.639461
O2    O     O_3   0.034971 0.563346 0.677107 -0.572889
O3    O     O_3   0.699177 0.653819 0.879093 -0.553167
O4    O     O_3   0.300822 0.346181 0.120906 -0.553169
O5    O     O_R   0.500010 0.683250 0.385380 -0.639461
O6    O     O_R   0.499990 0.316780 0.385290 -0.593419
O7    O     O_R   0.500010 0.683220 0.614710 -0.593418
O8    O     O_R   0.271750 0.499990 0.587840 -0.593948
O9    O     O_R   0.728250 0.500010 0.412160 -0.593948
O10   O     O_R   0.271750 0.500010 0.358510 -0.549059
O11   O     O_R   0.728250 0.499990 0.641490 -0.549059
O12   O     O_3   0.965029 0.436654 0.322893 -0.572890
Zn1   Zn    Zn3+2 0.500000 0.499980 0.653120 1.003934
Zn2   Zn    Zn3+2 0.500000 0.500020 0.346880 1.003933

loop_
_geom_bond_atom_site_label_1
_geom_bond_atom_site_label_2
_ccdc_geom_bond_type
C9    H16   S    
C2    C4    A    
C13   H8    S    
C11   O3    S    
C15   O11   A    
C10   H3    S    
C10   O2    S    
C18   H1    S    
C18   C20   A    
C11   H7    S    
C7    N1    A    
O7    Zn1   S    
C1    C4    S    
C19   H11   S    
C5    H14   S    
O6    Zn2   S    
C9    H17   S    
C4    C18   A    
C3    C20   A    
N1    Zn1   S    
C10   H2    S    
C3    C19   A    
O1    Zn1   S    
O10   Zn2   S    
C9    O12   S    
C12   O7    A    
C2    H13   S    
C1    O1    A    
C9    H18   S    
O5    Zn2   S    
N2    Zn2   S    
C15   O9    A    
O8    Zn1   S    
C14   C16   S    
C1    O6    A    
C14   O10   A    
O9    Zn2   S    
C16   O12   S    
C13   H10   S    
C6    H15   S    
C15   C17   S    
C20   H12   S    
C5    N2    A    
C13   H9    S    
C7    O3    S    
C5    C7    A    
C14   O8    A    
C11   H5    S    
C17   O2    S    
C16   C17   D    
C6    C8    A    
C3    C12   S    
C8    N2    A    
C11   H6    S    
C10   H4    S    
C2    C19   A    
C6    N1    A    
C13   O4    S    
C8    O4    S    
C12   O5    A    
O11   Zn1   S    
