data_mof_unit_36263.cif
_audit_creation_date              2012-12-10T18:58:42-0500
_audit_creation_method            fapswitch 2.2
_symmetry_space_group_name_H-M    P1
_symmetry_Int_Tables_number       1
_space_group_crystal_system       triclinic
_cell_length_a                    12.992073
_cell_length_b                    10.81789
_cell_length_c                    9.537937
_cell_angle_alpha                 89.936255
_cell_angle_beta                  95.973851
_cell_angle_gamma                 90.112253
_cell_volume                      1333.24383296

loop_
_atom_site_label
_atom_site_type_symbol
_atom_type_description
_atom_site_fract_x
_atom_site_fract_y
_atom_site_fract_z
_atom_type_partial_charge
C1    C     C_R   0.502070 0.262277 0.500299 0.813411
C2    C     C_R   0.026858 0.521107 0.557103 0.119189
C3    C     C_R   0.974185 0.456663 0.441642 0.101168
C4    C     C_R   0.866627 0.440025 0.435878 0.283439
C5    C     C_R   0.865628 0.558992 0.653116 -0.249243
C6    C     C_R   0.972399 0.570008 0.662883 -0.198847
C7    C     C_R   0.516355 0.063399 0.627816 0.146966
C8    C     C_R   0.512990 0.129221 0.501487 -0.098021
C9    C     C_R   0.525188 0.064623 0.376390 -0.184018
C10   C     C_R   0.525298 0.935744 0.376320 -0.217716
C11   C     C_R   0.513230 0.870749 0.501358 -0.099747
C12   C     C_R   0.300791 0.498553 0.473884 0.796945
C13   C     C_R   0.516488 0.936213 0.627736 0.124415
C14   C     C_3   0.447385 0.929052 0.743247 -0.464030
C15   C     C_3   0.447207 0.069460 0.743344 -0.482801
C16   C     C_R   0.541945 0.596858 0.079464 0.246220
C17   C     C_R   0.449049 0.411240 0.067338 -0.056143
C18   C     C_R   0.448952 0.411309 0.918391 -0.069786
C19   C     C_R   0.542123 0.596675 0.932132 0.250929
C20   C     C_3   0.651506 0.640268 0.941888 -0.503350
C21   C     C_3   0.651129 0.641308 0.100998 -0.475282
C22   C     C_R   0.502239 0.737695 0.500196 0.796090
C23   C     C_R   0.699360 0.496755 0.525833 0.861641
C24   C     C_R   0.812154 0.496174 0.539531 -0.120509
C25   C     C_R   0.188739 0.489670 0.459015 -0.040750
C26   C     C_R   0.030652 0.411805 0.334360 -0.149928
C27   C     C_R   0.137019 0.429378 0.342536 -0.222014
C28   C     C_R   0.133705 0.535758 0.565643 -0.239023
Cu1   Cu    Cu3+1 0.499990 0.499980 0.640670 0.948162
Cu2   Cu    Cu3+1 0.500010 0.500020 0.359330 0.972376
H1    H     H_    0.487397 0.888598 0.841358 0.195404
H2    H     H_    0.370233 0.110069 0.708184 0.194481
H3    H     H_    0.487124 0.109799 0.841564 0.202560
H4    H     H_    0.409367 0.338148 0.117573 0.129627
H5    H     H_    0.409032 0.338436 0.857063 0.135899
H6    H     H_    0.704625 0.569698 0.905324 0.226504
H7    H     H_    0.658337 0.733994 0.895830 0.191185
H8    H     H_    0.704850 0.572394 0.154881 0.258660
H9    H     H_    0.657052 0.735791 0.146832 0.186093
H10   H     H_    0.824507 0.602661 0.732700 0.164358
H11   H     H_    0.993722 0.363746 0.243226 0.196405
H12   H     H_    0.012148 0.619515 0.751373 0.149056
H13   H     H_    0.179258 0.392758 0.259699 0.152892
H14   H     H_    0.174156 0.583452 0.655137 0.145281
H15   H     H_    0.529346 0.112888 0.277568 0.175454
H16   H     H_    0.529465 0.887774 0.277457 0.161208
H17   H     H_    0.370516 0.887927 0.707986 0.199367
N1    N     N_R   0.500660 0.500930 0.148010 -0.174304
N2    N     N_R   0.500660 0.500890 0.852110 -0.182426
O1    O     O_R   0.500000 0.319640 0.618810 -0.584024
O2    O     O_R   0.500010 0.319680 0.381230 -0.577128
O3    O     O_R   0.348990 0.499960 0.599490 -0.587989
O4    O     O_R   0.349000 0.500000 0.361910 -0.588033
O5    O     O_R   0.499990 0.680320 0.618770 -0.583542
O6    O     O_R   0.500000 0.680360 0.381190 -0.590345
O7    O     O_R   0.651000 0.500000 0.638090 -0.591197
O8    O     O_R   0.651010 0.500040 0.400510 -0.536957
Cl1   Cl    Cl    0.801623 0.343233 0.304551 -0.658230

loop_
_geom_bond_atom_site_label_1
_geom_bond_atom_site_label_2
_ccdc_geom_bond_type
C10   H16   S    
C2    C28   A    
C23   C24   S    
C9    H15   S    
C16   C21   S    
Cu1   O7    S    
C25   C27   A    
C1    C8    S    
C11   C13   A    
Cu2   O6    S    
C19   N2    A    
C11   C22   S    
C12   O4    A    
C21   H9    S    
C17   N1    A    
C12   C25   S    
Cu2   O2    S    
Cu1   O5    S    
C10   C11   A    
C16   N1    A    
C7    C15   S    
C17   C18   A    
C22   O6    A    
C7    C8    A    
C22   O5    A    
C2    C6    A    
C13   C14   S    
C25   C28   A    
C20   H7    S    
C1    O2    A    
C23   O7    A    
C26   C27   A    
C14   H17   S    
C5    C24   A    
C16   C19   A    
C18   H5    S    
Cu2   N1    S    
C12   O3    A    
C28   H14   S    
C1    O1    A    
C2    C3    A    
Cu1   O1    S    
C6    H12   S    
C5    C6    A    
C4    C24   A    
Cu2   O4    S    
C17   H4    S    
Cu1   Cu2   S    
C3    C4    A    
C20   H6    S    
Cu2   O8    S    
C27   H13   S    
C7    C13   A    
C20   C21   S    
C26   H11   S    
C9    C10   A    
C5    H10   S    
C4    Cl1   S    
C23   O8    A    
C14   H1    S    
C14   C15   S    
Cu1   N2    S    
C15   H3    S    
C3    C26   A    
C21   H8    S    
C19   C20   S    
C18   N2    A    
C8    C9    A    
Cu1   O3    S    
C15   H2    S    
