data_mof_unit_54661.cif
_audit_creation_date              2012-12-11T15:29:37-0500
_audit_creation_method            fapswitch 2.2
_symmetry_space_group_name_H-M    P1
_symmetry_Int_Tables_number       1
_space_group_crystal_system       triclinic
_cell_length_a                    13.491927
_cell_length_b                    13.499513
_cell_length_c                    27.581247
_cell_angle_alpha                 90.736438
_cell_angle_beta                  90.202847
_cell_angle_gamma                 60.013681
_cell_volume                      4350.69046609

loop_
_atom_site_label
_atom_site_type_symbol
_atom_type_description
_atom_site_fract_x
_atom_site_fract_y
_atom_site_fract_z
_atom_type_partial_charge
C1    C     C_R   0.620376 0.101227 0.569893 0.546013
C2    C     C_1   0.631035 0.732662 0.616070 -0.013512
C3    C     C_3   0.686936 0.566048 0.767162 -0.065415
C4    C     C_3   0.678501 0.655552 0.804546 0.055351
C5    C     C_3   0.581657 0.661262 0.740675 -0.117250
C6    C     C_3   0.662555 0.684762 0.710181 0.036120
C7    C     C_3   0.573392 0.750336 0.778785 -0.112956
C8    C     C_3   0.654079 0.774340 0.747533 -0.112512
C9    C     C_1   0.687555 0.634188 0.856703 -0.037600
C10   C     C_1   0.649039 0.705907 0.658020 -0.057143
C11   C     C_3   0.092221 0.132895 0.737367 -0.081209
C12   C     C_R   0.599735 0.779471 0.568502 0.545126
C13   C     C_3   0.184392 0.057799 0.775138 -0.151262
C14   C     C_1   0.098819 0.199025 0.900518 0.003429
C15   C     C_1   0.230566 0.137606 0.617233 -0.011669
C16   C     C_3   0.060738 0.239218 0.769218 0.407728
C17   C     C_3   0.151464 0.165165 0.806392 0.056924
C18   C     C_3   0.148328 0.260723 0.742755 -0.075565
C19   C     C_3   0.181325 0.153226 0.711573 0.005692
C20   C     C_3   0.240326 0.185425 0.780370 -0.151522
C21   C     C_3   0.273956 0.077728 0.748399 -0.128263
C22   C     C_1   0.127731 0.179095 0.858595 -0.015504
C23   C     C_R   0.277983 0.121659 0.569429 0.545383
C24   C     C_1   0.203275 0.146128 0.659296 -0.052563
C25   C     C_3   0.628964 0.276176 0.739200 -0.099887
C26   C     C_3   0.554516 0.258088 0.776860 -0.101476
C27   C     C_1   0.691197 0.206375 0.901472 -0.006368
C28   C     C_1   0.635548 0.133203 0.617881 -0.015183
C29   C     C_3   0.736763 0.203206 0.770257 -0.102127
C30   C     C_3   0.662171 0.184851 0.807083 0.048525
C31   C     C_3   0.758028 0.093615 0.742731 -0.101882
C32   C     C_3   0.650477 0.166733 0.712440 0.052781
C33   C     C_3   0.683672 0.075469 0.780276 -0.103128
C34   C     C_R   0.621212 0.099561 0.431202 0.542953
C35   C     C_3   0.575829 0.148365 0.749232 -0.103810
C36   C     C_1   0.673963 0.195390 0.859403 -0.050638
C37   C     C_1   0.643721 0.152018 0.660074 -0.056650
C38   C     C_R   0.640702 0.717915 0.383879 0.023160
C39   C     C_R   0.732134 0.718979 0.360342 -0.126077
C40   C     C_R   0.747248 0.698456 0.310899 -0.111780
C41   C     C_R   0.672584 0.674391 0.284545 0.036229
C42   C     C_R   0.589558 0.660349 0.309062 -0.125455
C43   C     C_R   0.573382 0.682391 0.358544 -0.129520
C44   C     C_R   0.579925 0.707730 0.203482 -0.107003
C45   C     C_R   0.602063 0.776113 0.430667 0.542549
C46   C     C_R   0.588073 0.686736 0.153762 -0.107743
C47   C     C_R   0.794832 0.595838 0.159239 -0.109023
C48   C     C_R   0.786896 0.614141 0.208816 -0.099170
C49   C     C_R   0.679742 0.666282 0.231570 0.043986
C50   C     C_R   0.695964 0.625874 0.131870 0.026672
C51   C     C_R   0.226554 0.136663 0.383207 0.023656
C52   C     C_R   0.251206 0.040231 0.354600 -0.125363
C53   C     C_R   0.228342 0.051560 0.305329 -0.120973
C54   C     C_R   0.178049 0.159751 0.284120 0.035727
C55   C     C_R   0.145564 0.257182 0.313390 -0.120889
C56   C     C_R   0.279166 0.119909 0.430939 0.541113
C57   C     C_R   0.170521 0.245613 0.362645 -0.129793
C58   C     C_R   0.177002 0.250374 0.205811 -0.120083
C59   C     C_R   0.148632 0.268750 0.156949 -0.129033
C60   C     C_R   0.097170 0.120344 0.158049 -0.123739
C61   C     C_R   0.123604 0.103426 0.206915 -0.121952
C62   C     C_R   0.160346 0.170689 0.231518 0.034746
C63   C     C_R   0.104610 0.206607 0.133234 0.021108
C64   C     C_R   0.635622 0.134609 0.383066 0.022944
C65   C     C_R   0.741828 0.078308 0.359307 -0.124940
C66   C     C_R   0.748140 0.094238 0.309857 -0.100139
C67   C     C_3   0.767697 0.589946 0.735893 -0.063494
C68   C     C_R   0.647929 0.163877 0.283706 0.040133
C69   C     C_R   0.543056 0.224272 0.307994 -0.122338
C70   C     C_R   0.537154 0.211128 0.357348 -0.124986
C71   C     C_R   0.706977 0.081915 0.199290 -0.018808
C72   C     C_R   0.718790 0.099806 0.150030 -0.041779
C73   C     C_R   0.604318 0.306112 0.163948 -0.035773
C74   C     C_R   0.596651 0.287342 0.212689 -0.144974
C75   C     C_R   0.652002 0.176760 0.231120 -0.010089
C76   C     C_R   0.675164 0.212757 0.132940 -0.021596
C77   C     C_R   0.049983 0.234662 0.948014 0.547408
C78   C     C_3   0.759498 0.679048 0.774116 -0.090779
C79   C     C_R   0.711917 0.561744 0.946404 0.548203
C80   C     C_R   0.722478 0.223990 0.949143 0.548414
C81   C     C_R   0.048002 0.243687 0.086298 0.538195
C82   C     C_R   0.709698 0.571949 0.084405 0.541882
C83   C     C_R   0.718415 0.232511 0.086989 0.539731
C84   C     C_1   0.696884 0.607591 0.898679 -0.001146
Cr1   Cr    Cr6+3 0.417550 0.169090 0.500530 1.021607
Cr2   Cr    Cr6+3 0.669180 0.913420 0.499920 1.022640
Cr3   Cr    Cr6+3 0.413260 0.917540 0.499520 1.021932
Cr4   Cr    Cr6+3 0.909770 0.175810 0.018240 1.044741
Cr5   Cr    Cr6+3 0.913300 0.427650 0.016090 1.039532
Cr6   Cr    Cr6+3 0.657770 0.431010 0.016900 1.054161
H1    H     H_    0.832327 0.686746 0.788509 0.113490
H2    H     H_    0.301617 0.206131 0.798361 0.110857
H3    H     H_    0.131782 0.344656 0.729130 0.111303
H4    H     H_    0.470768 0.325329 0.791503 0.106895
H5    H     H_    0.606971 0.358390 0.721831 0.106696
H6    H     H_    0.509365 0.125711 0.739948 0.102938
H7    H     H_    0.705741 0.993206 0.797620 0.105432
H8    H     H_    0.841849 0.026339 0.728151 0.107369
H9    H     H_    0.803323 0.225713 0.779515 0.162027
H10   H     H_    0.786198 0.745005 0.379155 0.133427
H11   H     H_    0.847242 0.524034 0.717724 0.146961
H12   H     H_    0.495951 0.752382 0.220171 0.108160
H13   H     H_    0.510904 0.712200 0.133007 0.146154
H14   H     H_    0.813159 0.708136 0.293114 0.136678
H15   H     H_    0.865232 0.581101 0.229489 0.104434
H16   H     H_    0.879520 0.548569 0.143284 0.140948
H17   H     H_    0.534325 0.636678 0.289720 0.105396
H18   H     H_    0.503498 0.679089 0.376176 0.126791
H19   H     H_    0.295867 0.954908 0.369439 0.134526
H20   H     H_    0.208764 0.300730 0.223798 0.105741
H21   H     H_    0.155897 0.335146 0.138453 0.132162
H22   H     H_    0.640495 0.860328 0.738797 0.104831
H23   H     H_    0.254986 0.974996 0.283544 0.103613
H24   H     H_    0.109535 0.041771 0.225890 0.106242
H25   H     H_    0.063277 0.071104 0.140722 0.140817
H26   H     H_    0.103397 0.341940 0.298011 0.103209
H27   H     H_    0.150592 0.321049 0.384164 0.123717
H28   H     H_    0.818739 0.019067 0.378471 0.124855
H29   H     H_    0.830499 0.050040 0.291764 0.116178
H30   H     H_    0.549286 0.360237 0.236849 0.113947
H31   H     H_    0.493769 0.816338 0.796882 0.106659
H32   H     H_    0.464890 0.278785 0.288473 0.107141
H33   H     H_    0.453688 0.255162 0.374529 0.138408
H34   H     H_    0.508787 0.653538 0.726345 0.108515
H35   H     H_    0.700257 0.480135 0.775850 0.148029
H36   H     H_    0.200059 0.974325 0.788957 0.112278
H37   H     H_    0.030216 0.113046 0.719487 0.107957
H38   H     H_    0.362746 0.010543 0.739112 0.116621
O1    O     O_R   0.301780 0.195490 0.553940 -0.507169
O2    O     O_R   0.658840 0.818280 0.449970 -0.504313
O3    O     O_R   0.503160 0.801780 0.445740 -0.523353
O4    O     O_R   0.319320 0.022190 0.450230 -0.504327
O5    O     O_3   0.499990 0.000010 0.499990 -0.245161
O6    O     O_R   0.819250 0.149410 0.965240 -0.499576
O7    O     O_R   0.006940 0.180310 0.968270 -0.495357
O8    O     O_R   0.028420 0.332670 0.963010 -0.500309
O9    O     O_R   0.810130 0.520390 0.966030 -0.488130
O10   O     O_R   0.636050 0.541380 0.962520 -0.508682
O11   O     O_R   0.666480 0.323610 0.968170 -0.495946
O12   O     O_R   0.522450 0.158840 0.550250 -0.493852
O13   O     O_R   0.817280 0.156800 0.072180 -0.503283
O14   O     O_R   0.005110 0.187160 0.067410 -0.505062
O15   O     O_R   0.026450 0.340060 0.069950 -0.521745
O16   O     O_R   0.808300 0.527240 0.065170 -0.507404
O17   O     O_R   0.634070 0.548770 0.069460 -0.491374
O18   O     O_R   0.664650 0.330470 0.067300 -0.487294
O19   O     O_3   0.826940 0.344820 0.017080 -0.255296
O20   O     O_R   0.694460 0.003360 0.553820 -0.507030
O21   O     O_R   0.657750 0.819520 0.549120 -0.495192
O22   O     O_R   0.501990 0.803120 0.552700 -0.506796
O23   O     O_R   0.318230 0.023430 0.549370 -0.493777
O24   O     O_R   0.302950 0.194150 0.446980 -0.521844
O25   O     O_R   0.523540 0.157600 0.451100 -0.506489
O26   O     O_R   0.695630 0.002030 0.446860 -0.517589
F1    F     F_    0.950231 0.323038 0.780714 -0.673737
C85   C     C_1   0.749643 0.966805 0.216786 0.202894
N1    N     N_1   0.783791 0.874836 0.230598 -0.321979
C86   C     C_1   0.774247 0.002139 0.117159 0.230180
N2    N     N_1   0.818366 0.924163 0.091012 -0.282699
C87   C     C_1   0.538490 0.422820 0.147810 0.223047
N3    N     N_1   0.484121 0.516451 0.135260 -0.295718

loop_
_geom_bond_atom_site_label_1
_geom_bond_atom_site_label_2
_ccdc_geom_bond_type
C44   C49   A    
C58   C62   A    
C66   C68   A    
C26   H4    S    
C73   C74   A    
Cr3   O5    S    
C72   C76   A    
C2    C12   S    
Cr6   O11   S    
C72   C86   S    
C7    C8    S    
C35   H6    S    
C68   C75   S    
C20   H2    S    
C73   C87   S    
C11   C19   S    
Cr6   O19   S    
C63   C81   S    
C60   C63   A    
C52   H19   S    
C57   H27   S    
C85   N1    T    
C19   C21   S    
C18   C19   S    
Cr6   O17   S    
C8    H22   S    
C79   C84   S    
C31   H8    S    
C55   H26   S    
C17   C20   S    
C80   O6    A    
C23   O1    A    
C51   C56   S    
C41   C42   A    
C14   C77   S    
Cr3   O3    S    
C38   C45   S    
Cr1   O1    S    
C48   H15   S    
C70   H33   S    
C41   C49   S    
C47   C48   A    
C53   C54   A    
C44   C46   A    
C16   C17   S    
Cr3   O22   S    
C1    C28   S    
C59   H21   S    
C65   H28   S    
C31   C33   S    
C51   C57   A    
C77   O8    A    
C64   C70   A    
C56   O24   A    
C42   H17   S    
C18   C20   S    
C25   C32   S    
C15   C23   S    
C45   O2    A    
Cr5   O8    S    
Cr3   O23   S    
C8    C78   S    
C69   C70   A    
C67   C78   S    
C7    H31   S    
C4    C7    S    
C76   C83   S    
Cr4   O14   S    
Cr6   O10   S    
C53   H23   S    
C47   C50   A    
C34   O26   A    
C25   C29   S    
C38   C39   A    
C3    C67   S    
C74   C75   A    
C29   H9    S    
C51   C52   A    
C32   C35   S    
C12   O22   A    
C82   O16   A    
C27   C80   S    
Cr2   O21   S    
C39   C40   A    
C5    C7    S    
C44   H12   S    
C68   C69   A    
C6    C8    S    
C54   C62   S    
C50   C82   S    
C58   C59   A    
Cr5   O15   S    
C60   C61   A    
Cr3   O4    S    
C11   H37   S    
C4    C78   S    
C29   C30   S    
C40   H14   S    
C83   O18   A    
C11   C16   S    
Cr2   O5    S    
C31   C32   S    
C5    H34   S    
C47   H16   S    
C60   H25   S    
C16   F1    S    
C34   C64   S    
C13   C21   S    
Cr1   O25   S    
C32   C37   S    
C28   C37   T    
C21   H38   S    
Cr1   O12   S    
C56   O4    A    
C1    O12   A    
C13   H36   S    
C16   C18   S    
C81   O14   A    
C79   O9    A    
C45   O3    A    
Cr5   O9    S    
C66   H29   S    
C55   C57   A    
C86   N2    T    
C27   C36   T    
C73   C76   A    
C42   C43   A    
C3    C4    S    
Cr5   O16   S    
Cr4   O13   S    
C82   O17   A    
C52   C53   A    
C67   H11   S    
C83   O13   A    
C34   O25   A    
Cr5   O19   S    
C23   O23   A    
C54   C55   A    
C15   C24   T    
C30   C33   S    
C58   H20   S    
C12   O21   A    
Cr2   O2    S    
Cr4   O7    S    
C3    C5    S    
Cr2   O20   S    
C6    C10   S    
C3    H35   S    
C25   H5    S    
C13   C17   S    
C78   H1    S    
C80   O11   A    
C74   H30   S    
C46   H13   S    
C46   C50   A    
C59   C63   A    
C17   C22   S    
C30   C36   S    
C64   C65   A    
C14   C22   T    
C19   C24   S    
C25   C26   S    
Cr1   O24   S    
Cr4   O6    S    
C38   C43   A    
Cr6   O18   S    
C6    C67   S    
C87   N3    T    
C71   C75   A    
C11   C13   S    
C39   H10   S    
C5    C6    S    
C69   H32   S    
C48   C49   A    
C71   C85   S    
C33   C35   S    
Cr4   O19   S    
C33   H7    S    
C43   H18   S    
Cr2   O26   S    
C61   C62   A    
C9    C84   T    
C26   C35   S    
C81   O15   A    
C79   O10   A    
C71   C72   A    
C20   C21   S    
C29   C31   S    
C65   C66   A    
C61   H24   S    
C18   H3    S    
C1    O20   A    
C40   C41   A    
C77   O7    A    
C4    C9    S    
Cr1   O5    S    
C26   C30   S    
C2    C10   T    
