data_mof_unit_6499.cif
_audit_creation_date              2012-12-10T17:19:54-0500
_audit_creation_method            fapswitch 2.2
_symmetry_space_group_name_H-M    P1
_symmetry_Int_Tables_number       1
_space_group_crystal_system       triclinic
_cell_length_a                    9.59048
_cell_length_b                    10.917295
_cell_length_c                    15.370007
_cell_angle_alpha                 88.065099
_cell_angle_beta                  74.455738
_cell_angle_gamma                 90.339443
_cell_volume                      1549.33947804

loop_
_atom_site_label
_atom_site_type_symbol
_atom_type_description
_atom_site_fract_x
_atom_site_fract_y
_atom_site_fract_z
_atom_type_partial_charge
C1    C     C_R   0.996877 0.262364 0.506496 0.824187
C2    C     C_R   0.678256 0.467333 0.911940 0.109746
C3    C     C_R   0.779326 0.493983 0.961307 0.159518
C4    C     C_R   0.531377 0.439623 0.958635 0.012452
C5    C     C_R   0.481793 0.468995 0.051427 0.040448
C6    C     C_R   0.585539 0.498485 0.098280 -0.195126
C7    C     C_R   0.732032 0.506460 0.054289 -0.225862
C8    C     C_R   0.433426 0.379282 0.918280 0.130887
C9    C     C_R   0.286741 0.369755 0.963412 -0.234853
C10   C     C_R   0.234211 0.411861 0.050491 0.116324
C11   C     C_R   0.331008 0.461904 0.095521 0.095133
C12   C     C_R   0.917936 0.500443 0.672574 0.852350
C13   C     C_R   0.086344 0.397753 0.095110 -0.200877
C14   C     C_R   0.033393 0.431939 0.184360 -0.196027
C15   C     C_R   0.273448 0.501641 0.183896 -0.229591
C16   C     C_R   0.182651 0.126308 0.599374 0.152743
C17   C     C_R   0.315314 0.077705 0.601020 -0.194264
C18   C     C_R   0.339308 0.954858 0.583921 -0.183945
C19   C     C_R   0.224209 0.881250 0.575295 0.179117
C20   C     C_R   0.105785 0.935642 0.548560 0.028200
C21   C     C_R   0.094292 0.064830 0.554297 0.043255
C22   C     C_R   0.990824 0.128129 0.520030 -0.086060
C23   C     C_R   0.998926 0.737199 0.506219 0.793568
C24   C     C_R   0.885846 0.062176 0.492810 -0.190162
C25   C     C_R   0.887809 0.935540 0.493581 -0.200275
C26   C     C_R   0.998230 0.870432 0.518011 -0.086401
C27   C     C_R   0.697685 0.660677 0.379416 -0.161638
C28   C     C_R   0.651534 0.740668 0.321179 -0.215601
C29   C     C_R   0.507514 0.742789 0.322257 -0.216865
C30   C     C_R   0.408917 0.664446 0.381197 -0.151943
C31   C     C_R   0.451114 0.580411 0.441429 0.223790
C32   C     C_R   0.600930 0.579548 0.441012 0.206938
C33   C     C_R   0.549626 0.424035 0.555740 -0.051075
C34   C     C_R   0.081723 0.498341 0.327680 0.773633
C35   C     C_R   0.401929 0.424369 0.555800 -0.030373
C36   C     C_R   0.872245 0.496935 0.772224 -0.045341
C37   C     C_R   0.127580 0.481880 0.229701 -0.045895
C38   C     C_R   0.926320 0.511284 0.916555 -0.195942
C39   C     C_R   0.973073 0.507912 0.822852 -0.123660
C40   C     C_R   0.725204 0.480302 0.817410 -0.193236
Cu1   Cu    Cu3+1 0.140660 0.499990 0.500010 0.966590
Cu2   Cu    Cu3+1 0.859340 0.500010 0.499990 0.950354
H1    H     H_    0.808011 0.527581 0.092851 0.148657
H2    H     H_    0.012430 0.356153 0.061948 0.148544
H3    H     H_    0.803853 0.108745 0.468031 0.162496
H4    H     H_    0.387642 0.127272 0.631107 0.180620
H5    H     H_    0.432744 0.913650 0.599441 0.179608
H6    H     H_    0.805551 0.888673 0.470128 0.165222
H7    H     H_    0.584969 0.361364 0.601160 0.167779
H8    H     H_    0.810341 0.666653 0.373047 0.198396
H9    H     H_    0.728382 0.801656 0.274952 0.157281
H10   H     H_    0.340255 0.547381 0.219375 0.141795
H11   H     H_    0.471618 0.805481 0.276865 0.158798
H12   H     H_    0.301581 0.674120 0.375892 0.194807
H13   H     H_    0.327377 0.362861 0.601778 0.166441
H14   H     H_    0.920375 0.414899 0.218822 0.156119
H15   H     H_    0.213821 0.323801 0.931580 0.187064
H16   H     H_    0.005017 0.528888 0.953802 0.148594
H17   H     H_    0.087625 0.516841 0.790269 0.192588
H18   H     H_    0.646735 0.482495 0.778577 0.182418
H19   H     H_    0.557894 0.510759 0.170122 0.151492
N1    N     N_R   0.648320 0.501210 0.499140 -0.203783
N2    N     N_R   0.352470 0.501290 0.499110 -0.192066
O1    O     O_R   0.118810 0.319640 0.500010 -0.570685
O2    O     O_R   0.881240 0.319660 0.500000 -0.580747
O3    O     O_R   0.055570 0.499980 0.629840 -0.549256
O4    O     O_R   0.818000 0.500010 0.629830 -0.577363
O5    O     O_R   0.118760 0.680340 0.500000 -0.586572
O6    O     O_R   0.881190 0.680360 0.499990 -0.599450
O7    O     O_R   0.182000 0.499990 0.370170 -0.597598
O8    O     O_R   0.944430 0.500020 0.370160 -0.602528
I1    I     I_    0.081551 0.226057 0.714094 -0.365366
I2    I     I_    0.203961 0.731120 0.667950 -0.356935
I3    I     I_    0.494512 0.263448 0.805266 -0.410590

loop_
_geom_bond_atom_site_label_1
_geom_bond_atom_site_label_2
_ccdc_geom_bond_type
C14   H14   S    
C16   C21   A    
C40   H18   S    
C34   C37   S    
Cu1   Cu2   S    
C23   O6    A    
C19   C20   A    
C16   I1    S    
C4    C8    A    
C18   H5    S    
C30   H12   S    
C20   C26   A    
C24   H3    S    
C6    H19   S    
C28   C29   A    
C5    C11   A    
C3    C7    A    
C38   C39   A    
C28   H9    S    
C16   C17   A    
C33   H7    S    
C18   C19   A    
C23   C26   S    
C15   C37   A    
C38   H16   S    
C11   C15   A    
C3    C38   A    
C8    C9    A    
Cu2   O2    S    
C1    O2    A    
C7    H1    S    
C12   C36   S    
C9    C10   A    
Cu2   N1    S    
C27   H8    S    
C1    C22   S    
C21   C22   A    
Cu1   O5    S    
C12   O4    A    
C35   H13   S    
C31   N2    A    
C19   I2    S    
C17   H4    S    
C33   N1    A    
C25   C26   A    
C12   O3    A    
Cu2   O6    S    
C23   O5    A    
C2    C4    A    
C29   C30   A    
C31   C32   A    
C36   C40   A    
C30   C31   A    
C39   H17   S    
C8    I3    S    
C17   C18   A    
C15   H10   S    
C24   C25   A    
C25   H6    S    
C6    C7    A    
Cu2   O4    S    
C22   C24   A    
Cu1   N2    S    
C1    O1    A    
C34   O7    A    
C27   C32   A    
C36   C39   A    
C4    C5    A    
C10   C13   A    
Cu1   O3    S    
C2    C3    A    
C32   N1    A    
C14   C37   A    
C5    C6    A    
C29   H11   S    
Cu2   O8    S    
C33   C35   A    
C9    H15   S    
C10   C11   A    
C2    C40   A    
C20   C21   A    
C27   C28   A    
C35   N2    A    
Cu1   O1    S    
C13   C14   A    
C34   O8    A    
C13   H2    S    
Cu1   O7    S    
