data_mof_unit_15107.cif
_audit_creation_date              2012-12-11T14:51:38-0500
_audit_creation_method            fapswitch 2.2
_symmetry_space_group_name_H-M    P1
_symmetry_Int_Tables_number       1
_space_group_crystal_system       triclinic
_cell_length_a                    6.958917
_cell_length_b                    16.730615
_cell_length_c                    16.921643
_cell_angle_alpha                 101.244613
_cell_angle_beta                  89.840502
_cell_angle_gamma                 91.38283
_cell_volume                      1931.74953373

loop_
_atom_site_label
_atom_site_type_symbol
_atom_type_description
_atom_site_fract_x
_atom_site_fract_y
_atom_site_fract_z
_atom_type_partial_charge
O1    O     O_R   0.506340 0.439070 0.579550 -0.546651
O2    O     O_R   0.170010 0.404890 0.412100 -0.535562
O3    O     O_R   0.005010 0.560930 0.420450 -0.528626
C1    C     C_R   0.339306 0.381890 0.382999 0.779968
O4    O     O_R   0.176280 0.429360 0.578400 -0.548110
O5    O     O_R   0.011320 0.585570 0.587940 -0.526279
C2    C     C_R   0.342861 0.413910 0.605244 0.707251
O6    O     O_R   0.500030 0.414430 0.412060 -0.544679
O7    O     O_3   0.340950 0.551220 0.502940 -0.357548
V1    V     V_3+5 0.064020 0.490500 0.499460 1.568093
O8    O     O_R   0.681910 0.595110 0.587900 -0.539663
C3    C     C_R   0.853176 0.618189 0.616407 0.832955
O9    O     O_R   0.675640 0.570640 0.421600 -0.525502
C4    C     C_R   0.845033 0.587338 0.396134 0.866942
V2    V     V_3+5 0.564670 0.509500 0.500540 1.575349
O10   O     O_3   0.837610 0.448780 0.497060 -0.392130
C5    C     C_R   0.904792 0.861331 0.165851 -0.129411
C6    C     C_R   0.853474 0.636145 0.331493 -0.252503
C7    C     C_R   0.861481 0.640302 0.187562 0.315369
C8    C     C_R   0.844907 0.596205 0.250584 0.288292
C9    C     C_R   0.847641 0.721750 0.349922 0.189479
C10   C     C_R   0.862729 0.767449 0.287569 0.004175
C11   C     C_R   0.885607 0.726993 0.205707 -0.130366
C12   C     C_R   0.922935 0.775785 0.146010 0.397290
C13   C     C_R   0.866379 0.898715 0.245119 -0.250851
C14   C     C_R   0.852502 0.853101 0.305475 -0.042168
H1    H     H_    0.852680 0.964302 0.260883 0.141429
H2    H     H_    0.830604 0.886176 0.366207 0.190086
C15   C     C_3   0.821243 0.817290 0.729972 -0.223162
C16   C     C_3   0.992844 0.767197 0.690776 0.262021
H3    H     H_    0.767935 0.873691 0.713089 0.197342
C17   C     C_3   0.872988 0.687685 0.687257 -0.303790
C18   C     C_3   0.701176 0.736676 0.726501 -0.159188
C19   C     C_3   0.779601 0.730286 0.810893 0.428883
C20   C     C_3   0.949721 0.681061 0.771058 0.302913
C21   C     C_3   0.067063 0.760726 0.774871 0.323106
C22   C     C_3   0.897383 0.810084 0.814183 -0.270811
H4    H     H_    0.554841 0.723993 0.700969 0.233677
C23   C     C_3   0.556602 0.277987 0.280370 -0.116595
C24   C     C_3   0.476647 0.189535 0.275401 -0.213833
H5    H     H_    0.554035 0.140113 0.296110 0.170535
H6    H     H_    0.699797 0.301193 0.304586 0.196766
C25   C     C_3   0.409070 0.187886 0.188131 -0.218481
C26   C     C_3   0.487427 0.275222 0.193106 0.402748
C27   C     C_3   0.292869 0.309635 0.225209 0.345851
C28   C     C_3   0.213469 0.222330 0.220604 0.353469
C29   C     C_3   0.279615 0.224043 0.308124 -0.240552
C30   C     C_3   0.358497 0.311722 0.312187 -0.230000
H7    H     H_    0.191836 0.202647 0.355144 0.169323
C31   C     C_R   0.425077 0.142761 0.836120 -0.194223
C32   C     C_R   0.339405 0.362559 0.667704 -0.086840
C33   C     C_R   0.162739 0.314019 0.774235 0.017582
C34   C     C_R   0.180273 0.365811 0.719242 -0.081814
C35   C     C_R   0.483035 0.306279 0.672712 -0.139446
C36   C     C_R   0.465105 0.251716 0.726938 0.018872
C37   C     C_R   0.302422 0.255582 0.778629 0.024592
C38   C     C_R   0.282825 0.201286 0.833409 0.348855
C39   C     C_R   0.583531 0.139611 0.783941 -0.191186
C40   C     C_R   0.604562 0.192760 0.730141 0.400005
H8    H     H_    0.693828 0.095201 0.785116 0.182575
H9    H     H_    0.036197 0.319501 0.811955 0.199785
H10   H     H_    0.066953 0.408493 0.716628 0.166877
H11   H     H_    0.604376 0.303610 0.632228 0.171238
O11   O     O_R   0.266070 0.085680 0.087850 -0.526481
O12   O     O_R   0.590090 0.070660 0.921580 -0.544123
O13   O     O_R   0.754780 0.914400 0.912080 -0.537496
C41   C     C_R   0.423092 0.088050 0.896149 0.782131
O14   O     O_R   0.596110 0.095130 0.087880 -0.513236
O15   O     O_R   0.760850 0.939050 0.079570 -0.546789
C42   C     C_R   0.427031 0.117968 0.117083 0.777413
O16   O     O_R   0.260010 0.061030 0.920360 -0.520300
O17   O     O_3   0.425070 0.948840 0.997010 -0.364248
V3    V     V_3+5 0.702100 0.009490 0.000550 1.663649
O18   O     O_R   0.090200 0.929250 0.078500 -0.533140
C43   C     C_R   0.919989 0.913068 0.104206 0.757178
O19   O     O_R   0.084180 0.904770 0.912200 -0.512802
C44   C     C_R   0.913429 0.880910 0.884270 0.815648
V4    V     V_3+5 0.201420 0.990350 0.999580 1.683897
O20   O     O_3   0.928580 0.051150 0.002990 -0.339003
Cl1   Cl    Cl    0.017996 0.735745 0.049643 -0.464629
Cl2   Cl    Cl    0.652613 0.702529 0.893554 -0.368027
Cl3   Cl    Cl    0.038744 0.590987 0.797982 -0.478481
Cl4   Cl    Cl    0.303431 0.780055 0.812307 -0.536790
Cl5   Cl    Cl    0.623713 0.308088 0.115511 -0.354013
Cl6   Cl    Cl    0.179644 0.388815 0.188087 -0.383326
Cl7   Cl    Cl    0.978537 0.188490 0.185713 -0.574836
Cl8   Cl    Cl    0.086729 0.209839 0.901449 -0.540663
Cl9   Cl    Cl    0.809339 0.182442 0.667642 -0.654000
Br1   Br    Br    0.811810 0.579397 0.079758 -0.117673
Cl10  Cl    Cl    0.789353 0.490556 0.229153 -0.452896
Br2   Br    Br    0.803619 0.774205 0.460409 -0.468034
Br3   Br    Br    0.163966 0.794334 0.608964 -0.402654

loop_
_geom_bond_atom_site_label_1
_geom_bond_atom_site_label_2
_ccdc_geom_bond_type
C24   C29   S    
C36   C37   A    
C36   C40   A    
C19   C22   S    
C4    C6    S    
C27   Cl6   S    
C7    C8    A    
C1    O6    A    
C29   H7    S    
C27   C28   S    
C26   C27   S    
C21   C22   S    
O19   V4    S    
C33   H9    S    
O5    C3    A    
C35   H11   S    
C21   Cl4   S    
C39   H8    S    
V2    O10   S    
C6    C9    A    
C15   C18   S    
O12   V3    S    
C37   C38   A    
C19   C20   S    
C40   Cl9   S    
O17   V4    S    
C35   C36   A    
O8    V2    S    
C12   Cl1   S    
C24   C25   S    
C20   C21   S    
C25   C42   S    
O12   C41   A    
C11   C12   A    
O15   V3    S    
O1    V2    S    
C19   Cl2   S    
O11   C42   A    
O7    V1    S    
C41   O16   A    
O14   V3    S    
O9    C4    A    
C3    C17   S    
C20   Cl3   S    
C23   H6    S    
C5    C12   A    
O18   C43   A    
C31   C39   A    
C17   C20   S    
O19   C44   A    
C16   Br3   S    
C23   C24   S    
O4    C2    A    
V4    O20   S    
C39   C40   A    
O13   V3    S    
C22   C44   S    
C38   Cl8   S    
C31   C41   S    
C32   C34   A    
O2    C1    A    
C25   C26   S    
C15   C16   S    
C7    Br1   S    
C34   H10   S    
C29   C30   S    
C18   C19   S    
V3    O20   S    
O3    C4    A    
C24   H5    S    
O6    V2    S    
O9    V2    S    
O18   V4    S    
O2    V1    S    
C33   C34   A    
C7    C11   A    
C1    C30   S    
C9    Br2   S    
C27   C30   S    
O13   C44   A    
C28   C29   S    
O1    C2    A    
C31   C38   A    
O11   V4    S    
O17   V3    S    
C26   Cl5   S    
O5    V1    S    
O8    C3    A    
C23   C26   S    
C13   H1    S    
C14   H2    S    
C18   H4    S    
C16   C21   S    
C32   C35   A    
C5    C13   A    
C17   C18   S    
C13   C14   A    
C2    C32   S    
O4    V1    S    
C15   H3    S    
O3    V1    S    
V1    O10   S    
C16   C17   S    
C8    Cl10  S    
O15   C43   A    
C6    C8    A    
O7    V2    S    
C25   C28   S    
O14   C42   A    
C10   C14   A    
C15   C22   S    
C5    C43   S    
C10   C11   A    
C9    C10   A    
O16   V4    S    
C33   C37   A    
C23   C30   S    
C28   Cl7   S    
