data_mof_unit_62426.cif
_audit_creation_date              2012-12-10T19:55:58-0500
_audit_creation_method            fapswitch 2.2
_symmetry_space_group_name_H-M    P1
_symmetry_Int_Tables_number       1
_space_group_crystal_system       triclinic
_cell_length_a                    18.284003
_cell_length_b                    18.283946
_cell_length_c                    35.454924
_cell_angle_alpha                 89.99415
_cell_angle_beta                  89.993623
_cell_angle_gamma                 89.999053
_cell_volume                      11852.7129734

loop_
_atom_site_label
_atom_site_type_symbol
_atom_type_description
_atom_site_fract_x
_atom_site_fract_y
_atom_site_fract_z
_atom_type_partial_charge
C1    C     C_R   0.500000 0.141123 0.500000 0.916180
C2    C     C_1   0.717826 0.500001 0.499995 -0.188481
C3    C     C_3   0.974161 0.292164 0.135016 -0.883060
C4    C     C_3   0.638641 0.988816 0.111612 -0.388691
C5    C     C_3   0.708851 0.984121 0.134930 -0.882502
C6    C     C_3   0.018174 0.637916 0.111643 -0.387667
C7    C     C_3   0.025773 0.707854 0.134976 -0.883072
C8    C     C_3   0.362134 0.981411 0.888353 -0.387613
C9    C     C_3   0.292215 0.973637 0.865020 -0.883027
C10   C     C_3   0.981499 0.637868 0.888329 -0.387656
C11   C     C_3   0.973770 0.707783 0.864983 -0.883043
C12   C     C_3   0.637857 0.018635 0.888325 -0.387615
C13   C     C_1   0.499999 0.717826 0.499995 -0.188608
C14   C     C_3   0.707767 0.026435 0.864977 -0.883015
C15   C     C_3   0.018545 0.362128 0.888354 -0.387651
C16   C     C_3   0.026304 0.292208 0.865020 -0.883053
C17   C     C_3   0.862041 0.517767 0.611668 -0.387765
C18   C     C_3   0.792095 0.525211 0.635015 -0.883011
C19   C     C_3   0.484964 0.861713 0.611650 -0.388153
C20   C     C_3   0.478664 0.791641 0.634989 -0.882738
C21   C     C_3   0.137967 0.482202 0.611639 -0.387759
C22   C     C_3   0.207922 0.474747 0.634970 -0.883024
C23   C     C_3   0.514995 0.138290 0.611628 -0.388149
C24   C     C_1   0.282174 0.499999 0.500005 -0.188480
C25   C     C_3   0.521267 0.208368 0.634955 -0.882749
C26   C     C_3   0.862040 0.482163 0.388360 -0.387718
C27   C     C_3   0.792086 0.474704 0.365029 -0.883034
C28   C     C_3   0.488315 0.138589 0.388358 -0.388625
C29   C     C_3   0.483496 0.208780 0.365024 -0.882527
C30   C     C_3   0.137951 0.517877 0.388331 -0.387723
C31   C     C_3   0.207894 0.525361 0.364984 -0.883020
C32   C     C_3   0.511735 0.861406 0.388381 -0.388631
C33   C     C_3   0.516656 0.791215 0.365060 -0.882532
C34   C     C_1   0.999999 0.782174 0.000005 -0.188471
C35   C     C_1   0.217826 0.999996 0.999996 -0.188565
C36   C     C_1   0.000001 0.217826 0.999996 -0.188470
C37   C     C_1   0.782174 0.000004 0.000006 -0.188564
C38   C     C_1   0.500000 0.217474 0.500003 -0.199435
C39   C     C_1   0.782525 0.500001 0.499996 -0.199562
C40   C     C_1   0.500000 0.782526 0.499995 -0.199436
C41   C     C_R   0.858877 0.500000 0.499999 0.916386
C42   C     C_1   0.217474 0.499999 0.500004 -0.199562
C43   C     C_1   0.999999 0.717474 0.000004 -0.199593
C44   C     C_1   0.282526 0.999998 0.999998 -0.199501
C45   C     C_1   0.000001 0.282526 0.999996 -0.199593
C46   C     C_1   0.717474 0.000002 0.000006 -0.199500
C47   C     C_R   0.500004 0.000001 0.426844 0.841278
C48   C     C_R   0.000002 0.500004 0.426842 0.841534
C49   C     C_R   0.499996 0.999998 0.573156 0.841423
C50   C     C_R   0.999998 0.499996 0.573158 0.841531
C51   C     C_R   0.000004 0.500001 0.926841 0.841566
C52   C     C_R   0.500000 0.858877 0.499998 0.916178
C53   C     C_R   0.500002 0.000004 0.926841 0.841566
C54   C     C_R   0.999996 0.499998 0.073158 0.841553
C55   C     C_R   0.499998 0.999996 0.073155 0.841275
C56   C     C_R   0.433939 0.005515 0.173487 -0.147763
C57   C     C_R   0.990963 0.434317 0.173496 -0.147825
C58   C     C_R   0.566102 0.994442 0.173471 -0.147774
C59   C     C_R   0.008989 0.565707 0.173484 -0.147837
C60   C     C_R   0.434322 0.990796 0.826513 -0.147857
C61   C     C_R   0.990848 0.565661 0.826503 -0.147850
C62   C     C_R   0.565656 0.009233 0.826500 -0.147846
C63   C     C_R   0.141123 0.500000 0.500001 0.916385
C64   C     C_R   0.009206 0.434317 0.826515 -0.147858
C65   C     C_R   0.934293 0.508790 0.673495 -0.147829
C66   C     C_R   0.492537 0.934111 0.673485 -0.147801
C67   C     C_R   0.065738 0.491167 0.673481 -0.147840
C68   C     C_R   0.507421 0.065900 0.673475 -0.147813
C69   C     C_R   0.934268 0.491174 0.326518 -0.147833
C70   C     C_R   0.494227 0.066048 0.326514 -0.147769
C71   C     C_R   0.065704 0.508867 0.326505 -0.147820
C72   C     C_R   0.505843 0.933932 0.326525 -0.147774
C73   C     C_R   0.432668 0.005577 0.133893 0.124180
C74   C     C_R   0.999999 0.641123 0.000001 0.916422
C75   C     C_R   0.990869 0.433045 0.133904 0.124047
C76   C     C_R   0.567354 0.994385 0.133877 0.124197
C77   C     C_R   0.009092 0.566968 0.133891 0.124063
C78   C     C_R   0.433060 0.990696 0.866106 0.124041
C79   C     C_R   0.990744 0.566933 0.866096 0.124035
C80   C     C_R   0.566928 0.009336 0.866092 0.124024
C81   C     C_R   0.009299 0.433055 0.866108 0.124046
C82   C     C_R   0.933020 0.508890 0.633903 0.124056
C83   C     C_R   0.492458 0.932843 0.633893 0.124099
C84   C     C_R   0.066996 0.491076 0.633888 0.124070
C85   C     C_R   0.358877 1.000000 0.000001 0.916272
C86   C     C_R   0.507504 0.067162 0.633883 0.124114
C87   C     C_R   0.933008 0.491075 0.366111 0.124069
C88   C     C_R   0.494157 0.067315 0.366108 0.124174
C89   C     C_R   0.066977 0.508961 0.366097 0.124051
C90   C     C_R   0.505895 0.932675 0.366119 0.124186
C91   C     C_R   0.500007 0.999987 0.114316 -0.145892
C92   C     C_R   0.999986 0.500004 0.114323 -0.146338
C93   C     C_R   0.499997 0.000013 0.885674 -0.146394
C94   C     C_R   0.000015 0.499996 0.885676 -0.146365
C95   C     C_R   0.000005 0.499987 0.614322 -0.146299
C96   C     C_R   0.000000 0.358877 0.999999 0.916421
C97   C     C_R   0.499986 0.000001 0.614317 -0.146108
C98   C     C_R   0.999996 0.500013 0.385678 -0.146310
C99   C     C_R   0.500016 0.999996 0.385683 -0.145920
C100  C     C_R   0.358548 0.500000 0.500002 0.936609
C101  C     C_R   0.500001 0.358548 0.500001 0.936597
C102  C     C_R   0.641452 0.500000 0.499998 0.936609
C103  C     C_R   0.499999 0.641452 0.499998 0.936596
C104  C     C_R   0.858548 0.000003 0.000002 0.936558
C105  C     C_R   1.000000 0.858548 0.000002 0.936569
C106  C     C_R   0.141452 0.999997 0.999998 0.936557
C107  C     C_R   0.641123 0.000000 0.000003 0.916269
C108  C     C_R   1.000000 0.141452 0.999998 0.936569
C109  C     C_R   0.500025 0.999978 0.192846 0.040340
C110  C     C_R   0.999976 0.500015 0.192853 0.040531
C111  C     C_R   0.499987 0.000012 0.807143 0.040506
C112  C     C_R   0.000028 0.499986 0.807146 0.040532
C113  C     C_R   0.000019 0.499977 0.692851 0.040526
C114  C     C_R   0.499979 0.000007 0.692844 0.040467
C115  C     C_R   0.999984 0.500021 0.307148 0.040527
C116  C     C_R   0.500038 0.999988 0.307153 0.040348
C117  C     C_1   0.500033 0.999980 0.233107 -0.043032
C118  C     C_1   0.500001 0.282174 0.500004 -0.188608
C119  C     C_1   0.999977 0.500018 0.233110 -0.043056
C120  C     C_1   0.499983 0.000010 0.766885 -0.043073
C121  C     C_1   0.000028 0.499980 0.766890 -0.043069
C122  C     C_1   0.000026 0.499978 0.733108 -0.043061
C123  C     C_1   0.499981 0.000008 0.733102 -0.043048
C124  C     C_1   0.999979 0.500020 0.266892 -0.043054
C125  C     C_1   0.500037 0.999983 0.266892 -0.043034
C126  C     C_3   0.361370 0.011144 0.111645 -0.388694
C127  C     C_3   0.291169 0.015797 0.134981 -0.882489
C128  C     C_3   0.981785 0.362092 0.111670 -0.387672
H1    H     H_    0.384065 0.009689 0.189752 0.154954
H2    H     H_    0.486926 0.884378 0.689751 0.154903
H3    H     H_    0.115345 0.484519 0.689739 0.154890
H4    H     H_    0.513031 0.115634 0.689733 0.154903
H5    H     H_    0.884666 0.484503 0.310261 0.154891
H6    H     H_    0.489848 0.115906 0.310250 0.154954
H7    H     H_    0.115302 0.515540 0.310237 0.154891
H8    H     H_    0.510227 0.884070 0.310270 0.154954
H9    H     H_    0.284736 0.966174 0.152749 0.259261
H10   H     H_    0.291539 0.065597 0.152918 0.258675
H11   H     H_    0.243396 0.019202 0.115711 0.261553
H12   H     H_    0.984165 0.384736 0.189763 0.154892
H13   H     H_    0.363854 0.060485 0.093374 0.215271
H14   H     H_    0.356752 0.962533 0.092965 0.208519
H15   H     H_    0.023527 0.283569 0.152726 0.259649
H16   H     H_    0.924497 0.294712 0.153011 0.258345
H17   H     H_    0.968589 0.244584 0.115756 0.261398
H18   H     H_    0.932438 0.366847 0.093534 0.217231
H19   H     H_    0.029959 0.355238 0.092863 0.206739
H20   H     H_    0.715314 0.033733 0.152697 0.259259
H21   H     H_    0.708466 0.934313 0.152867 0.258682
H22   H     H_    0.756613 0.980703 0.115649 0.261566
H23   H     H_    0.615983 0.990266 0.189724 0.154954
H24   H     H_    0.636136 0.939490 0.093336 0.215285
H25   H     H_    0.643265 0.037440 0.092935 0.208522
H26   H     H_    0.976400 0.716441 0.152686 0.259654
H27   H     H_    0.075433 0.705323 0.152969 0.258345
H28   H     H_    0.031339 0.755429 0.115705 0.261409
H29   H     H_    0.067530 0.633165 0.093508 0.217237
H30   H     H_    0.970008 0.644756 0.092835 0.206743
H31   H     H_    0.283501 0.022989 0.847310 0.259593
H32   H     H_    0.294869 0.923984 0.847025 0.258411
H33   H     H_    0.244653 0.967950 0.884290 0.261399
H34   H     H_    0.015786 0.615292 0.189742 0.154892
H35   H     H_    0.367017 0.932059 0.906481 0.217381
H36   H     H_    0.355163 0.029549 0.907167 0.206601
H37   H     H_    0.023130 0.716458 0.847273 0.259603
H38   H     H_    0.924119 0.705153 0.846987 0.258403
H39   H     H_    0.968109 0.755353 0.884243 0.261407
H40   H     H_    0.932142 0.633019 0.906457 0.217358
H41   H     H_    0.029639 0.644812 0.907144 0.206619
H42   H     H_    0.716495 0.977085 0.847271 0.259588
H43   H     H_    0.705089 0.076086 0.846977 0.258410
H44   H     H_    0.755332 0.032141 0.884237 0.261387
H45   H     H_    0.384759 0.983844 0.810255 0.154919
H46   H     H_    0.632967 0.067983 0.906451 0.217377
H47   H     H_    0.644846 0.970495 0.907141 0.206594
H48   H     H_    0.976953 0.283513 0.847313 0.259603
H49   H     H_    0.075961 0.294848 0.847024 0.258408
H50   H     H_    0.031971 0.244645 0.884290 0.261415
H51   H     H_    0.067891 0.366991 0.906482 0.217369
H52   H     H_    0.970396 0.355178 0.907168 0.206619
H53   H     H_    0.783632 0.475825 0.652732 0.259590
H54   H     H_    0.794513 0.574885 0.653002 0.258405
H55   H     H_    0.744500 0.530655 0.615753 0.261421
H56   H     H_    0.983927 0.615224 0.810236 0.154899
H57   H     H_    0.866658 0.567119 0.593521 0.217142
H58   H     H_    0.855321 0.469567 0.592873 0.206821
H59   H     H_    0.528152 0.784008 0.652726 0.259440
H60   H     H_    0.428923 0.793210 0.652958 0.258500
H61   H     H_    0.474067 0.743964 0.615722 0.261472
H62   H     H_    0.435614 0.865447 0.593450 0.216358
H63   H     H_    0.533354 0.855862 0.592902 0.207510
H64   H     H_    0.216395 0.524128 0.652683 0.259593
H65   H     H_    0.205506 0.425069 0.652960 0.258408
H66   H     H_    0.255508 0.469303 0.615698 0.261432
H67   H     H_    0.615215 0.016184 0.810232 0.154920
H68   H     H_    0.133341 0.432856 0.593493 0.217150
H69   H     H_    0.144683 0.530408 0.592841 0.206825
H70   H     H_    0.471772 0.215989 0.652693 0.259446
H71   H     H_    0.571004 0.206817 0.652922 0.258500
H72   H     H_    0.525854 0.256042 0.615680 0.261482
H73   H     H_    0.564353 0.134563 0.593428 0.216362
H74   H     H_    0.466612 0.144127 0.592879 0.207515
H75   H     H_    0.783601 0.524090 0.347316 0.259635
H76   H     H_    0.794512 0.425034 0.347039 0.258357
H77   H     H_    0.744500 0.469243 0.384301 0.261419
H78   H     H_    0.016132 0.384749 0.810256 0.154899
H79   H     H_    0.866683 0.432806 0.406503 0.217147
H80   H     H_    0.855307 0.530354 0.407162 0.206824
H81   H     H_    0.533121 0.215350 0.347270 0.259297
H82   H     H_    0.433718 0.208278 0.347072 0.258646
H83   H     H_    0.479940 0.256541 0.384294 0.261549
H84   H     H_    0.438945 0.135944 0.406601 0.215425
H85   H     H_    0.536873 0.143358 0.407064 0.208380
H86   H     H_    0.216388 0.475980 0.347272 0.259628
H87   H     H_    0.205449 0.575034 0.346992 0.258356
H88   H     H_    0.255486 0.530831 0.384245 0.261406
H89   H     H_    0.884692 0.515435 0.689762 0.154890
H90   H     H_    0.133304 0.567227 0.406474 0.217141
H91   H     H_    0.144699 0.469680 0.407131 0.206818
H92   H     H_    0.467062 0.784592 0.347295 0.259284
H93   H     H_    0.566459 0.791766 0.347121 0.258664
H94   H     H_    0.520233 0.743462 0.384339 0.261556
H95   H     H_    0.561065 0.864083 0.406647 0.215442
H96   H     H_    0.463140 0.856609 0.407068 0.208379
O1    O     O_R   0.560470 0.107230 0.500140 -0.618741
O2    O     O_R   0.392770 0.060470 0.000140 -0.618102
O3    O     O_R   0.939530 0.392770 0.000140 -0.618513
O4    O     O_R   0.607230 0.939530 0.000140 -0.618105
O5    O     O_R   0.060470 0.392770 0.999860 -0.618488
O6    O     O_R   0.392770 0.939530 0.999860 -0.618959
O7    O     O_R   0.939530 0.607230 0.999860 -0.618485
O8    O     O_R   0.607230 0.060470 0.999860 -0.618958
O9    O     O_R   0.560470 0.999900 0.444700 -0.617011
O10   O     O_R   0.000100 0.560470 0.444700 -0.617255
O11   O     O_R   0.439530 0.000100 0.444700 -0.616996
O12   O     O_R   0.892770 0.560470 0.500140 -0.618483
O13   O     O_R   0.999900 0.439530 0.444700 -0.617247
O14   O     O_R   0.560470 0.000100 0.555300 -0.617126
O15   O     O_R   0.000100 0.439530 0.555300 -0.617257
O16   O     O_R   0.439530 0.999900 0.555300 -0.617137
O17   O     O_R   0.999900 0.560470 0.555300 -0.617249
O18   O     O_R   0.060470 0.499900 0.944700 -0.617297
O19   O     O_R   0.500100 0.060470 0.944700 -0.617293
O20   O     O_R   0.939530 0.500100 0.944700 -0.617285
O21   O     O_R   0.499900 0.939530 0.944700 -0.617281
O22   O     O_R   0.060470 0.500100 0.055300 -0.617263
O23   O     O_R   0.439530 0.892770 0.500140 -0.618739
O24   O     O_R   0.500100 0.939530 0.055300 -0.616999
O25   O     O_R   0.939530 0.499900 0.055300 -0.617272
O26   O     O_R   0.499900 0.060470 0.055300 -0.616986
O27   O     O_R   0.392480 0.499860 0.468850 -0.623348
O28   O     O_R   0.500140 0.392480 0.468850 -0.623532
O29   O     O_R   0.607520 0.500140 0.468850 -0.623364
O30   O     O_R   0.499860 0.607520 0.468850 -0.623542
O31   O     O_R   0.392480 0.500140 0.531150 -0.623381
O32   O     O_R   0.500140 0.607520 0.531150 -0.623434
O33   O     O_R   0.607520 0.499860 0.531150 -0.623368
O34   O     O_R   0.107230 0.439530 0.500140 -0.618485
O35   O     O_R   0.499860 0.392480 0.531150 -0.623446
O36   O     O_R   0.892480 0.999860 0.968850 -0.623324
O37   O     O_R   0.000140 0.892480 0.968850 -0.623366
O38   O     O_R   0.107520 0.000140 0.968850 -0.623340
O39   O     O_R   0.999860 0.107520 0.968850 -0.623376
O40   O     O_R   0.892480 0.000140 0.031150 -0.623577
O41   O     O_R   0.000140 0.107520 0.031150 -0.623340
O42   O     O_R   0.107520 0.999860 0.031150 -0.623563
O43   O     O_R   0.999860 0.892480 0.031150 -0.623353
O44   O     O_R   0.560470 0.892770 0.499860 -0.618353
O45   O     O_R   0.892770 0.439530 0.499860 -0.618522
O46   O     O_R   0.439530 0.107230 0.499860 -0.618348
O47   O     O_R   0.107230 0.560470 0.499860 -0.618522
O48   O     O_R   0.060470 0.607230 0.000140 -0.618514
Zn1   Zn    Zn3+2 0.580800 0.000000 0.500000 0.955342
Zn2   Zn    Zn3+2 0.500000 0.500000 0.541650 0.956294
Zn3   Zn    Zn3+2 0.000000 0.000000 0.958350 0.956490
Zn4   Zn    Zn3+2 0.000000 0.000000 0.041650 0.956174
Zn5   Zn    Zn3+2 0.000000 0.580800 0.500000 0.955154
Zn6   Zn    Zn3+2 0.419200 0.000000 0.500000 0.955340
Zn7   Zn    Zn3+2 0.000000 0.419200 0.500000 0.955153
Zn8   Zn    Zn3+2 0.080800 0.500000 0.000000 0.955100
Zn9   Zn    Zn3+2 0.500000 0.080800 0.000000 0.955243
Zn10  Zn    Zn3+2 0.919200 0.500000 0.000000 0.955103
Zn11  Zn    Zn3+2 0.500000 0.919200 0.000000 0.955244
Zn12  Zn    Zn3+2 0.500000 0.500000 0.458350 0.956186

loop_
_geom_bond_atom_site_label_1
_geom_bond_atom_site_label_2
_ccdc_geom_bond_type
C59   H34   S    
C8    C78   S    
O3    Zn10  S    
C77   C92   A    
C126  C127  S    
C103  O32   A    
C15   H51   S    
C36   C108  S    
C58   C109  A    
C68   C86   A    
C90   C99   A    
O7    Zn10  S    
C51   O20   A    
O18   Zn8   S    
C14   H42   S    
C100  O27   A    
C70   C88   A    
C59   C77   A    
C48   O13   A    
C5    H21   S    
C29   H82   S    
C39   C41   S    
C31   H86   S    
C12   H46   S    
C24   C42   T    
C58   H23   S    
C10   H41   S    
C54   C92   S    
O38   Zn3   S    
C60   C78   A    
O33   Zn2   S    
O40   Zn4   S    
C23   H73   S    
C27   H75   S    
C101  C118  S    
C62   C80   A    
C28   C29   S    
O13   Zn7   S    
C61   C79   A    
C17   C82   S    
O28   Zn12  S    
C71   H7    S    
C30   C31   S    
C50   C95   S    
C72   H8    S    
C31   H87   S    
C9    H31   S    
C78   C93   A    
C73   C126  S    
C2    C102  S    
C12   C80   S    
C106  O38   A    
C59   C110  A    
C47   C99   S    
O35   Zn2   S    
O45   Zn7   S    
C108  O39   A    
C75   C128  S    
C104  O36   A    
C68   H4    S    
C86   C97   A    
C63   O47   A    
C13   C40   T    
C55   C91   S    
C25   H70   S    
C32   H96   S    
C66   C83   A    
O36   Zn3   S    
C2    C39   T    
C10   H40   S    
C32   C90   S    
C62   C111  A    
C26   H79   S    
O42   Zn4   S    
C26   C87   S    
C23   C86   S    
O15   Zn7   S    
O44   Zn1   S    
C28   C88   S    
C11   H38   S    
C22   H65   S    
C41   O45   A    
C57   C75   A    
C115  C124  S    
C127  H10   S    
C65   C113  A    
O8    Zn9   S    
C13   C103  S    
C100  O31   A    
C56   H1    S    
C69   C87   A    
O29   Zn12  S    
C30   H90   S    
C87   C98   A    
C33   H94   S    
C50   O17   A    
C43   C74   S    
C23   C25   S    
C4    H25   S    
C67   C84   A    
O48   Zn8   S    
C5    H20   S    
C15   H52   S    
C107  O4    A    
C11   H39   S    
C60   H45   S    
O11   Zn6   S    
O32   Zn2   S    
C127  H11   S    
C62   H67   S    
C30   C89   S    
C19   C83   S    
C32   H95   S    
C6    H30   S    
C16   H50   S    
C29   H83   S    
C14   H43   S    
C47   O11   A    
C4    H24   S    
C26   H80   S    
O43   Zn4   S    
C106  O42   A    
O25   Zn10  S    
C113  C122  S    
O31   Zn2   S    
C109  C117  S    
O12   Zn5   S    
C96   O3    A    
O17   Zn5   S    
C3    H15   S    
C73   C91   A    
C79   C94   A    
C15   C81   S    
C8    H36   S    
C63   O34   A    
C17   H57   S    
C20   H61   S    
C74   O48   A    
C3    C128  S    
C8    C9    S    
C6    C77   S    
C1    O46   A    
C51   C94   S    
C18   H53   S    
C70   C116  A    
C119  C124  T    
C61   C112  A    
C64   H78   S    
O6    Zn11  S    
C126  H14   S    
C5    H22   S    
C27   H76   S    
C57   H12   S    
C111  C120  S    
C27   H77   S    
C84   C95   A    
C38   C118  T    
C76   C91   A    
O22   Zn8   S    
O21   Zn11  S    
C25   H71   S    
C33   H93   S    
C20   H60   S    
C72   C90   A    
O41   Zn4   S    
C57   C110  A    
C71   C89   A    
C21   C84   S    
C17   H58   S    
O9    Zn1   S    
C46   C107  S    
C17   C18   S    
C26   C27   S    
C55   O26   A    
C71   C115  A    
C36   C45   T    
C58   C76   A    
C25   H72   S    
C96   O5    A    
C7    H28   S    
C9    H33   S    
C35   C44   T    
C121  C122  T    
C42   C63   S    
C75   C92   A    
C126  H13   S    
C12   H47   S    
C114  C123  S    
C1    C38   S    
O4    Zn11  S    
C14   H44   S    
C52   O44   A    
C12   C14   S    
C3    H17   S    
O39   Zn3   S    
C116  C125  S    
O26   Zn9   S    
O16   Zn6   S    
C101  O28   A    
C28   H84   S    
C22   H64   S    
C44   C85   S    
O14   Zn1   S    
C52   O23   A    
C60   C111  A    
C56   C109  A    
C6    H29   S    
C16   H49   S    
C70   H6    S    
C33   H92   S    
C1    O1    A    
C28   H85   S    
C50   O15   A    
C61   H56   S    
C69   H5    S    
C56   C73   A    
C66   C114  A    
C24   C100  S    
C34   C105  S    
O1    Zn1   S    
C67   H3    S    
C3    H16   S    
C53   O19   A    
C21   H69   S    
C49   O14   A    
C8    H35   S    
C31   H88   S    
C110  C119  S    
C85   O6    A    
C37   C104  S    
C10   C79   S    
C120  C123  T    
C128  H19   S    
C29   H81   S    
C6    C7    S    
O37   Zn3   S    
C41   O12   A    
C82   C95   A    
C105  O43   A    
C48   C98   S    
C69   C115  A    
C72   C116  A    
O5    Zn8   S    
O20   Zn10  S    
C21   C22   S    
C9    H32   S    
C102  O33   A    
C89   C98   A    
C74   O7    A    
C102  O29   A    
C104  O40   A    
C32   C33   S    
O46   Zn6   S    
C19   C20   S    
C67   C113  A    
O2    Zn9   S    
C112  C121  S    
C128  H18   S    
C35   C106  S    
C40   C52   S    
O19   Zn9   S    
C20   H59   S    
C65   H89   S    
C81   C94   A    
C64   C112  A    
C16   H48   S    
C65   C82   A    
C7    H26   S    
C18   H55   S    
O23   Zn6   S    
C4    C5    S    
C101  O35   A    
C37   C46   T    
C54   O25   A    
C23   H74   S    
O27   Zn12  S    
C54   O22   A    
C21   H68   S    
C108  O41   A    
C53   O21   A    
C64   C81   A    
C4    C76   S    
C88   C99   A    
C49   O16   A    
C10   C11   S    
C19   H62   S    
C49   C97   S    
C51   O18   A    
C55   O24   A    
O47   Zn5   S    
C7    H27   S    
O24   Zn11  S    
C105  O37   A    
C83   C97   A    
C68   C114  A    
O34   Zn7   S    
O10   Zn5   S    
C103  O30   A    
C18   H54   S    
C22   H66   S    
C11   H37   S    
C85   O2    A    
C127  H9    S    
C66   H2    S    
C80   C93   A    
C107  O8    A    
C45   C96   S    
C117  C125  T    
C34   C43   T    
C53   C93   S    
C48   O10   A    
C15   C16   S    
C19   H63   S    
C30   H91   S    
C47   O9    A    
O30   Zn12  S    
