data_mof_unit_44847.cif
_audit_creation_date              2013-03-05T16:25:43-0500
_audit_creation_method            fapswitch 2.2
_symmetry_space_group_name_H-M    P1
_symmetry_Int_Tables_number       1
_space_group_crystal_system       triclinic
_cell_length_a                    10.838611
_cell_length_b                    15.092396
_cell_length_c                    13.853141
_cell_angle_alpha                 89.820635
_cell_angle_beta                  90.430488
_cell_angle_gamma                 90.078145
_cell_volume                      2266.02814372

loop_
_atom_site_label
_atom_site_type_symbol
_atom_site_description
_atom_site_fract_x
_atom_site_fract_y
_atom_site_fract_z
_atom_type_partial_charge
O1    O     O_R   0.500010 0.371450 0.581430 -0.590874
O2    O     O_R   0.499990 0.628550 0.418570 -0.605019
O3    O     O_R   0.500010 0.371460 0.418560 -0.596961
O4    O     O_R   0.499990 0.628540 0.581440 -0.577034
C1    C     C_R   0.498338 0.329859 0.500142 0.833792
C2    C     C_R   0.498920 0.670245 0.499787 0.838974
O5    O     O_R   0.319640 0.500000 0.581430 -0.589018
O6    O     O_R   0.680360 0.500000 0.418570 -0.578540
O7    O     O_R   0.319640 0.500010 0.418560 -0.583040
O8    O     O_R   0.680360 0.499990 0.581440 -0.594460
C3    C     C_R   0.262157 0.501192 0.499403 0.827931
C4    C     C_R   0.737803 0.498015 0.500515 0.812100
Cu1   Cu    Cu3+1 0.500000 0.499990 0.596430 0.968511
Cu2   Cu    Cu3+1 0.500000 0.500010 0.403570 0.964156
H1    H     H_    0.260267 0.671112 0.097394 0.166530
H2    H     H_    0.716816 0.306781 0.881722 0.158881
C5    C     C_R   0.200897 0.700935 0.241563 -0.189866
C6    C     C_R   0.765114 0.291203 0.732364 -0.157226
H3    H     H_    0.225882 0.770055 0.234791 0.216294
H4    H     H_    0.720429 0.227151 0.727887 0.181448
C7    C     C_R   0.150472 0.668244 0.328074 0.327839
C8    C     C_R   0.825917 0.327538 0.651762 0.359058
C9    C     C_R   0.118624 0.577028 0.333715 0.007802
C10   C     C_R   0.881036 0.412820 0.660866 0.007788
C11   C     C_R   0.137421 0.521996 0.253507 -0.160185
C12   C     C_R   0.879830 0.456107 0.750494 -0.198959
H5    H     H_    0.112562 0.452496 0.256747 0.155611
H6    H     H_    0.922617 0.520610 0.758568 0.153189
C13   C     C_R   0.188499 0.555803 0.168942 -0.126433
C14   C     C_R   0.822128 0.417497 0.829820 -0.131109
H7    H     H_    0.203097 0.512736 0.107765 0.145093
H8    H     H_    0.821545 0.451564 0.898448 0.145878
C15   C     C_R   0.220496 0.645045 0.163076 -0.156629
C16   C     C_R   0.763200 0.335915 0.820378 -0.149735
C17   C     C_R   0.932488 0.534925 0.422805 -0.188211
C18   C     C_R   0.067477 0.463521 0.576893 -0.181500
C19   C     C_R   0.871631 0.496870 0.501379 -0.050844
C20   C     C_R   0.128312 0.501274 0.498129 -0.038642
C21   C     C_R   0.939623 0.459400 0.578730 0.069690
C22   C     C_R   0.060256 0.537301 0.419977 0.067569
C23   C     C_R   0.416837 0.097671 0.575878 0.366215
C24   C     C_R   0.427223 0.902709 0.418410 0.382161
C25   C     C_R   0.430807 0.189838 0.576612 -0.239015
C26   C     C_R   0.441598 0.810686 0.418444 -0.197258
C27   C     C_R   0.490054 0.233471 0.500502 -0.072955
C28   C     C_R   0.491807 0.766846 0.498917 -0.087299
C29   C     C_R   0.538065 0.184924 0.423737 -0.091092
C30   C     C_R   0.531444 0.815462 0.579149 -0.154052
H9    H     H_    0.584654 0.217819 0.364679 0.162301
H10   H     H_    0.571330 0.782635 0.641624 0.157811
C31   C     C_R   0.530038 0.093179 0.424257 -0.102849
C32   C     C_R   0.522357 0.907221 0.578533 -0.109787
H11   H     H_    0.572206 0.056424 0.366131 0.163844
H12   H     H_    0.557280 0.944039 0.639976 0.167519
C33   C     C_R   0.469156 0.048841 0.499320 0.013542
C34   C     C_R   0.469613 0.951489 0.499166 0.015130
C35   C     C_R   0.541467 0.574123 0.107825 -0.274394
C36   C     C_R   0.414564 0.448880 0.891577 -0.273464
H13   H     H_    0.572543 0.633753 0.071962 0.142454
H14   H     H_    0.345304 0.409163 0.927226 0.136299
C37   C     C_R   0.542166 0.572193 0.209310 0.095094
C38   C     C_R   0.417145 0.449087 0.790111 0.102230
H15   H     H_    0.576304 0.629205 0.248256 0.130340
H16   H     H_    0.351931 0.408704 0.750301 0.120828
N1    N     N_R   0.500000 0.500020 0.258690 -0.173383
N2    N     N_R   0.500000 0.499980 0.741310 -0.175613
C39   C     C_R   0.457201 0.428155 0.209098 0.096111
C40   C     C_R   0.581874 0.551607 0.790762 0.111174
H17   H     H_    0.422625 0.371179 0.247850 0.133946
H18   H     H_    0.647422 0.591725 0.751472 0.122326
C41   C     C_R   0.457267 0.426667 0.107615 -0.288356
C42   C     C_R   0.583470 0.552538 0.892258 -0.281100
H19   H     H_    0.425542 0.367310 0.071602 0.144731
H20   H     H_    0.652489 0.592450 0.928465 0.132332
C43   C     C_R   0.499221 0.500508 0.054490 0.116194
C44   C     C_R   0.499028 0.500685 0.945139 0.121861
N3    N     N_R   0.131013 0.728477 0.407210 0.106348
O9    O     O_R   0.128015 0.700397 0.496049 -0.361013
O10   O     O_R   0.124688 0.813406 0.391272 -0.296866
N4    N     N_R   0.832790 0.276279 0.563954 0.104350
O11   O     O_R   0.910276 0.296529 0.496090 -0.354280
O12   O     O_R   0.771610 0.202369 0.556200 -0.366717
H21   H     H_    0.880351 0.563751 0.363399 0.153354
H22   H     H_    0.119740 0.434368 0.636042 0.147055
N5    N     N_R   0.346901 0.055476 0.651128 0.118578
O13   O     O_R   0.276634 0.987698 0.631921 -0.285650
O14   O     O_R   0.341342 0.091115 0.736410 -0.350202
N6    N     N_R   0.367310 0.945009 0.337541 0.123470
O15   O     O_R   0.291176 0.010352 0.350941 -0.292554
O16   O     O_R   0.378647 0.912514 0.251173 -0.373796
H23   H     H_    0.390971 0.227992 0.634700 0.178754
H24   H     H_    0.409189 0.772895 0.356960 0.171494

loop_
_geom_bond_atom_site_label_1
_geom_bond_atom_site_label_2
_geom_bond_distance
_ccdc_geom_bond_type
C36   C38   1.406105 A    
N2    C40   1.362436 A    
C33   C34   1.469300 S    
C42   C44   1.411130 A    
C36   C44   1.411182 A    
C29   H9    1.083427 S    
N5    O13   1.301444 A    
O5    C3    1.291903 A    
C5    C15   1.395902 A    
O1    C1    1.290933 A    
C17   C19   1.398427 A    
C10   C12   1.404988 A    
C35   H13   1.081239 S    
C36   H14   1.081303 S    
C9    C22   1.481075 S    
C13   C15   1.392634 A    
C4    C19   1.450593 S    
C10   C21   1.482133 S    
C27   C29   1.397410 A    
O4    Cu1   1.950563 S    
C37   H15   1.080462 S    
C23   C33   1.415825 A    
C38   H16   1.081804 S    
C24   C34   1.414616 A    
C26   C28   1.401406 A    
N1    C39   1.364569 A    
C6    H4    1.082384 S    
C26   H24   1.082668 S    
C40   C42   1.406125 A    
H2    C16   1.082460 S    
C30   H10   1.083372 S    
C20   C22   1.413256 A    
Cu1   Cu2   2.671717 S    
C23   C25   1.399084 A    
O2    C2    1.290995 A    
C24   C26   1.397780 A    
C32   H12   1.083558 S    
Cu1   N2    2.007043 S    
N3    O10   1.301777 A    
C7    C9    1.420888 A    
C11   C13   1.394423 A    
C28   C30   1.398338 A    
C41   C43   1.410262 A    
C14   C16   1.392368 A    
N5    O14   1.301481 A    
C38   N2    1.362886 A    
C42   H20   1.081227 S    
C41   H19   1.081221 S    
O7    Cu2   1.967403 S    
C17   H21   1.085040 S    
C29   C31   1.387258 A    
C31   C33   1.403309 A    
N3    O9    1.301003 A    
C1    C27   1.457367 S    
C5    C7    1.408482 A    
C31   H11   1.083529 S    
C3    C20   1.450670 S    
C43   C44   1.514843 S    
C25   C27   1.400846 A    
O5    Cu1   1.964312 S    
O6    C4    1.290905 A    
C6    C16   1.395709 A    
O3    Cu2   1.950563 S    
O8    C4    1.286875 A    
N4    O12   1.301241 A    
N6    O16   1.301232 A    
C12   C14   1.394129 A    
O7    C3    1.285834 A    
C8    C10   1.423821 A    
O4    C2    1.292739 A    
O1    Cu1   1.951722 S    
O6    Cu2   1.964312 S    
C2    C28   1.460086 S    
C6    C8    1.409984 A    
C18   C21   1.387496 A    
N4    O11   1.300747 A    
O3    C1    1.291378 A    
O8    Cu1   1.967400 S    
C35   C37   1.406060 A    
C11   H5    1.083495 S    
C23   N5    1.439875 S    
C12   H6    1.083496 S    
C35   C43   1.410191 A    
C18   C20   1.398517 A    
C17   C22   1.386091 A    
C8    N4    1.446066 S    
C13   H7    1.082363 S    
C14   H8    1.082314 S    
C18   H22   1.085050 S    
C5    H3    1.081377 S    
Cu2   N1    2.007041 S    
C39   C41   1.406115 A    
C9    C11   1.405563 A    
O2    Cu2   1.951722 S    
C25   H23   1.083680 S    
C37   N1    1.364549 A    
C30   C32   1.388493 A    
C24   N6    1.438752 S    
N6    O15   1.301388 A    
C19   C21   1.413009 A    
C7    N3    1.443231 S    
C40   H18   1.081734 S    
C39   H17   1.080434 S    
H1    C15   1.082451 S    
C32   C34   1.403213 A    
