data_mof_unit_57443.cif
_audit_creation_date              2012-12-11T15:31:50-0500
_audit_creation_method            fapswitch 2.2
_symmetry_space_group_name_H-M    P1
_symmetry_Int_Tables_number       1
_space_group_crystal_system       triclinic
_cell_length_a                    13.577082
_cell_length_b                    13.586271
_cell_length_c                    27.69684
_cell_angle_alpha                 90.476808
_cell_angle_beta                  90.046817
_cell_angle_gamma                 120.009352
_cell_volume                      4423.89097238

loop_
_atom_site_label
_atom_site_type_symbol
_atom_type_description
_atom_site_fract_x
_atom_site_fract_y
_atom_site_fract_z
_atom_type_partial_charge
C1    C     C_R   0.619470 0.898440 0.431208 0.545338
C2    C     C_R   0.636308 0.235100 0.208679 -0.104967
C3    C     C_R   0.625818 0.217551 0.258556 -0.101929
C4    C     C_R   0.665660 0.310372 0.290634 0.038874
C5    C     C_R   0.686556 0.345680 0.190662 0.035417
C6    C     C_1   0.693554 0.365467 0.139459 -0.047992
C7    C     C_1   0.650020 0.290142 0.341750 -0.055259
C8    C     C_1   0.701258 0.390932 0.097466 -0.002516
C9    C     C_1   0.233887 0.863190 0.382470 -0.007003
C10   C     C_R   0.080571 0.823885 0.271022 -0.070307
C11   C     C_R   0.060812 0.815851 0.221091 0.255907
C12   C     C_R   0.599709 0.218365 0.431259 0.545428
C13   C     C_R   0.254437 0.857319 0.207121 -0.151623
C14   C     C_R   0.273780 0.865510 0.256985 -0.117725
C15   C     C_R   0.186697 0.847941 0.289065 -0.001449
C16   C     C_R   0.147949 0.831958 0.188895 0.052443
C17   C     C_1   0.125806 0.815669 0.137604 0.004939
C18   C     C_1   0.207746 0.854757 0.340350 -0.051146
C19   C     C_1   0.097837 0.795393 0.095698 0.019977
C20   C     C_1   0.634410 0.866587 0.383400 -0.011084
C21   C     C_R   0.638576 0.732906 0.270929 -0.088428
C22   C     C_R   0.643368 0.720056 0.220921 -0.056935
C23   C     C_R   0.279837 0.878924 0.430452 0.545341
C24   C     C_R   0.666602 0.907108 0.208933 -0.102670
C25   C     C_R   0.661573 0.919832 0.258877 -0.103950
C26   C     C_R   0.648397 0.833218 0.290040 0.039079
C27   C     C_R   0.657896 0.807328 0.189807 0.059168
C28   C     C_1   0.673029 0.797545 0.138846 -0.023167
C29   C     C_1   0.642267 0.847858 0.341336 -0.055560
C30   C     C_1   0.691895 0.787370 0.097086 0.010232
C31   C     C_R   0.639208 0.277362 0.615640 0.024187
C32   C     C_R   0.720721 0.262998 0.640940 -0.125817
C33   C     C_R   0.732515 0.280707 0.690265 -0.123412
C34   C     C_R   0.620041 0.901134 0.569197 0.539957
C35   C     C_R   0.666149 0.317164 0.714748 0.037298
C36   C     C_R   0.593282 0.343040 0.688730 -0.121250
C37   C     C_R   0.579081 0.322255 0.639328 -0.130236
C38   C     C_R   0.574084 0.297835 0.794385 -0.119693
C39   C     C_R   0.583114 0.320930 0.843618 -0.133614
C40   C     C_R   0.785654 0.388052 0.839980 -0.125509
C41   C     C_R   0.777161 0.367860 0.790795 -0.123229
C42   C     C_R   0.672181 0.326678 0.767371 0.038101
C43   C     C_R   0.690036 0.371220 0.866115 0.024103
C44   C     C_R   0.224705 0.863876 0.615160 0.021233
C45   C     C_R   0.601562 0.222725 0.568556 0.541486
C46   C     C_R   0.243042 0.958741 0.642791 -0.129097
C47   C     C_R   0.217549 0.947236 0.691629 -0.124707
C48   C     C_R   0.171394 0.840414 0.713297 0.035311
C49   C     C_R   0.144595 0.744144 0.684830 -0.122873
C50   C     C_R   0.171732 0.755890 0.636063 -0.132842
C51   C     C_R   0.176047 0.755395 0.791988 -0.120716
C52   C     C_R   0.148222 0.736978 0.840648 -0.129264
C53   C     C_R   0.084278 0.874741 0.838033 -0.127135
C54   C     C_R   0.110374 0.891741 0.789338 -0.123705
C55   C     C_R   0.153220 0.829698 0.765630 0.036777
C56   C     C_R   0.279864 0.881618 0.568259 0.538970
C57   C     C_R   0.098593 0.793781 0.863545 0.023594
C58   C     C_R   0.632671 0.867034 0.617781 0.038378
C59   C     C_R   0.532556 0.808224 0.645059 -0.137506
C60   C     C_R   0.537630 0.791713 0.693858 -0.133110
C61   C     C_R   0.642770 0.831913 0.716443 0.019219
C62   C     C_R   0.743189 0.884591 0.689294 -0.096470
C63   C     C_R   0.739533 0.903193 0.639842 -0.009095
C64   C     C_R   0.727692 0.909274 0.796586 -0.129913
C65   C     C_R   0.741052 0.893024 0.844859 -0.138690
C66   C     C_R   0.584824 0.696980 0.838817 -0.008821
C67   C     C_1   0.631109 0.264200 0.383656 -0.010554
C68   C     C_R   0.573036 0.714983 0.790093 -0.096068
C69   C     C_R   0.647477 0.818794 0.768534 0.021063
C70   C     C_R   0.675418 0.785462 0.865891 0.034161
C71   C     C_R   0.049393 0.761282 0.048205 0.549966
C72   C     C_R   0.714250 0.435897 0.049752 0.550500
C73   C     C_R   0.723521 0.770716 0.049571 0.552722
C74   C     C_R   0.043960 0.755906 0.910497 0.539678
C75   C     C_R   0.707893 0.428263 0.912636 0.540386
C76   C     C_R   0.716715 0.765316 0.911894 0.540338
C77   C     C_R   0.716719 0.420992 0.272622 -0.105107
C78   C     C_R   0.727068 0.438520 0.222751 -0.102166
Cr1   Cr    Cr6+3 0.417720 0.831920 0.499820 1.022653
Cr2   Cr    Cr6+3 0.668190 0.085770 0.500360 1.019554
Cr3   Cr    Cr6+3 0.414060 0.082260 0.499840 1.023763
Cr4   Cr    Cr6+3 0.908000 0.821090 0.979770 1.032595
Cr5   Cr    Cr6+3 0.912420 0.571130 0.979880 1.026022
Cr6   Cr    Cr6+3 0.657970 0.566940 0.980940 1.016171
H1    H     H_    0.747248 0.493316 0.296990 0.118873
H2    H     H_    0.637805 0.642970 0.206569 0.129762
H3    H     H_    0.678879 0.975566 0.185367 0.106987
H4    H     H_    0.668749 0.997578 0.273250 0.107889
H5    H     H_    0.768478 0.228419 0.623578 0.133807
H6    H     H_    0.491391 0.261800 0.777176 0.101773
H7    H     H_    0.508125 0.306080 0.863360 0.121356
H8    H     H_    0.789016 0.259705 0.709425 0.100681
H9    H     H_    0.854221 0.391188 0.770856 0.099493
H10   H     H_    0.869340 0.426655 0.856472 0.133639
H11   H     H_    0.544452 0.375470 0.706785 0.102583
H12   H     H_    0.765446 0.524380 0.209165 0.164572
H13   H     H_    0.516632 0.334959 0.620307 0.124574
H14   H     H_    0.284748 0.043273 0.627639 0.133293
H15   H     H_    0.212487 0.709271 0.774670 0.099682
H16   H     H_    0.160747 0.674757 0.859707 0.123616
H17   H     H_    0.239348 0.022821 0.712833 0.100242
H18   H     H_    0.091623 0.949197 0.769794 0.098342
H19   H     H_    0.045582 0.919456 0.854714 0.131398
H20   H     H_    0.105569 0.660297 0.700554 0.103316
H21   H     H_    0.156249 0.681517 0.615304 0.125166
H22   H     H_    0.449462 0.780435 0.629383 0.143537
H23   H     H_    0.604154 0.162679 0.184285 0.103994
H24   H     H_    0.782770 0.991538 0.780722 0.106026
H25   H     H_    0.808232 0.963508 0.864892 0.130861
H26   H     H_    0.459342 0.751270 0.714299 0.107259
H27   H     H_    0.509355 0.645831 0.768203 0.101497
H28   H     H_    0.824360 0.912369 0.706911 0.105531
H29   H     H_    0.585368 0.131531 0.272117 0.100841
H30   H     H_    0.013091 0.810608 0.295636 0.140577
H31   H     H_    0.322017 0.869298 0.182840 0.112289
H32   H     H_    0.356430 0.884541 0.270557 0.120329
H33   H     H_    0.627912 0.665179 0.294583 0.110207
O1    O     O_R   0.302900 0.805360 0.446400 -0.504526
O2    O     O_R   0.657980 0.180990 0.549630 -0.506887
O3    O     O_R   0.503420 0.197810 0.553190 -0.521349
O4    O     O_R   0.320350 0.978840 0.548910 -0.503781
O5    O     O_3   0.499990 0.999990 0.500010 -0.246079
O6    O     O_R   0.819150 0.845650 0.033320 -0.494861
O7    O     O_R   0.006060 0.815720 0.028680 -0.484392
O8    O     O_R   0.028100 0.664460 0.032550 -0.507817
O9    O     O_R   0.811290 0.477490 0.029660 -0.490259
O10   O     O_R   0.638120 0.455970 0.034270 -0.504875
O11   O     O_R   0.667540 0.672320 0.030160 -0.496664
O12   O     O_R   0.522090 0.841370 0.450730 -0.493073
O13   O     O_R   0.814460 0.840990 0.926980 -0.526645
O14   O     O_R   0.001710 0.811400 0.930110 -0.506838
O15   O     O_R   0.023410 0.659800 0.926210 -0.522882
O16   O     O_R   0.806940 0.473170 0.931090 -0.505645
O17   O     O_R   0.633420 0.451310 0.927930 -0.530757
O18   O     O_R   0.663190 0.668000 0.931580 -0.506705
O19   O     O_3   0.826130 0.653050 0.980200 -0.243469
O20   O     O_R   0.693280 0.995650 0.447220 -0.504675
O21   O     O_R   0.657260 0.178740 0.451050 -0.493502
O22   O     O_R   0.502640 0.195380 0.446850 -0.504278
O23   O     O_R   0.319630 0.976590 0.450330 -0.492792
O24   O     O_R   0.303680 0.807790 0.552740 -0.523931
O25   O     O_R   0.522820 0.843620 0.549310 -0.507706
O26   O     O_R   0.694060 0.998080 0.553560 -0.520767
C79   C     C_3   0.503460 0.581877 0.859288 -0.378476
H34   H     H_    0.431434 0.530442 0.834207 0.097673
H35   H     H_    0.548173 0.533588 0.865430 0.176740
H36   H     H_    0.466483 0.591790 0.893468 0.142246
C80   C     C_3   0.849070 0.960878 0.611903 -0.389122
H37   H     H_    0.921485 0.968114 0.633470 0.115570
H38   H     H_    0.841213 0.910954 0.578723 0.141047
H39   H     H_    0.869617 0.048077 0.602048 0.153719
Cl1   Cl    Cl    0.925535 0.783884 0.199971 -0.664259

loop_
_geom_bond_atom_site_label_1
_geom_bond_atom_site_label_2
_ccdc_geom_bond_type
Cr6   O11   S    
C48   C55   S    
C66   C68   A    
C21   C26   A    
Cr6   O18   S    
C47   H17   S    
C74   O15   A    
Cr3   O23   S    
C41   C42   A    
C63   C80   S    
C15   C18   S    
C19   C71   S    
C35   C36   A    
C80   H39   S    
C23   O1    A    
C37   H13   S    
Cr1   O24   S    
C75   O17   A    
Cr2   O5    S    
C53   C54   A    
Cr3   O3    S    
Cr6   O17   S    
C36   C37   A    
C80   H38   S    
C38   C42   A    
C1    O12   A    
C10   C15   A    
C79   H36   S    
C5    C6    S    
Cr2   O21   S    
Cr1   O25   S    
C66   C79   S    
C44   C50   A    
C65   C70   A    
Cr1   O12   S    
Cr1   O1    S    
C2    H23   S    
Cr4   O7    S    
C35   C42   S    
C21   H33   S    
C17   C19   T    
C54   C55   A    
C76   O13   A    
C40   C43   A    
C41   H9    S    
C31   C32   A    
C78   H12   S    
C68   C69   A    
C73   O6    A    
C50   H21   S    
C24   C27   A    
Cr4   O13   S    
C10   H30   S    
C45   O2    A    
Cr6   O10   S    
C46   H14   S    
Cr2   O2    S    
C77   H1    S    
C59   C60   A    
C13   C14   A    
C43   C75   S    
Cr5   O8    S    
C4    C7    S    
C39   H7    S    
C12   C67   S    
C76   O18   A    
C44   C46   A    
C64   H24   S    
C20   C29   T    
C51   H15   S    
C38   C39   A    
Cr1   O5    S    
C74   O14   A    
C34   O26   A    
C8    C72   S    
C59   H22   S    
C72   O10   A    
C51   C52   A    
C23   O23   A    
C80   H37   S    
C79   H35   S    
C3    H29   S    
C33   H8    S    
C30   C73   S    
C53   C57   A    
C16   C17   S    
C6    C8    T    
C58   C59   A    
C77   C78   A    
C52   H16   S    
C25   H4    S    
C31   C37   A    
C32   C33   A    
Cr3   O4    S    
C60   C61   A    
C68   H27   S    
C57   C74   S    
C62   C63   A    
C11   Cl1   S    
C34   O25   A    
C11   C16   A    
C44   C56   S    
C47   C48   A    
C48   C49   A    
Cr2   O26   S    
C12   O22   A    
C64   C69   A    
C24   C25   A    
C65   H25   S    
Cr5   O19   S    
C13   H31   S    
C56   O24   A    
C45   O3    A    
C40   C41   A    
C22   C27   A    
C32   H5    S    
C70   C76   S    
C12   O21   A    
C71   O7    A    
C2    C5    A    
Cr5   O9    S    
C3    C4    A    
Cr4   O6    S    
C1    O20   A    
C52   C57   A    
C61   C69   S    
C58   C63   A    
Cr3   O22   S    
C46   C47   A    
Cr6   O19   S    
C1    C20   S    
C54   H18   S    
C9    C23   S    
C40   H10   S    
C79   H34   S    
C39   C43   A    
C75   O16   A    
C73   O11   A    
C38   H6    S    
Cr3   O5    S    
C49   H20   S    
C56   O4    A    
C28   C30   T    
C2    C3    A    
C25   C26   A    
C4    C77   A    
Cr4   O14   S    
C64   C65   A    
C36   H11   S    
C66   C70   A    
C53   H19   S    
C14   H32   S    
C33   C35   A    
C51   C55   A    
C22   H2    S    
Cr4   O19   S    
C61   C62   A    
C24   H3    S    
Cr5   O16   S    
C60   H26   S    
C10   C11   A    
C7    C67   T    
C9    C18   T    
Cr5   O15   S    
C62   H28   S    
C26   C29   S    
C49   C50   A    
C31   C45   S    
C13   C16   A    
C72   O9    A    
C27   C28   S    
C34   C58   S    
C14   C15   A    
C71   O8    A    
C5    C78   A    
C21   C22   A    
Cr2   O20   S    
