data_mof_unit_22778.cif
_audit_creation_date              2012-10-26T18:34:22-0400
_audit_creation_method            fapswitch 2.2
_symmetry_space_group_name_H-M    P1
_symmetry_Int_Tables_number       1
_space_group_crystal_system       triclinic
_cell_length_a                    10.822898
_cell_length_b                    9.697292
_cell_length_c                    9.068282
_cell_angle_alpha                 89.740992
_cell_angle_beta                  100.312427
_cell_angle_gamma                 90.21045
_cell_volume                      936.353861417

loop_
_atom_site_label
_atom_site_type_symbol
_atom_type_description
_atom_site_fract_x
_atom_site_fract_y
_atom_site_fract_z
_atom_type_partial_charge
C1    C     C_R   0.262750 0.499881 0.501958 0.572364
C2    C     C_R   0.060021 0.622204 0.470329 -0.097522
C3    C     C_R   0.871344 0.500003 0.498321 0.006404
C4    C     C_R   0.128656 0.499997 0.501679 0.006405
C5    C     C_R   0.413069 0.075577 0.395950 0.288728
C6    C     C_R   0.586931 0.924423 0.604050 0.288728
C7    C     C_R   0.586346 0.075444 0.604956 0.283115
C8    C     C_R   0.413654 0.924555 0.395044 0.283115
C9    C     C_R   0.737250 0.500119 0.498042 0.572364
C10   C     C_R   0.501758 0.500201 0.221381 0.584996
C11   C     C_R   0.498242 0.499799 0.778619 0.584997
C12   C     C_1   0.500657 0.500266 0.065767 0.014777
C13   C     C_1   0.499343 0.499734 0.934233 0.014779
C14   C     C_R   0.068176 0.377940 0.531852 -0.100506
C15   C     C_R   0.931824 0.622060 0.468149 -0.100505
C16   C     C_R   0.939978 0.377796 0.529671 -0.097523
Cu1   Cu    Cu3+1 0.500000 0.640660 0.500000 1.162466
Cu2   Cu    Cu3+1 0.500000 0.359340 0.500000 1.162467
H1    H     H_    0.119856 0.282969 0.558341 0.188125
H2    H     H_    0.880144 0.717031 0.441659 0.188125
H3    H     H_    0.895091 0.282382 0.553723 0.199149
H4    H     H_    0.104909 0.717618 0.446277 0.199150
H5    H     H_    0.196847 0.351946 0.174052 0.350337
H6    H     H_    0.803151 0.648053 0.825943 0.350342
H7    H     H_    0.768751 0.352988 0.863630 0.348824
H8    H     H_    0.231257 0.647011 0.136367 0.348824
N1    N     N_R   0.500000 0.852070 0.500000 -0.321148
N2    N     N_R   0.500000 0.147930 0.500000 -0.321148
O1    O     O_R   0.319640 0.618740 0.499990 -0.464232
O2    O     O_2   0.167169 0.131371 0.323171 -0.270504
O3    O     O_3   0.280543 0.334457 0.235915 -0.497469
O4    O     O_2   0.832831 0.868630 0.676831 -0.270503
O5    O     O_2   0.721297 0.891832 0.888197 -0.181611
O6    O     O_3   0.719457 0.665542 0.764085 -0.497476
O7    O     O_2   0.635269 0.136888 0.897944 -0.233092
O8    O     O_2   0.820506 0.105522 0.781852 -0.203343
O9    O     O_3   0.720679 0.333576 0.762156 -0.509398
O10   O     O_2   0.179493 0.894478 0.218150 -0.203341
O11   O     O_2   0.364729 0.863113 0.102055 -0.233094
O12   O     O_R   0.680360 0.381260 0.500010 -0.464232
O13   O     O_3   0.279321 0.666424 0.237844 -0.509397
O14   O     O_R   0.680360 0.618740 0.500010 -0.458106
O15   O     O_R   0.319640 0.381260 0.499990 -0.458105
O16   O     O_R   0.500000 0.618760 0.288390 -0.439650
O17   O     O_R   0.500000 0.381240 0.711610 -0.439648
O18   O     O_R   0.500000 0.618760 0.711610 -0.441394
O19   O     O_R   0.500000 0.381240 0.288390 -0.441394
O20   O     O_2   0.278701 0.108167 0.111803 -0.181613
S1    S     S_3+6 0.286628 0.164216 0.267205 0.114438
S2    S     S_3+6 0.713371 0.835784 0.732795 0.114438
S3    S     S_3+6 0.690487 0.164176 0.759716 0.104249
S4    S     S_3+6 0.309513 0.835824 0.240284 0.104249

loop_
_geom_bond_atom_site_label_1
_geom_bond_atom_site_label_2
_ccdc_geom_bond_type
C2    H4    S    
C5    C8    A    
C2    C4    A    
Cu2   N2    S    
C6    C7    A    
C3    C9    S    
C5    N2    A    
Cu1   O1    S    
C8    S4    S    
O13   S4    S    
C6    N1    A    
C1    C4    S    
C5    S1    S    
Cu2   O19   S    
C1    O1    A    
O11   S4    D    
Cu1   O16   S    
C7    S3    S    
Cu2   O15   S    
C6    S2    S    
C4    C14   A    
C2    C15   A    
C11   C13   S    
O4    S2    D    
C9    O14   A    
C16   H3    S    
O8    S3    D    
C10   C12   S    
O3    S1    S    
O20   S1    D    
O2    S1    D    
Cu1   Cu2   S    
O7    S3    D    
C15   H2    S    
O9    S3    S    
C14   C16   A    
C11   O17   A    
O6    S2    S    
C3    C16   A    
C10   O16   A    
Cu1   N1    S    
Cu2   O17   S    
O10   S4    D    
Cu1   O18   S    
C10   O19   A    
C8    N1    A    
Cu2   O12   S    
Cu1   O14   S    
C3    C15   A    
C12   C13   T    
O5    S2    D    
C14   H1    S    
C1    O15   A    
C9    O12   A    
H6    O6    S    
C7    N2    A    
H8    O13   S    
H7    O9    S    
C11   O18   A    
H5    O3    S    
