data_mof_unit_60838.cif
_audit_creation_date              2013-03-05T15:57:13-0500
_audit_creation_method            fapswitch 2.2
_symmetry_space_group_name_H-M    P1
_symmetry_Int_Tables_number       1
_space_group_crystal_system       triclinic
_cell_length_a                    25.90971
_cell_length_b                    27.724456
_cell_length_c                    27.722195
_cell_angle_alpha                 90.0
_cell_angle_beta                  90.000101
_cell_angle_gamma                 90.000092
_cell_volume                      19913.7568242

loop_
_atom_site_label
_atom_site_type_symbol
_atom_site_description
_atom_site_fract_x
_atom_site_fract_y
_atom_site_fract_z
_atom_type_partial_charge
Zn1   Zn    Zn3+2 0.206230 0.960180 0.289800 1.028620
Zn2   Zn    Zn3+2 0.206230 0.960180 0.710200 1.028978
Zn3   Zn    Zn3+2 0.793770 0.960180 0.289800 1.028676
Zn4   Zn    Zn3+2 0.793770 0.960180 0.710200 1.028394
Zn5   Zn    Zn3+2 0.706230 0.460180 0.289800 1.028780
Zn6   Zn    Zn3+2 0.706230 0.460180 0.710200 1.028582
Zn7   Zn    Zn3+2 0.293770 0.460180 0.289800 1.028487
Zn8   Zn    Zn3+2 0.293770 0.460180 0.710200 1.028704
Zn9   Zn    Zn3+2 0.706230 0.960180 0.789800 1.028574
Zn10  Zn    Zn3+2 0.706230 0.960180 0.210200 1.028494
Zn11  Zn    Zn3+2 0.293770 0.960180 0.789800 1.028724
Zn12  Zn    Zn3+2 0.293770 0.960180 0.210200 1.028797
Zn13  Zn    Zn3+2 0.206230 0.460180 0.789800 1.028608
Zn14  Zn    Zn3+2 0.206230 0.460180 0.210200 1.028620
Zn15  Zn    Zn3+2 0.793770 0.460180 0.789800 1.028694
Zn16  Zn    Zn3+2 0.793770 0.460180 0.210200 1.028615
Zn17  Zn    Zn3+2 0.293770 0.039800 0.289800 0.985754
Zn18  Zn    Zn3+2 0.293770 0.039800 0.710200 0.985767
Zn19  Zn    Zn3+2 0.706230 0.039800 0.289800 0.985729
Zn20  Zn    Zn3+2 0.706230 0.039800 0.710200 0.985685
Zn21  Zn    Zn3+2 0.793770 0.539800 0.289800 0.985777
Zn22  Zn    Zn3+2 0.793770 0.539800 0.710200 0.985735
Zn23  Zn    Zn3+2 0.206230 0.539800 0.289800 0.985749
Zn24  Zn    Zn3+2 0.206230 0.539800 0.710200 0.985751
Zn25  Zn    Zn3+2 0.793770 0.039800 0.789800 0.985677
Zn26  Zn    Zn3+2 0.793770 0.039800 0.210200 0.985730
Zn27  Zn    Zn3+2 0.206230 0.039800 0.789800 0.985765
Zn28  Zn    Zn3+2 0.206230 0.039800 0.210200 0.985752
Zn29  Zn    Zn3+2 0.293770 0.539800 0.789800 0.985748
Zn30  Zn    Zn3+2 0.293770 0.539800 0.210200 0.985744
Zn31  Zn    Zn3+2 0.706230 0.539800 0.789800 0.985734
Zn32  Zn    Zn3+2 0.706230 0.539800 0.210200 0.985773
O1    O     O_3   0.250000 0.999990 0.250000 -0.496323
O2    O     O_3   0.250000 0.999990 0.750000 -0.496374
O3    O     O_3   0.750000 0.999990 0.250000 -0.496278
O4    O     O_3   0.750000 0.999990 0.750000 -0.496238
O5    O     O_3   0.750000 0.499990 0.250000 -0.496322
O6    O     O_3   0.750000 0.499990 0.750000 -0.496297
O7    O     O_3   0.250000 0.499990 0.250000 -0.496270
O8    O     O_3   0.250000 0.499990 0.750000 -0.496307
O9    O     O_R   0.366860 0.972110 0.222130 -0.615550
O10   O     O_R   0.366860 0.972110 0.777870 -0.615576
O11   O     O_R   0.633140 0.972110 0.222130 -0.615742
O12   O     O_R   0.633140 0.972110 0.777870 -0.615704
O13   O     O_R   0.866860 0.472110 0.222130 -0.615671
O14   O     O_R   0.866860 0.472110 0.777870 -0.615608
O15   O     O_R   0.133140 0.472110 0.222130 -0.615684
O16   O     O_R   0.133140 0.472110 0.777870 -0.615658
O17   O     O_R   0.866860 0.972110 0.722130 -0.615790
O18   O     O_R   0.866860 0.972110 0.277870 -0.615632
O19   O     O_R   0.133140 0.972110 0.722130 -0.615399
O20   O     O_R   0.133140 0.972110 0.277870 -0.615659
O21   O     O_R   0.366860 0.472110 0.722130 -0.615603
O22   O     O_R   0.366860 0.472110 0.277870 -0.615753
O23   O     O_R   0.633140 0.472110 0.722130 -0.615683
O24   O     O_R   0.633140 0.472110 0.277870 -0.615559
O25   O     O_R   0.280630 0.027850 0.356260 -0.643479
O26   O     O_R   0.280630 0.027850 0.643740 -0.643486
O27   O     O_R   0.719370 0.027850 0.356260 -0.643464
O28   O     O_R   0.719370 0.027850 0.643740 -0.643459
O29   O     O_R   0.780630 0.527850 0.356260 -0.643476
O30   O     O_R   0.780630 0.527850 0.643740 -0.643469
O31   O     O_R   0.219370 0.527850 0.356260 -0.643463
O32   O     O_R   0.219370 0.527850 0.643740 -0.643464
O33   O     O_R   0.780630 0.027850 0.856260 -0.643453
O34   O     O_R   0.780630 0.027850 0.143740 -0.643465
O35   O     O_R   0.219370 0.027850 0.856260 -0.643482
O36   O     O_R   0.219370 0.027850 0.143740 -0.643476
O37   O     O_R   0.280630 0.527850 0.856260 -0.643468
O38   O     O_R   0.280630 0.527850 0.143740 -0.643461
O39   O     O_R   0.719370 0.527850 0.856260 -0.643470
O40   O     O_R   0.719370 0.527850 0.143740 -0.643476
O41   O     O_R   0.280630 0.106260 0.277850 -0.631273
O42   O     O_R   0.280630 0.106260 0.722150 -0.631269
O43   O     O_R   0.719370 0.106260 0.277850 -0.631274
O44   O     O_R   0.719370 0.106260 0.722150 -0.631281
O45   O     O_R   0.780630 0.606260 0.277850 -0.631267
O46   O     O_R   0.780630 0.606260 0.722150 -0.631274
O47   O     O_R   0.219370 0.606260 0.277850 -0.631270
O48   O     O_R   0.219370 0.606260 0.722150 -0.631265
O49   O     O_R   0.780630 0.106260 0.777850 -0.631285
O50   O     O_R   0.780630 0.106260 0.222150 -0.631277
O51   O     O_R   0.219370 0.106260 0.777850 -0.631269
O52   O     O_R   0.219370 0.106260 0.222150 -0.631273
O53   O     O_R   0.280630 0.606260 0.777850 -0.631273
O54   O     O_R   0.280630 0.606260 0.222150 -0.631272
O55   O     O_R   0.719370 0.606260 0.777850 -0.631274
O56   O     O_R   0.719370 0.606260 0.222150 -0.631270
O57   O     O_R   0.280650 0.893700 0.222130 -0.632257
O58   O     O_R   0.280650 0.893700 0.777870 -0.632287
O59   O     O_R   0.719350 0.893700 0.222130 -0.632311
O60   O     O_R   0.719350 0.893700 0.777870 -0.632283
O61   O     O_R   0.780650 0.393700 0.222130 -0.632306
O62   O     O_R   0.780650 0.393700 0.777870 -0.632268
O63   O     O_R   0.219350 0.393700 0.222130 -0.632291
O64   O     O_R   0.219350 0.393700 0.777870 -0.632289
O65   O     O_R   0.780650 0.893700 0.722130 -0.632302
O66   O     O_R   0.780650 0.893700 0.277870 -0.632269
O67   O     O_R   0.219350 0.893700 0.722130 -0.632214
O68   O     O_R   0.219350 0.893700 0.277870 -0.632293
O69   O     O_R   0.280650 0.393700 0.722130 -0.632272
O70   O     O_R   0.280650 0.393700 0.277870 -0.632311
O71   O     O_R   0.719350 0.393700 0.722130 -0.632296
O72   O     O_R   0.719350 0.393700 0.277870 -0.632263
O73   O     O_R   0.219370 0.972130 0.356260 -0.600742
O74   O     O_R   0.219370 0.972130 0.643740 -0.600709
O75   O     O_R   0.780630 0.972130 0.356260 -0.600745
O76   O     O_R   0.780630 0.972130 0.643740 -0.600764
O77   O     O_R   0.719370 0.472130 0.356260 -0.600735
O78   O     O_R   0.719370 0.472130 0.643740 -0.600751
O79   O     O_R   0.280630 0.472130 0.356260 -0.600763
O80   O     O_R   0.280630 0.472130 0.643740 -0.600743
O81   O     O_R   0.719370 0.972130 0.856260 -0.600754
O82   O     O_R   0.719370 0.972130 0.143740 -0.600762
O83   O     O_R   0.280630 0.972130 0.856260 -0.600736
O84   O     O_R   0.280630 0.972130 0.143740 -0.600728
O85   O     O_R   0.219370 0.472130 0.856260 -0.600749
O86   O     O_R   0.219370 0.472130 0.143740 -0.600752
O87   O     O_R   0.780630 0.472130 0.856260 -0.600739
O88   O     O_R   0.780630 0.472130 0.143740 -0.600751
O89   O     O_R   0.366850 0.027840 0.277850 -0.651618
O90   O     O_R   0.366850 0.027840 0.722150 -0.651609
O91   O     O_R   0.633150 0.027840 0.277850 -0.651523
O92   O     O_R   0.633150 0.027840 0.722150 -0.651527
O93   O     O_R   0.866850 0.527840 0.277850 -0.651578
O94   O     O_R   0.866850 0.527840 0.722150 -0.651580
O95   O     O_R   0.133150 0.527840 0.277850 -0.651561
O96   O     O_R   0.133150 0.527840 0.722150 -0.651558
O97   O     O_R   0.866850 0.027840 0.777850 -0.651472
O98   O     O_R   0.866850 0.027840 0.222150 -0.651573
O99   O     O_R   0.133150 0.027840 0.777850 -0.651673
O100  O     O_R   0.133150 0.027840 0.222150 -0.651569
O101  O     O_R   0.366850 0.527840 0.777850 -0.651587
O102  O     O_R   0.366850 0.527840 0.222150 -0.651522
O103  O     O_R   0.633150 0.527840 0.777850 -0.651551
O104  O     O_R   0.633150 0.527840 0.222150 -0.651621
C1    C     C_R   0.391533 0.000555 0.249262 0.802859
C2    C     C_R   0.391533 0.000554 0.750737 0.802769
C3    C     C_R   0.608467 0.000550 0.249269 0.802389
C4    C     C_R   0.608467 0.000551 0.750732 0.802464
C5    C     C_R   0.891532 0.500554 0.249265 0.802674
C6    C     C_R   0.891533 0.500553 0.750735 0.802660
C7    C     C_R   0.108467 0.500553 0.249265 0.802642
C8    C     C_R   0.108467 0.500552 0.750734 0.802540
C9    C     C_R   0.891532 0.000547 0.749273 0.802085
C10   C     C_R   0.891533 0.000553 0.250735 0.802654
C11   C     C_R   0.108467 0.000556 0.749259 0.803047
C12   C     C_R   0.108467 0.000553 0.250734 0.802582
C13   C     C_R   0.391533 0.500554 0.749264 0.802713
C14   C     C_R   0.391532 0.500551 0.250731 0.802396
C15   C     C_R   0.608467 0.500552 0.749267 0.802520
C16   C     C_R   0.608467 0.500555 0.250738 0.802874
C17   C     C_R   0.249985 0.000000 0.379234 0.827693
C18   C     C_R   0.249985 0.000000 0.620766 0.827721
C19   C     C_R   0.750015 0.000000 0.379234 0.827708
C20   C     C_R   0.750015 0.000000 0.620766 0.827628
C21   C     C_R   0.749985 0.500000 0.379234 0.827732
C22   C     C_R   0.749985 0.500000 0.620766 0.827689
C23   C     C_R   0.250015 0.500000 0.379234 0.827683
C24   C     C_R   0.250015 0.500000 0.620766 0.827710
C25   C     C_R   0.749985 0.000000 0.879234 0.827697
C26   C     C_R   0.749985 1.000000 0.120766 0.827679
C27   C     C_R   0.250015 0.000000 0.879234 0.827706
C28   C     C_R   0.250015 1.000000 0.120766 0.827728
C29   C     C_R   0.249985 0.500000 0.879234 0.827688
C30   C     C_R   0.249985 0.500000 0.120766 0.827724
C31   C     C_R   0.750015 0.500000 0.879234 0.827702
C32   C     C_R   0.750015 0.500000 0.120766 0.827716
C33   C     C_R   0.250000 0.129234 0.250000 0.830598
C34   C     C_R   0.250000 0.129234 0.750000 0.830612
C35   C     C_R   0.750000 0.129234 0.250000 0.830565
C36   C     C_R   0.750000 0.129234 0.750000 0.830517
C37   C     C_R   0.750000 0.629234 0.250000 0.830616
C38   C     C_R   0.750000 0.629234 0.750000 0.830576
C39   C     C_R   0.250000 0.629234 0.250000 0.830577
C40   C     C_R   0.250000 0.629234 0.750000 0.830583
C41   C     C_R   0.250000 0.870736 0.250000 0.802728
C42   C     C_R   0.250000 0.870736 0.750000 0.802687
C43   C     C_R   0.750000 0.870736 0.250000 0.802763
C44   C     C_R   0.750000 0.870736 0.750000 0.802794
C45   C     C_R   0.750000 0.370736 0.250000 0.802724
C46   C     C_R   0.750000 0.370736 0.750000 0.802744
C47   C     C_R   0.250000 0.370736 0.250000 0.802767
C48   C     C_R   0.250000 0.370736 0.750000 0.802737
C49   C     C_1   0.250000 0.818954 0.250000 -0.128047
C50   C     C_1   0.250000 0.818954 0.750000 -0.127993
C51   C     C_1   0.750000 0.818954 0.250000 -0.128098
C52   C     C_1   0.750000 0.818954 0.750000 -0.128132
C53   C     C_1   0.750000 0.318954 0.250000 -0.128062
C54   C     C_1   0.750000 0.318954 0.750000 -0.128084
C55   C     C_1   0.250000 0.318954 0.250000 -0.128115
C56   C     C_1   0.250000 0.318954 0.750000 -0.128075
C57   C     C_1   0.250000 0.775458 0.250000 0.011267
C58   C     C_1   0.250000 0.775458 0.750000 0.011285
C59   C     C_1   0.750000 0.775458 0.250000 0.011248
C60   C     C_1   0.750000 0.775458 0.750000 0.011235
C61   C     C_1   0.750000 0.275458 0.250000 0.011250
C62   C     C_1   0.750000 0.275458 0.750000 0.011241
C63   C     C_1   0.250000 0.275458 0.250000 0.011234
C64   C     C_1   0.250000 0.275458 0.750000 0.011248
C65   C     C_1   0.250000 0.724512 0.250000 0.011961
C66   C     C_1   0.250000 0.724512 0.750000 0.011967
C67   C     C_1   0.750000 0.724512 0.250000 0.011952
C68   C     C_1   0.750000 0.724512 0.750000 0.011939
C69   C     C_1   0.750000 0.224512 0.250000 0.011944
C70   C     C_1   0.750000 0.224512 0.750000 0.011931
C71   C     C_1   0.250000 0.224512 0.250000 0.011940
C72   C     C_1   0.250000 0.224512 0.750000 0.011945
C73   C     C_1   0.250000 0.681015 0.250000 -0.133763
C74   C     C_1   0.250000 0.681015 0.750000 -0.133762
C75   C     C_1   0.750000 0.681015 0.250000 -0.133773
C76   C     C_1   0.750000 0.681015 0.750000 -0.133783
C77   C     C_1   0.750000 0.181015 0.250000 -0.133779
C78   C     C_1   0.750000 0.181015 0.750000 -0.133790
C79   C     C_1   0.250000 0.181015 0.250000 -0.133784
C80   C     C_1   0.250000 0.181015 0.750000 -0.133783
C81   C     C_3   0.029975 0.972438 0.296924 0.097731
C82   C     C_3   0.029952 0.972229 0.703200 0.098096
C83   C     C_3   0.970027 0.972421 0.296914 0.097781
C84   C     C_3   0.970006 0.972488 0.703048 0.097422
C85   C     C_3   0.529964 0.472379 0.296889 0.097919
C86   C     C_3   0.529978 0.472451 0.703069 0.097685
C87   C     C_3   0.470016 0.472508 0.296964 0.097584
C88   C     C_3   0.470030 0.472399 0.703099 0.097823
C89   C     C_3   0.529981 0.972465 0.796939 0.097643
C90   C     C_3   0.529984 0.972493 0.203044 0.097590
C91   C     C_3   0.470033 0.972378 0.796888 0.097868
C92   C     C_3   0.470036 0.972366 0.203118 0.097917
C93   C     C_3   0.029976 0.472427 0.796917 0.097715
C94   C     C_3   0.029975 0.472475 0.203054 0.097735
C95   C     C_3   0.970029 0.472395 0.796898 0.097796
C96   C     C_3   0.970026 0.472465 0.203060 0.097763
H1    H     H_    0.041897 0.934080 0.291755 0.097255
H2    H     H_    0.041654 0.933855 0.708689 0.096713
H3    H     H_    0.958132 0.934059 0.291712 0.097193
H4    H     H_    0.957889 0.934160 0.708041 0.097628
H5    H     H_    0.541769 0.434006 0.291592 0.097006
H6    H     H_    0.541928 0.434096 0.708208 0.097309
H7    H     H_    0.458005 0.434158 0.291913 0.097460
H8    H     H_    0.458163 0.434035 0.708337 0.097126
H9    H     H_    0.541958 0.934113 0.791830 0.097367
H10   H     H_    0.541993 0.934144 0.208109 0.097446
H11   H     H_    0.458193 0.934011 0.791613 0.097063
H12   H     H_    0.458228 0.933995 0.208424 0.097001
H13   H     H_    0.041910 0.434072 0.791747 0.097259
H14   H     H_    0.041891 0.434111 0.208198 0.097270
H15   H     H_    0.958145 0.434034 0.791667 0.097148
H16   H     H_    0.958126 0.434099 0.208223 0.097234
H17   H     H_    0.044668 0.074892 0.282390 0.219114
H18   H     H_    0.044429 0.074685 0.717146 0.219932
H19   H     H_    0.955362 0.074873 0.282434 0.219217
H20   H     H_    0.955126 0.074975 0.717810 0.218389
H21   H     H_    0.544543 0.574819 0.282556 0.219555
H22   H     H_    0.544698 0.574908 0.717648 0.219013
H23   H     H_    0.455237 0.574963 0.282227 0.218792
H24   H     H_    0.455392 0.574850 0.717515 0.219323
H25   H     H_    0.544727 0.074925 0.782314 0.218910
H26   H     H_    0.544761 0.074952 0.217749 0.218794
H27   H     H_    0.455421 0.074828 0.782536 0.219425
H28   H     H_    0.455456 0.074811 0.217426 0.219545
H29   H     H_    0.044681 0.574887 0.782400 0.219071
H30   H     H_    0.044662 0.574916 0.217663 0.219148
H31   H     H_    0.955374 0.574851 0.782481 0.219258
H32   H     H_    0.955355 0.574905 0.217637 0.219208
C97   C     C_3   0.029791 0.053447 0.251694 -0.358072
C98   C     C_3   0.029774 0.053444 0.748073 -0.358454
C99   C     C_3   0.970211 0.053447 0.251713 -0.358115
C100  C     C_3   0.970194 0.053441 0.748365 -0.357805
C101  C     C_3   0.529782 0.553449 0.251762 -0.358248
C102  C     C_3   0.529793 0.553446 0.748321 -0.358025
C103  C     C_3   0.470202 0.553446 0.251617 -0.357923
C104  C     C_3   0.470213 0.553447 0.748262 -0.358159
C105  C     C_3   0.529795 0.053446 0.751664 -0.357987
C106  C     C_3   0.529798 0.053446 0.248368 -0.357933
C107  C     C_3   0.470216 0.053447 0.751761 -0.358205
C108  C     C_3   0.470218 0.053448 0.248225 -0.358253
C109  C     C_3   0.029792 0.553446 0.751706 -0.358052
C110  C     C_3   0.029791 0.553449 0.248346 -0.358060
C111  C     C_3   0.970212 0.553446 0.751742 -0.358138
C112  C     C_3   0.970211 0.553449 0.248335 -0.358083
C113  C     C_3   0.029890 0.975617 0.205979 -0.470954
C114  C     C_3   0.029898 0.975798 0.794117 -0.470596
C115  C     C_3   0.970109 0.975632 0.205972 -0.470911
C116  C     C_3   0.970117 0.975579 0.794009 -0.471227
C117  C     C_3   0.529894 0.475667 0.205956 -0.470782
C118  C     C_3   0.529889 0.475606 0.794016 -0.470996
C119  C     C_3   0.470112 0.475558 0.206010 -0.471096
C120  C     C_3   0.470108 0.475650 0.794038 -0.470866
C121  C     C_3   0.529888 0.975596 0.705989 -0.471034
C122  C     C_3   0.529887 0.975571 0.293998 -0.471089
C123  C     C_3   0.470107 0.975668 0.705953 -0.470826
C124  C     C_3   0.470106 0.975678 0.294051 -0.470776
C125  C     C_3   0.029890 0.475628 0.705972 -0.470967
C126  C     C_3   0.029891 0.475584 0.294001 -0.470960
C127  C     C_3   0.970108 0.475655 0.705959 -0.470888
C128  C     C_3   0.970109 0.475593 0.294005 -0.470939
C129  C     C_3   0.050908 0.000922 0.251994 0.029779
C130  C     C_3   0.050907 0.000916 0.747995 0.030073
C131  C     C_3   0.949092 0.000922 0.251995 0.029808
C132  C     C_3   0.949090 0.000918 0.748017 0.029545
C133  C     C_3   0.550908 0.500922 0.252000 0.029920
C134  C     C_3   0.550909 0.500921 0.748008 0.029742
C135  C     C_3   0.449091 0.500923 0.251989 0.029659
C136  C     C_3   0.449092 0.500921 0.748003 0.029844
C137  C     C_3   0.550909 0.000921 0.751991 0.029701
C138  C     C_3   0.550909 0.000922 0.248011 0.029664
C139  C     C_3   0.449092 0.000921 0.751998 0.029884
C140  C     C_3   0.449092 0.000921 0.248000 0.029919
C141  C     C_3   0.050909 0.500920 0.751993 0.029765
C142  C     C_3   0.050908 0.500924 0.248005 0.029771
C143  C     C_3   0.949092 0.500920 0.751996 0.029828
C144  C     C_3   0.949092 0.500924 0.248005 0.029798
H33   H     H_    0.044130 0.994400 0.173075 0.206490
H34   H     H_    0.043983 0.994836 0.826932 0.206739
H35   H     H_    0.955887 0.994440 0.173075 0.206515
H36   H     H_    0.955743 0.994229 0.826937 0.206362
H37   H     H_    0.544053 0.494550 0.173078 0.206587
H38   H     H_    0.544149 0.494366 0.826926 0.206467
H39   H     H_    0.455811 0.494249 0.173076 0.206401
H40   H     H_    0.455906 0.494488 0.826925 0.206543
H41   H     H_    0.544167 0.994332 0.673073 0.206447
H42   H     H_    0.544188 0.994273 0.326926 0.206412
H43   H     H_    0.455924 0.994535 0.673075 0.206571
H44   H     H_    0.455946 0.994569 0.326924 0.206594
H45   H     H_    0.044138 0.494413 0.673072 0.206492
H46   H     H_    0.044127 0.494345 0.326919 0.206470
H47   H     H_    0.955895 0.494487 0.673072 0.206538
H48   H     H_    0.955884 0.494369 0.326919 0.206483
H49   H     H_    0.044227 0.937813 0.204180 0.170181
H50   H     H_    0.044395 0.938060 0.796178 0.170017
H51   H     H_    0.955752 0.937836 0.204147 0.170165
H52   H     H_    0.955921 0.937724 0.795684 0.170262
H53   H     H_    0.544315 0.437895 0.204058 0.170114
H54   H     H_    0.544205 0.437795 0.795793 0.170192
H55   H     H_    0.455841 0.437729 0.204303 0.170237
H56   H     H_    0.455731 0.437862 0.795892 0.170143
H57   H     H_    0.544184 0.937776 0.704235 0.170209
H58   H     H_    0.544160 0.937743 0.295716 0.170232
H59   H     H_    0.455710 0.937888 0.704069 0.170126
H60   H     H_    0.455686 0.937907 0.295957 0.170111
H61   H     H_    0.044218 0.437821 0.704169 0.170172
H62   H     H_    0.044231 0.437781 0.295774 0.170191
H63   H     H_    0.955743 0.437863 0.704108 0.170141
H64   H     H_    0.955757 0.437793 0.295793 0.170182
H65   H     H_    0.043451 0.072389 0.218662 0.185713
H66   H     H_    0.043627 0.072615 0.780901 0.185474
H67   H     H_    0.956527 0.072411 0.218703 0.185685
H68   H     H_    0.956703 0.072277 0.781519 0.185903
H69   H     H_    0.543543 0.572476 0.218816 0.185598
H70   H     H_    0.543429 0.572369 0.781373 0.185743
H71   H     H_    0.456620 0.572308 0.218510 0.185811
H72   H     H_    0.456505 0.572437 0.781249 0.185659
H73   H     H_    0.543407 0.072349 0.718592 0.185771
H74   H     H_    0.543381 0.072318 0.281467 0.185806
H75   H     H_    0.456483 0.072462 0.718798 0.185628
H76   H     H_    0.456458 0.072483 0.281166 0.185596
H77   H     H_    0.043442 0.572391 0.718672 0.185728
H78   H     H_    0.043455 0.572368 0.281389 0.185720
H79   H     H_    0.956518 0.572433 0.718748 0.185673
H80   H     H_    0.956533 0.572381 0.281365 0.185701
C145  C     C_1   0.250044 0.000013 0.068978 -0.111828
C146  C     C_1   0.250044 0.000013 0.931022 -0.111825
C147  C     C_1   0.749956 0.000013 0.068978 -0.111866
C148  C     C_1   0.749956 0.000013 0.931022 -0.111872
C149  C     C_1   0.750044 0.500013 0.068978 -0.111839
C150  C     C_1   0.750044 0.500013 0.931022 -0.111847
C151  C     C_1   0.249956 0.500013 0.068978 -0.111848
C152  C     C_1   0.249956 0.500013 0.931022 -0.111850
C153  C     C_1   0.750044 0.000013 0.568978 -0.111889
C154  C     C_1   0.750044 0.000013 0.431022 -0.111858
C155  C     C_1   0.249956 0.000013 0.568978 -0.111820
C156  C     C_1   0.249956 0.000013 0.431022 -0.111838
C157  C     C_1   0.250044 0.500013 0.568978 -0.111843
C158  C     C_1   0.250044 0.500013 0.431022 -0.111858
C159  C     C_1   0.749956 0.500013 0.568978 -0.111851
C160  C     C_1   0.749956 0.500013 0.431022 -0.111833
C161  C     C_1   0.250062 0.000017 0.025476 0.027514
C162  C     C_1   0.250062 0.000017 0.974523 0.027511
C163  C     C_1   0.749937 0.000017 0.025476 0.027476
C164  C     C_1   0.749937 0.000017 0.974523 0.027480
C165  C     C_1   0.750062 0.500017 0.025476 0.027498
C166  C     C_1   0.750062 0.500017 0.974523 0.027497
C167  C     C_1   0.249937 0.500017 0.025476 0.027497
C168  C     C_1   0.249937 0.500017 0.974523 0.027493
C169  C     C_1   0.750062 0.000017 0.525476 0.027465
C170  C     C_1   0.750062 0.000017 0.474523 0.027480
C171  C     C_1   0.249938 0.000017 0.525476 0.027515
C172  C     C_1   0.249937 0.000017 0.474523 0.027507
C173  C     C_1   0.250063 0.500017 0.525476 0.027495
C174  C     C_1   0.250063 0.500017 0.474523 0.027488
C175  C     C_1   0.749937 0.500017 0.525476 0.027495
C176  C     C_1   0.749937 0.500017 0.474523 0.027504
N1    N     N_R   0.052485 0.988143 0.343170 0.254589
O105  O     O_R   0.074448 0.956472 0.371079 -0.322287
O106  O     O_R   0.051932 0.033059 0.356655 -0.344149
N2    N     N_R   0.052671 0.987442 0.656878 0.255437
O107  O     O_R   0.074061 0.955348 0.629061 -0.322381
O108  O     O_R   0.053063 0.032339 0.643329 -0.344475
N3    N     N_R   0.947491 0.988074 0.343166 0.254686
O109  O     O_R   0.925597 0.956355 0.371069 -0.322333
O110  O     O_R   0.947930 0.032990 0.356653 -0.344196
N4    N     N_R   0.947692 0.988498 0.656825 0.253958
O111  O     O_R   0.925267 0.957122 0.628903 -0.322210
O112  O     O_R   0.949052 0.033383 0.643286 -0.343847
N5    N     N_R   0.552587 0.487874 0.343158 0.254994
O113  O     O_R   0.574260 0.456010 0.371047 -0.322367
O114  O     O_R   0.552525 0.532795 0.356633 -0.344329
N6    N     N_R   0.552460 0.488206 0.656828 0.254495
O115  O     O_R   0.574490 0.456580 0.628913 -0.322295
O116  O     O_R   0.551791 0.533119 0.643340 -0.344094
N7    N     N_R   0.447593 0.488397 0.343183 0.254262
O117  O     O_R   0.425409 0.456888 0.371124 -0.322279
O118  O     O_R   0.448522 0.533312 0.356653 -0.344014
N8    N     N_R   0.447467 0.487994 0.656838 0.254787
O119  O     O_R   0.425641 0.456225 0.628945 -0.322344
O120  O     O_R   0.447789 0.532910 0.643347 -0.344218
N9    N     N_R   0.552436 0.988268 0.843174 0.254400
O121  O     O_R   0.574533 0.956688 0.871094 -0.322297
O122  O     O_R   0.551650 0.033179 0.856665 -0.344057
N10   N     N_R   0.552407 0.988366 0.156820 0.254279
O123  O     O_R   0.574585 0.956846 0.128887 -0.322283
O124  O     O_R   0.551487 0.033277 0.143338 -0.344016
N11   N     N_R   0.447443 0.987916 0.843157 0.254892
O125  O     O_R   0.425690 0.956096 0.871041 -0.322334
O126  O     O_R   0.447647 0.032831 0.856652 -0.344263
N12   N     N_R   0.447415 0.987851 0.156845 0.254997
O127  O     O_R   0.425740 0.955982 0.128963 -0.322351
O128  O     O_R   0.447484 0.032769 0.143357 -0.344320
N13   N     N_R   0.052474 0.488136 0.843166 0.254564
O129  O     O_R   0.074462 0.456473 0.871068 -0.322308
O130  O     O_R   0.051873 0.533046 0.856668 -0.344108
N14   N     N_R   0.052491 0.488208 0.156821 0.254576
O131  O     O_R   0.074447 0.456552 0.128890 -0.322329
O132  O     O_R   0.051957 0.533135 0.143371 -0.344163
N15   N     N_R   0.947482 0.488007 0.843160 0.254741
O133  O     O_R   0.925618 0.456257 0.871049 -0.322328
O134  O     O_R   0.947871 0.532918 0.856664 -0.344184
N16   N     N_R   0.947494 0.488167 0.156823 0.254637
O135  O     O_R   0.925580 0.456482 0.128895 -0.322330
O136  O     O_R   0.947957 0.533095 0.143374 -0.344191

loop_
_geom_bond_atom_site_label_1
_geom_bond_atom_site_label_2
_geom_bond_distance
_ccdc_geom_bond_type
Zn29  O101  1.950633 S    
Zn4   O4    1.929160 S    
Zn5   O5    1.929157 S    
O98   C10   1.268568 A    
C154  C170  1.205965 T    
C103  C135  1.555571 S    
C155  C171  1.205965 T    
O88   C32   1.277449 A    
C153  C169  1.205965 T    
C125  H61   1.113090 S    
N10   O123  1.301333 A    
N2    O108  1.300243 A    
C83   N3    1.474226 S    
C98   C130  1.555849 S    
O68   C41   1.277860 A    
C121  C137  1.554326 S    
Zn22  O6    1.929157 S    
O15   C7    1.263481 A    
C57   C65   1.412447 S    
O16   C8    1.263473 A    
C94   C142  1.571353 S    
O60   C44   1.277860 A    
O61   C45   1.277862 A    
Zn18  O26   1.902674 S    
Zn7   O70   1.903163 S    
C60   C68   1.412447 S    
Zn11  O83   1.902676 S    
O97   C9    1.268529 A    
Zn26  O98   1.950632 S    
C109  C111  1.543698 S    
C83   C131  1.571372 S    
C109  H77   1.113367 S    
Zn2   O2    1.929157 S    
N13   O130  1.300244 A    
O72   C45   1.277860 A    
C64   C72   1.412447 S    
N8    O120  1.300243 A    
C36   C78   1.435611 S    
O104  C16   1.268585 A    
O92   C4    1.268550 A    
Zn29  O37   1.902675 S    
O36   C28   1.277592 A    
Zn31  O55   1.902815 S    
Zn7   O79   1.902676 S    
Zn22  O46   1.902816 S    
N11   O126  1.300242 A    
Zn10  O82   1.902676 S    
C97   H65   1.113366 S    
C123  H59   1.113091 S    
C159  C175  1.205965 T    
C85   H5    1.116668 S    
C160  C176  1.205965 T    
C96   N16   1.474222 S    
C92   H12   1.116668 S    
C11   C130  1.491813 S    
C5    C144  1.491787 S    
C68   C76   1.205922 T    
C14   C135  1.491767 S    
C145  C161  1.205965 T    
C15   C134  1.491775 S    
O95   C7    1.268556 A    
C94   C96   1.553251 S    
C114  H34   1.113277 S    
C82   H2    1.116674 S    
C1    C140  1.491797 S    
Zn18  O90   1.950632 S    
N14   O131  1.301333 A    
N6    O116  1.300245 A    
Zn10  O59   1.903164 S    
C95   N15   1.474228 S    
C101  C103  1.543693 S    
C173  C174  1.412526 S    
C102  C104  1.543696 S    
C167  C168  1.412526 S    
C116  H52   1.113087 S    
C7    C142  1.491784 S    
O87   C31   1.277449 A    
Zn14  O63   1.903164 S    
C106  C138  1.555571 S    
C53   C61   1.205922 T    
N3    O110  1.300244 A    
O55   C38   1.277342 A    
O50   C35   1.277340 A    
O80   C24   1.277448 A    
C93   N13   1.474223 S    
C95   H15   1.116663 S    
Zn16  O13   1.950651 S    
C119  H55   1.113086 S    
O51   C34   1.277342 A    
C90   C138  1.571333 S    
N1    O105  1.301335 A    
H18   C98   1.107261 S    
C110  H78   1.113365 S    
Zn4   O17   1.950651 S    
C81   C129  1.571363 S    
C117  C119  1.548930 S    
Zn19  O3    1.929159 S    
N5    O113  1.301347 A    
C109  C141  1.555639 S    
Zn3   O66   1.903163 S    
O63   C47   1.277859 A    
C86   H6    1.116657 S    
Zn24  O32   1.902675 S    
C56   C64   1.205922 T    
O83   C27   1.277449 A    
Zn25  O4    1.929154 S    
O81   C25   1.277446 A    
C42   C50   1.435611 S    
C115  C131  1.554341 S    
Zn26  O3    1.929157 S    
C34   C80   1.435611 S    
C98   H66   1.113345 S    
C108  C140  1.555757 S    
O33   C25   1.277590 A    
Zn7   O7    1.929156 S    
C87   H7    1.116656 S    
O10   C2    1.263460 A    
Zn8   O8    1.929160 S    
C96   H16   1.116664 S    
Zn12  O1    1.929160 S    
C89   H9    1.116657 S    
O75   C19   1.277449 A    
Zn1   O73   1.902675 S    
N15   O134  1.300244 A    
C118  C120  1.548927 S    
C59   C67   1.412447 S    
C125  H45   1.113269 S    
H26   C106  1.107379 S    
O31   C23   1.277590 A    
O77   C21   1.277448 A    
C104  C136  1.555700 S    
Zn15  O62   1.903163 S    
C121  H41   1.113266 S    
O22   C14   1.263491 A    
N13   O129  1.301335 A    
O89   C1    1.268588 A    
Zn19  O91   1.950631 S    
Zn28  O36   1.902675 S    
Zn16  O88   1.902675 S    
H31   C111  1.107327 S    
C90   H10   1.116655 S    
C20   C153  1.435677 S    
N3    O109  1.301338 A    
Zn32  O56   1.902815 S    
O91   C3    1.268542 A    
H17   C97   1.107341 S    
O44   C36   1.277340 A    
C111  H79   1.113365 S    
O93   C5    1.268560 A    
Zn30  O102  1.950632 S    
C126  C142  1.554334 S    
Zn9   O4    1.929157 S    
Zn6   O6    1.929157 S    
C99   C131  1.555677 S    
Zn10  O3    1.929157 S    
O19   C11   1.263430 A    
O26   C18   1.277589 A    
Zn29  O53   1.902816 S    
C24   C157  1.435677 S    
C93   H13   1.116657 S    
Zn31  O39   1.902674 S    
O20   C12   1.263474 A    
O39   C31   1.277590 A    
Zn4   O65   1.903163 S    
O21   C13   1.263465 A    
O40   C32   1.277590 A    
C67   C75   1.205922 T    
C148  C164  1.205965 T    
Zn9   O60   1.903164 S    
C65   C73   1.205922 T    
N9    O122  1.300244 A    
Zn3   O18   1.950652 S    
Zn18  O2    1.929157 S    
C33   C79   1.435611 S    
N7    O118  1.300251 A    
C122  C138  1.554318 S    
Zn13  O64   1.903164 S    
Zn26  O34   1.902674 S    
C83   H3    1.116662 S    
O67   C42   1.277859 A    
H21   C101  1.107298 S    
Zn17  O41   1.902816 S    
O65   C44   1.277862 A    
Zn19  O27   1.902674 S    
C94   N14   1.474219 S    
Zn2   O74   1.902676 S    
C117  C133  1.554359 S    
Zn28  O100  1.950632 S    
C118  H54   1.113088 S    
Zn6   O78   1.902676 S    
C120  H56   1.113089 S    
C97   C99   1.543695 S    
C82   C84   1.553206 S    
Zn3   O3    1.929156 S    
O30   C22   1.277589 A    
C6    C143  1.491786 S    
C117  H53   1.113093 S    
Zn32  O5    1.929159 S    
O86   C30   1.277447 A    
C86   C88   1.553234 S    
C88   H8    1.116664 S    
C25   C148  1.435677 S    
C98   C100  1.543711 S    
C149  C165  1.205965 T    
Zn2   O67   1.903164 S    
C87   N7    1.474207 S    
C151  C167  1.205965 T    
C21   C160  1.435677 S    
O24   C16   1.263461 A    
C86   C134  1.571354 S    
N4    O111  1.301337 A    
C17   C156  1.435677 S    
O64   C48   1.277860 A    
Zn21  O29   1.902675 S    
C50   C58   1.205922 T    
C94   H14   1.116661 S    
Zn8   O21   1.950651 S    
C23   C158  1.435677 S    
C111  C143  1.555684 S    
C113  C115  1.548929 S    
C46   C54   1.435611 S    
C114  C116  1.548926 S    
Zn9   O81   1.902675 S    
C128  H64   1.113089 S    
N10   O124  1.300251 A    
C100  C132  1.555468 S    
C115  H35   1.113270 S    
H32   C112  1.107331 S    
C101  C133  1.555760 S    
C70   C78   1.205922 T    
C124  H60   1.113092 S    
Zn29  O8    1.929154 S    
Zn23  O31   1.902674 S    
C114  H50   1.113094 S    
Zn15  O87   1.902676 S    
Zn30  O7    1.929157 S    
C106  C108  1.543695 S    
C39   C73   1.435611 S    
O37   C29   1.277590 A    
Zn20  O92   1.950632 S    
O38   C30   1.277589 A    
Zn27  O35   1.902674 S    
C86   N6    1.474219 S    
H28   C108  1.107298 S    
O35   C27   1.277590 A    
H29   C109  1.107346 S    
O12   C4    1.263480 A    
Zn24  O96   1.950632 S    
C127  H47   1.113269 S    
C106  H74   1.113372 S    
Zn15  O14   1.950652 S    
C28   C145  1.435677 S    
C121  H57   1.113088 S    
Zn12  O84   1.902675 S    
Zn25  O49   1.902816 S    
O58   C42   1.277861 A    
C91   C139  1.571391 S    
Zn28  O52   1.902815 S    
Zn5   O24   1.950652 S    
C61   C69   1.412447 S    
Zn6   O23   1.950653 S    
C84   C132  1.571317 S    
C157  C173  1.205965 T    
C163  C164  1.412526 S    
O14   C6    1.263464 A    
C3    C138  1.491767 S    
Zn4   O76   1.902675 S    
C126  H62   1.113088 S    
O70   C47   1.277861 A    
Zn8   O80   1.902675 S    
O82   C26   1.277447 A    
C43   C51   1.435611 S    
N12   O127  1.301350 A    
C92   N12   1.474234 S    
C58   C66   1.412447 S    
O53   C40   1.277338 A    
C41   C49   1.435614 S    
O34   C26   1.277589 A    
Zn11  O10   1.950652 S    
O54   C39   1.277340 A    
O79   C23   1.277449 A    
N16   O135  1.301335 A    
Zn13  O8    1.929157 S    
C44   C52   1.435614 S    
Zn14  O7    1.929157 S    
C45   C53   1.435614 S    
H20   C100  1.107423 S    
O85   C29   1.277446 A    
C110  C142  1.555660 S    
C48   C56   1.435614 S    
H27   C107  1.107309 S    
C127  H63   1.113091 S    
Zn20  O28   1.902675 S    
Zn8   O69   1.903163 S    
O9    C1    1.263458 A    
O78   C22   1.277447 A    
Zn16  O5    1.929160 S    
C125  C141  1.554333 S    
O18   C10   1.263471 A    
N14   O132  1.300244 A    
C12   C129  1.491781 S    
C69   C77   1.205922 T    
Zn26  O50   1.902816 S    
O13   C5    1.263477 A    
C82   C130  1.571458 S    
C37   C75   1.435611 S    
Zn17  O1    1.929154 S    
C115  H51   1.113089 S    
C26   C147  1.435677 S    
Zn1   O68   1.903164 S    
Zn30  O38   1.902674 S    
C84   H4    1.116645 S    
C89   N9    1.474218 S    
C117  H37   1.113272 S    
C22   C159  1.435677 S    
C119  H39   1.113266 S    
N2    O107  1.301359 A    
C120  H40   1.113273 S    
Zn31  O103  1.950631 S    
C113  C129  1.554335 S    
Zn32  O104  1.950632 S    
O101  C13   1.268575 A    
C107  H75   1.113357 S    
C18   C155  1.435677 S    
C29   C152  1.435677 S    
O25   C17   1.277590 A    
O94   C6    1.268575 A    
C47   C55   1.435611 S    
C90   N10   1.474209 S    
O28   C20   1.277590 A    
Zn12  O9    1.950651 S    
O29   C21   1.277589 A    
N1    O106  1.300244 A    
C89   C137  1.571342 S    
O76   C20   1.277449 A    
O32   C24   1.277592 A    
C71   C79   1.205922 T    
O17   C9    1.263493 A    
Zn6   O71   1.903164 S    
O90   C2    1.268581 A    
C95   C143  1.571380 S    
Zn17  O89   1.950633 S    
C96   C144  1.571360 S    
C123  C139  1.554353 S    
N8    O119  1.301344 A    
C81   H1    1.116658 S    
C92   C140  1.571405 S    
C93   C141  1.571363 S    
C54   C62   1.205922 T    
Zn23  O95   1.950631 S    
C169  C170  1.412526 S    
C87   C135  1.571332 S    
O45   C37   1.277338 A    
C88   C136  1.571383 S    
H25   C105  1.107364 S    
C118  C134  1.554328 S    
Zn13  O85   1.902675 S    
C124  H44   1.113274 S    
C112  C144  1.555674 S    
C97   C129  1.555652 S    
Zn31  O6    1.929159 S    
Zn27  O51   1.902815 S    
C93   C95   1.553228 S    
C91   H11   1.116668 S    
Zn5   O77   1.902675 S    
O103  C15   1.268556 A    
C116  C132  1.554300 S    
C112  H80   1.113365 S    
Zn1   O20   1.950652 S    
Zn2   O19   1.950653 S    
C35   C77   1.435611 S    
C99   H67   1.113364 S    
Zn21  O5    1.929154 S    
N6    O115  1.301332 A    
C125  C127  1.548927 S    
N7    O117  1.301335 A    
C121  C123  1.548928 S    
O62   C46   1.277861 A    
Zn7   O22   1.950652 S    
O66   C43   1.277861 A    
Zn17  O25   1.902675 S    
H30   C110  1.107338 S    
C126  H46   1.113266 S    
C32   C149  1.435677 S    
O71   C46   1.277859 A    
Zn27  O99   1.950631 S    
N4    O112  1.300258 A    
C147  C163  1.205965 T    
Zn25  O97   1.950633 S    
C122  H42   1.113264 S    
N9    O121  1.301333 A    
C9    C132  1.491748 S    
Zn1   O1    1.929157 S    
C175  C176  1.412526 S    
C102  C134  1.555628 S    
C27   C146  1.435677 S    
H23   C103  1.107377 S    
C10   C131  1.491784 S    
H24   C104  1.107321 S    
Zn16  O61   1.903163 S    
C38   C76   1.435611 S    
C105  H73   1.113370 S    
C55   C63   1.205922 T    
C91   N11   1.474233 S    
N5    O114  1.300245 A    
C103  H71   1.113375 S    
Zn22  O94   1.950632 S    
C84   N4    1.474200 S    
O102  C14   1.268538 A    
C19   C154  1.435677 S    
Zn20  O44   1.902815 S    
O49   C36   1.277338 A    
C85   C133  1.571402 S    
C89   C91   1.553230 S    
C30   C151  1.435677 S    
Zn24  O48   1.902815 S    
C128  H48   1.113269 S    
C128  C144  1.554335 S    
O59   C43   1.277859 A    
O11   C3    1.263487 A    
C105  C107  1.543698 S    
O57   C41   1.277862 A    
Zn30  O54   1.902816 S    
O74   C18   1.277447 A    
C113  H49   1.113088 S    
C158  C174  1.205965 T    
C4    C137  1.491773 S    
Zn5   O72   1.903164 S    
Zn18  O42   1.902816 S    
C119  C135  1.554317 S    
Zn21  O93   1.950633 S    
C120  C136  1.554347 S    
C146  C162  1.205965 T    
C113  H33   1.113267 S    
C66   C74   1.205922 T    
C16   C133  1.491798 S    
C81   N1    1.474224 S    
C116  H36   1.113263 S    
Zn27  O2    1.929159 S    
C127  C143  1.554346 S    
C104  H72   1.113359 S    
C152  C168  1.205965 T    
O100  C12   1.268562 A    
O47   C39   1.277342 A    
Zn12  O57   1.903163 S    
Zn25  O33   1.902675 S    
O48   C40   1.277340 A    
O52   C33   1.277340 A    
C105  C137  1.555602 S    
N11   O125  1.301333 A    
O27   C19   1.277590 A    
C8    C141  1.491778 S    
Zn20  O4    1.929159 S    
Zn3   O75   1.902676 S    
O73   C17   1.277446 A    
H22   C102  1.107353 S    
C31   C150  1.435677 S    
O56   C37   1.277340 A    
C101  H69   1.113355 S    
H19   C99   1.107329 S    
C82   N2    1.474250 S    
Zn15  O6    1.929156 S    
C107  C139  1.555726 S    
C62   C70   1.412447 S    
Zn22  O30   1.902674 S    
O96   C8    1.268561 A    
C108  H76   1.113357 S    
C123  H43   1.113271 S    
C13   C136  1.491789 S    
C63   C71   1.412447 S    
O99   C11   1.268623 A    
O69   C48   1.277862 A    
C161  C162  1.412526 S    
C150  C166  1.205965 T    
C2    C139  1.491794 S    
C90   C92   1.553235 S    
C118  H38   1.113269 S    
O43   C35   1.277342 A    
C110  C112  1.543690 S    
C114  C130  1.554386 S    
Zn14  O86   1.902676 S    
O23   C15   1.263478 A    
Zn9   O12   1.950652 S    
C51   C59   1.205922 T    
Zn10  O11   1.950653 S    
O84   C28   1.277448 A    
Zn11  O2    1.929156 S    
C49   C57   1.205922 T    
C124  C140  1.554358 S    
Zn28  O1    1.929159 S    
Zn13  O16   1.950652 S    
C88   N8    1.474228 S    
Zn14  O15   1.950653 S    
C100  H68   1.113382 S    
C81   C83   1.553235 S    
C85   N5    1.474234 S    
Zn19  O43   1.902815 S    
C85   C87   1.553241 S    
C126  C128  1.548932 S    
Zn11  O58   1.903163 S    
C165  C166  1.412526 S    
N12   O128  1.300243 A    
Zn23  O7    1.929159 S    
Zn24  O8    1.929159 S    
C40   C74   1.435611 S    
C122  C124  1.548930 S    
N16   O136  1.300245 A    
O42   C34   1.277340 A    
N15   O133  1.301343 A    
C52   C60   1.205922 T    
C72   C80   1.205922 T    
Zn21  O45   1.902816 S    
C156  C172  1.205965 T    
O46   C38   1.277340 A    
C122  H58   1.113087 S    
Zn23  O47   1.902815 S    
O41   C33   1.277338 A    
C102  H70   1.113369 S    
C171  C172  1.412526 S    
Zn32  O40   1.902675 S    
