data_mof_unit_26874.cif
_audit_creation_date              2012-12-10T17:57:49-0500
_audit_creation_method            fapswitch 2.2
_symmetry_space_group_name_H-M    P1
_symmetry_Int_Tables_number       1
_space_group_crystal_system       triclinic
_cell_length_a                    10.974254
_cell_length_b                    9.519416
_cell_length_c                    15.077799
_cell_angle_alpha                 90.170343
_cell_angle_beta                  90.131705
_cell_angle_gamma                 89.994769
_cell_volume                      1575.1437522

loop_
_atom_site_label
_atom_site_type_symbol
_atom_type_description
_atom_site_fract_x
_atom_site_fract_y
_atom_site_fract_z
_atom_type_partial_charge
C1    C     C_R   0.262148 0.500059 0.501974 0.820900
C2    C     C_R   0.737809 0.499694 0.503309 0.802370
C3    C     C_R   0.296972 0.605689 0.046228 -0.236297
C4    C     C_R   0.683969 0.356595 0.954175 -0.241124
C5    C     C_R   0.063970 0.371940 0.517573 -0.083534
C6    C     C_R   0.936602 0.626294 0.517154 -0.083441
C7    C     C_R   0.937601 0.370251 0.507932 -0.085968
C8    C     C_R   0.062038 0.627636 0.503801 -0.070044
C9    C     C_R   0.871840 0.498540 0.509588 -0.138499
C10   C     C_R   0.128151 0.499953 0.507195 -0.127319
C11   C     C_R   0.444631 0.074073 0.433287 0.028072
C12   C     C_R   0.554043 0.926002 0.567206 -0.002488
C13   C     C_R   0.554623 0.074650 0.567003 0.017550
C14   C     C_R   0.445178 0.925348 0.433063 0.013319
C15   C     C_R   0.499649 0.499791 0.329183 0.864924
C16   C     C_R   0.499941 0.500288 0.671006 0.878820
C17   C     C_R   0.592732 0.427339 0.813451 -0.132263
C18   C     C_R   0.396963 0.552972 0.187107 -0.127289
C19   C     C_R   0.501124 0.500304 0.767658 -0.206984
C20   C     C_R   0.497959 0.499090 0.232852 -0.213823
C21   C     C_R   0.408733 0.572200 0.813291 0.356898
C22   C     C_R   0.597908 0.441988 0.187516 0.364398
C23   C     C_R   0.398941 0.558271 0.906354 -0.040260
C24   C     C_R   0.593904 0.428258 0.094273 -0.033302
C25   C     C_R   0.495032 0.491050 0.953356 0.014399
C26   C     C_R   0.494984 0.489842 0.047224 0.008771
C27   C     C_R   0.591623 0.425500 0.906715 0.066149
C28   C     C_R   0.396153 0.550947 0.093818 0.065892
C29   C     C_R   0.296506 0.608297 0.954092 -0.043303
C30   C     C_R   0.685735 0.356279 0.046275 -0.034534
Cu1   Cu    Cu3+1 0.500000 0.640660 0.500000 0.972691
Cu2   Cu    Cu3+1 0.500000 0.359340 0.500000 0.996790
H1    H     H_    0.217955 0.646858 0.080625 0.158555
H2    H     H_    0.756087 0.301192 0.919676 0.160872
H3    H     H_    0.399562 0.129621 0.380051 0.127613
H4    H     H_    0.597327 0.870520 0.621176 0.132904
H5    H     H_    0.599136 0.130547 0.620501 0.141518
H6    H     H_    0.400750 0.869335 0.379531 0.144956
N1    N     N_R   0.500000 0.852070 0.500000 -0.178349
N2    N     N_R   0.500000 0.147930 0.500000 -0.170603
O1    O     O_R   0.319640 0.618740 0.499990 -0.575767
O2    O     O_R   0.680360 0.381260 0.500010 -0.563779
O3    O     O_R   0.680360 0.618740 0.500010 -0.586018
O4    O     O_R   0.319640 0.381260 0.499990 -0.586180
O5    O     O_R   0.499970 0.618800 0.370260 -0.602070
O6    O     O_R   0.500030 0.381200 0.629740 -0.595170
O7    O     O_R   0.500030 0.618800 0.629740 -0.585474
O8    O     O_R   0.499970 0.381200 0.370260 -0.564712
C31   C     C_1   0.690980 0.361070 0.764011 0.234519
N3    N     N_1   0.769185 0.308600 0.724585 -0.291305
C32   C     C_1   0.294542 0.609353 0.236814 0.234532
N4    N     N_1   0.213100 0.654181 0.276469 -0.309774
O9    O     O_3   0.326539 0.652067 0.765113 -0.573519
C33   C     C_3   0.363840 0.794355 0.768423 0.064099
H7    H     H_    0.461538 0.806946 0.750143 0.137621
H8    H     H_    0.350481 0.838871 0.835996 0.140377
C34   C     C_3   0.287624 0.879057 0.703374 -0.688555
H9    H     H_    0.316451 0.990856 0.705103 0.197857
H10   H     H_    0.300263 0.837630 0.635134 0.267211
H11   H     H_    0.189674 0.872309 0.721196 0.256165
O10   O     O_3   0.700581 0.402361 0.234964 -0.571033
C35   C     C_3   0.775193 0.522002 0.248268 0.045827
H12   H     H_    0.738388 0.587053 0.303379 0.154111
H13   H     H_    0.782376 0.588376 0.187569 0.141323
C36   C     C_3   0.903326 0.475392 0.273313 -0.728345
H14   H     H_    0.956334 0.566594 0.298467 0.215446
H15   H     H_    0.899459 0.393844 0.325499 0.256140
H16   H     H_    0.950595 0.431357 0.214493 0.248037
C37   C     C_1   0.185286 0.655236 0.911778 0.320067
N5    N     N_1   0.096020 0.692600 0.878285 -0.266234
C38   C     C_1   0.779711 0.272663 0.088004 0.338598
N6    N     N_1   0.854783 0.204860 0.120802 -0.267384
C39   C     C_1   0.124695 0.241628 0.541396 0.313635
N7    N     N_1   0.172929 0.138339 0.561329 -0.264308
C40   C     C_1   0.878412 0.756349 0.544124 0.306977
N8    N     N_1   0.833440 0.860056 0.566978 -0.271773
C41   C     C_1   0.879097 0.235482 0.492603 0.319927
N9    N     N_1   0.832717 0.128419 0.479157 -0.235415
C42   C     C_1   0.118793 0.761681 0.484051 0.316393
N10   N     N_1   0.162895 0.868683 0.467388 -0.270982

loop_
_geom_bond_atom_site_label_1
_geom_bond_atom_site_label_2
_ccdc_geom_bond_type
C39   N7    T    
C6    C9    A    
C30   C38   S    
C6    C40   S    
C41   N9    T    
Cu1   O3    S    
C23   C29   A    
C3    C28   A    
C19   C21   A    
C24   C26   A    
C11   C14   A    
C34   H10   S    
C3    H1    S    
C3    C29   A    
C13   N2    A    
C35   H13   S    
C14   N1    A    
C36   H15   S    
C8    C42   S    
C12   H4    S    
C13   H5    S    
C7    C41   S    
Cu2   N2    S    
Cu1   O7    S    
Cu2   O8    S    
C37   N5    T    
C15   O8    A    
C16   O7    A    
C18   C32   S    
C29   C37   S    
C15   C20   S    
C4    H2    S    
C11   N2    A    
C17   C27   A    
C18   C28   A    
C16   O6    A    
C5    C7    A    
C34   H11   S    
C6    C8    A    
C25   C26   A    
O9    C33   S    
C32   N4    T    
C40   N8    T    
C35   H12   S    
C14   H6    S    
C1    O4    A    
Cu1   Cu2   S    
C2    O3    A    
C36   H16   S    
Cu2   O4    S    
C1    O1    A    
C20   C22   A    
C31   N3    T    
C21   C23   A    
C22   C24   A    
C15   O5    A    
C17   C31   S    
C4    C27   A    
C7    C9    A    
C33   H7    S    
Cu1   O1    S    
C35   C36   S    
Cu2   O6    S    
C1    C10   S    
C33   H8    S    
C25   C27   A    
C26   C28   A    
C12   N1    A    
C11   H3    S    
C38   N6    T    
C22   O10   S    
C21   O9    S    
C34   H9    S    
C2    O2    A    
C16   C19   S    
C17   C19   A    
Cu1   N1    S    
C18   C20   A    
C23   C25   A    
C5    C39   S    
O10   C35   S    
C24   C30   A    
C42   N10   T    
C5    C10   A    
C12   C13   A    
C8    C10   A    
C36   H14   S    
Cu1   O5    S    
Cu2   O2    S    
C2    C9    S    
C4    C30   A    
C33   C34   S    
