data_mof_unit_20129.cif
_audit_creation_date              2012-12-10T17:03:54-0500
_audit_creation_method            fapswitch 2.2
_symmetry_space_group_name_H-M    P1
_symmetry_Int_Tables_number       1
_space_group_crystal_system       triclinic
_cell_length_a                    9.879729
_cell_length_b                    11.093466
_cell_length_c                    15.790384
_cell_angle_alpha                 95.026018
_cell_angle_beta                  79.622075
_cell_angle_gamma                 112.154978
_cell_volume                      1576.26659625

loop_
_atom_site_label
_atom_site_type_symbol
_atom_type_description
_atom_site_fract_x
_atom_site_fract_y
_atom_site_fract_z
_atom_type_partial_charge
C1    C     C_R   0.556023 0.745703 0.508740 0.792198
C2    C     C_R   0.444125 0.254514 0.491034 0.808203
C3    C     C_R   0.335132 0.387424 0.069831 -0.191833
C4    C     C_R   0.677908 0.582052 0.926571 -0.182071
C5    C     C_R   0.236134 0.335095 0.012267 0.598747
C6    C     C_R   0.774092 0.641210 0.984980 0.603317
C7    C     C_2   0.585650 0.885520 0.520970 -0.005599
C8    C     C_2   0.416545 0.115735 0.475821 -0.003117
C9    C     C_2   0.491685 0.931402 0.495026 -0.171931
C10   C     C_2   0.499636 0.066228 0.509836 -0.174381
C11   C     C_2   0.920862 0.487609 0.495021 -0.018491
C12   C     C_2   0.074741 0.505240 0.508898 -0.010877
C13   C     C_R   0.410063 0.479674 0.662245 0.864199
C14   C     C_R   0.589608 0.520393 0.338049 0.872915
C15   C     C_R   0.353256 0.447468 0.753712 -0.178643
C16   C     C_R   0.646195 0.551098 0.246946 -0.183868
C17   C     C_R   0.177122 0.314522 0.868391 -0.139101
C18   C     C_R   0.819681 0.685160 0.132304 -0.139022
C19   C     C_R   0.215102 0.347524 0.781513 0.036677
C20   C     C_R   0.774159 0.661387 0.220410 0.041156
C21   C     C_R   0.449643 0.509017 0.813028 0.532582
C22   C     C_R   0.559323 0.476141 0.186368 0.520167
C23   C     C_R   0.421207 0.461620 0.897183 -0.065810
C24   C     C_R   0.588557 0.517200 0.100568 -0.061607
C25   C     C_R   0.278250 0.369424 0.925865 -0.073849
C26   C     C_R   0.728210 0.614593 0.072466 -0.078747
C27   C     C_R   0.527906 0.505030 0.954457 -0.011663
C28   C     C_R   0.484096 0.467182 0.042248 -0.008643
Cu1   Cu    Cu3+1 0.362980 0.479380 0.485080 0.936023
Cu2   Cu    Cu3+1 0.637020 0.520620 0.514920 0.943745
H1    H     H_    0.069065 0.242020 0.890530 0.213502
H2    H     H_    0.922006 0.765299 0.111214 0.214611
H3    H     H_    0.289679 0.366046 0.136293 0.226610
H4    H     H_    0.724900 0.598049 0.859618 0.224355
H5    H     H_    0.576098 0.128957 0.550824 0.164414
H6    H     H_    0.404191 0.865258 0.462111 0.167440
H7    H     H_    0.122026 0.568682 0.560568 0.147331
H8    H     H_    0.869550 0.417588 0.447209 0.148894
N1    N     N_2   0.842890 0.551600 0.537350 -0.160467
N2    N     N_2   0.157110 0.448400 0.462650 -0.159536
O1    O     O_R   0.426810 0.668300 0.492040 -0.596773
O2    O     O_R   0.573190 0.331700 0.507960 -0.598997
O3    O     O_R   0.658240 0.703130 0.517240 -0.577983
O4    O     O_R   0.341760 0.296870 0.482760 -0.596801
O5    O     O_R   0.319390 0.472820 0.610170 -0.590909
O6    O     O_R   0.680610 0.527180 0.389830 -0.584642
O7    O     O_R   0.550820 0.507640 0.635370 -0.549761
O8    O     O_R   0.449180 0.492360 0.364630 -0.546475
F1    F     F_    0.096154 0.254020 0.042355 -0.662406
F2    F     F_    0.913461 0.723870 0.955361 -0.656257
F3    F     F_    0.452760 0.359943 0.211759 -0.695803
F4    F     F_    0.564368 0.621306 0.788803 -0.692705
C29   C     C_3   0.855244 0.762795 0.283141 -0.371801
C30   C     C_3   0.990000 0.740710 0.301702 -0.782475
H9    H     H_    0.051049 0.821732 0.343128 0.227536
H10   H     H_    0.954627 0.649049 0.336653 0.267953
H11   H     H_    0.065209 0.736815 0.240974 0.253164
H12   H     H_    0.892434 0.861361 0.255967 0.206063
H13   H     H_    0.780841 0.765073 0.344418 0.200263
C31   C     C_3   0.106555 0.271434 0.721633 -0.365879
C32   C     C_3   0.998372 0.337498 0.715272 -0.759218
H14   H     H_    0.058407 0.440010 0.695426 0.255782
H15   H     H_    0.926210 0.284550 0.667093 0.226879
H16   H     H_    0.927561 0.336312 0.778638 0.250631
H17   H     H_    0.164332 0.256555 0.656898 0.209418
H18   H     H_    0.041586 0.171594 0.746084 0.199572
C33   C     C_3   0.308711 0.039681 0.415117 -0.431365
C34   C     C_3   0.390398 0.031329 0.324314 -0.743228
H19   H     H_    0.455094 0.130671 0.299171 0.285105
H20   H     H_    0.466634 0.978999 0.323944 0.244858
H21   H     H_    0.309253 0.978027 0.280880 0.243914
H22   H     H_    0.239643 0.941294 0.439146 0.198501
H23   H     H_    0.229324 0.087264 0.411147 0.217899
C35   C     C_3   0.716695 0.970204 0.564321 -0.361241
C36   C     C_3   0.843317 0.054006 0.498879 -0.871823
H24   H     H_    0.884441 0.991333 0.450800 0.250737
H25   H     H_    0.805075 0.115584 0.464983 0.257537
H26   H     H_    0.935824 0.117804 0.532206 0.243640
H27   H     H_    0.683265 0.031619 0.616762 0.200434
H28   H     H_    0.758996 0.909311 0.596260 0.225989
C37   C     C_3   0.109593 0.362549 0.389686 -0.122512
C38   C     C_3   0.126866 0.438964 0.310034 -0.778464
H29   H     H_    0.052701 0.494247 0.321186 0.221242
H30   H     H_    0.242642 0.507736 0.292873 0.268630
H31   H     H_    0.096441 0.370194 0.255046 0.246264
H32   H     H_    0.179783 0.303252 0.373617 0.230858
H33   H     H_    0.994931 0.292205 0.405619 0.123445
C39   C     C_3   0.899901 0.651541 0.601785 -0.086033
C40   C     C_3   0.009305 0.777714 0.559856 -0.896098
H34   H     H_    0.110284 0.763748 0.525050 0.234799
H35   H     H_    0.958014 0.810234 0.513799 0.268225
H36   H     H_    0.041883 0.854975 0.610116 0.241218
H37   H     H_    0.806295 0.673549 0.640431 0.244136
H38   H     H_    0.948731 0.616897 0.648176 0.137126

loop_
_geom_bond_atom_site_label_1
_geom_bond_atom_site_label_2
_ccdc_geom_bond_type
C32   H16   S    
C39   H38   S    
C18   C26   A    
C37   C38   S    
C29   H13   S    
C14   O6    A    
C29   C30   S    
C15   C19   A    
C3    C28   A    
C24   C26   A    
C3    H3    S    
C33   H22   S    
C12   H7    S    
C32   H15   S    
C39   H37   S    
C1    O3    A    
C2    O4    A    
C34   H19   S    
C9    H6    S    
C10   H5    S    
C33   H23   S    
C23   C27   A    
C40   H35   S    
C9    C10   S    
C18   C20   A    
C37   H32   S    
C31   H18   S    
C35   H28   S    
C5    F1    S    
N1    C39   S    
C7    C35   S    
C4    H4    S    
C30   H10   S    
C35   C36   S    
Cu1   O8    S    
C33   C34   S    
Cu2   O7    S    
C4    C6    A    
C13   O7    A    
C14   O8    A    
Cu1   O5    S    
C31   C32   S    
C12   N2    D    
C11   H8    S    
C36   H24   S    
Cu1   Cu2   S    
C16   C20   A    
C6    F2    S    
C40   H36   S    
C11   N1    D    
C36   H25   S    
C37   H33   S    
C5    C25   A    
C1    O1    A    
C31   H17   S    
C38   H30   S    
C35   H27   S    
C21   C23   A    
Cu1   O4    S    
C17   H1    S    
C14   C16   S    
Cu2   O3    S    
C18   H2    S    
C4    C27   A    
C7    C9    D    
C30   H9    S    
C16   C22   A    
Cu1   O1    S    
C1    C7    S    
N2    C37   S    
Cu2   O6    S    
C2    C8    S    
C24   C28   A    
C20   C29   S    
C3    C5    A    
C29   H12   S    
C19   C31   S    
C38   H31   S    
C17   C25   A    
C13   C15   S    
C13   O5    A    
C6    C26   A    
C2    O2    A    
C34   H21   S    
Cu1   N2    S    
C17   C19   A    
Cu2   N1    S    
C22   C24   A    
C23   C25   A    
C32   H14   S    
C36   H26   S    
C15   C21   A    
C39   C40   S    
C8    C33   S    
C8    C10   D    
C38   H29   S    
C27   C28   A    
C34   H20   S    
Cu2   O2    S    
C40   H34   S    
C21   F4    S    
C11   C12   S    
C22   F3    S    
C30   H11   S    
