data_mof_unit_52391.cif
_audit_creation_date              2012-12-11T15:48:03-0500
_audit_creation_method            fapswitch 2.2
_symmetry_space_group_name_H-M    P1
_symmetry_Int_Tables_number       1
_space_group_crystal_system       triclinic
_cell_length_a                    6.910313
_cell_length_b                    17.622387
_cell_length_c                    19.513895
_cell_angle_alpha                 108.671337
_cell_angle_beta                  89.641038
_cell_angle_gamma                 90.599724
_cell_volume                      2251.12935478

loop_
_atom_site_label
_atom_site_type_symbol
_atom_type_description
_atom_site_fract_x
_atom_site_fract_y
_atom_site_fract_z
_atom_type_partial_charge
O1    O     O_R   0.494330 0.415710 0.413720 -0.556829
O2    O     O_R   0.819360 0.430070 0.560210 -0.509584
O3    O     O_R   0.994320 0.584290 0.586280 -0.526936
C1    C     C_R   0.650454 0.411093 0.578676 0.779317
O4    O     O_R   0.823740 0.406290 0.412670 -0.521393
O5    O     O_R   0.998730 0.560340 0.437690 -0.531806
C2    C     C_R   0.654728 0.382293 0.385257 0.745689
O6    O     O_R   0.489920 0.439660 0.562310 -0.547601
O7    O     O_3   0.662330 0.550570 0.508380 -0.342839
V1    V     V_3+5 0.935370 0.490620 0.498440 1.639050
O8    O     O_R   0.328720 0.569930 0.439790 -0.517077
C3    C     C_R   0.161443 0.586229 0.418677 0.728418
O9    O     O_R   0.324340 0.593710 0.587330 -0.512705
C4    C     C_R   0.155423 0.615602 0.616310 0.808652
V2    V     V_3+5 0.435940 0.509380 0.501560 1.632710
O10   O     O_3   0.159110 0.449430 0.491620 -0.365450
C5    C     C_R   0.284079 0.744993 0.702827 0.372135
C6    C     C_R   0.271886 0.808457 0.768501 -0.295241
H1    H     H_    0.379734 0.855965 0.780706 0.151299
C7    C     C_R   0.119522 0.812943 0.817356 -0.148275
C8    C     C_R   0.978119 0.751560 0.801319 0.339896
C9    C     C_R   0.994352 0.684937 0.737203 0.123707
C10   C     C_R   0.144236 0.682695 0.686317 -0.170010
C11   C     C_R   0.000904 0.626244 0.319825 0.395960
C12   C     C_R   0.154923 0.637480 0.369997 -0.253598
C13   C     C_R   0.297194 0.697878 0.373744 0.276397
C14   C     C_R   0.273797 0.751644 0.333291 -0.077099
C15   C     C_R   0.121984 0.737673 0.281758 -0.158393
C16   C     C_R   0.979366 0.677950 0.277688 0.001655
C17   C     C_R   0.398800 0.818710 0.341221 0.328841
C18   C     C_R   0.406997 0.855909 0.287789 0.301402
C19   C     C_R   0.263328 0.839160 0.233801 -0.004867
C20   C     C_R   0.114233 0.783096 0.233399 0.032077
C21   C     C_R   0.959184 0.771931 0.183871 0.019663
C22   C     C_R   0.806135 0.718603 0.185523 0.207120
C23   C     C_R   0.817934 0.670445 0.230999 0.420509
C24   C     C_R   0.257973 0.881426 0.183542 -0.144533
C25   C     C_R   0.109510 0.868305 0.132699 -0.069322
C26   C     C_R   0.961386 0.813699 0.133052 -0.166782
H2    H     H_    0.364769 0.927129 0.184772 0.141636
H3    H     H_    0.850470 0.803229 0.092120 0.142706
C27   C     C_R   0.480535 0.198029 0.877711 0.412163
C28   C     C_R   0.622336 0.138845 0.872954 -0.182805
C29   C     C_R   0.764260 0.124381 0.819371 -0.130550
C30   C     C_R   0.766049 0.165079 0.768227 0.020829
C31   C     C_R   0.619605 0.221496 0.770153 -0.048185
C32   C     C_R   0.471255 0.236437 0.823713 -0.028206
C33   C     C_R   0.906744 0.147493 0.713042 0.266915
C34   C     C_R   0.901274 0.184410 0.659526 0.374947
C35   C     C_R   0.772156 0.248716 0.665652 -0.054476
C36   C     C_R   0.623794 0.263746 0.719044 -0.017307
C37   C     C_R   0.479638 0.320861 0.721276 0.008818
C38   C     C_R   0.328657 0.333788 0.772931 0.312123
C39   C     C_R   0.321046 0.290534 0.822029 0.310776
C40   C     C_R   0.790073 0.299522 0.621709 0.252428
C41   C     C_R   0.642870 0.356313 0.623685 -0.119535
C42   C     C_R   0.486130 0.362896 0.670917 -0.136238
H4    H     H_    0.870427 0.079003 0.817031 0.174718
H5    H     H_    0.372278 0.404059 0.669724 0.161279
C43   C     C_R   0.791546 0.253469 0.300540 0.343676
C44   C     C_R   0.777309 0.186507 0.236446 0.176605
C45   C     C_R   0.622569 0.180902 0.187340 -0.123183
C46   C     C_R   0.477593 0.239269 0.206200 -0.168727
H6    H     H_    0.356383 0.235987 0.170396 0.157310
C47   C     C_R   0.487296 0.303147 0.270808 -0.199510
H7    H     H_    0.372980 0.347126 0.283098 0.146133
C48   C     C_R   0.644608 0.311865 0.317992 -0.109005
O11   O     O_R   0.774940 0.060470 0.937800 -0.538494
O12   O     O_R   0.440880 0.093730 0.087350 -0.543885
O13   O     O_R   0.266130 0.939630 0.062280 -0.547816
C49   C     C_R   0.609850 0.114857 0.116849 0.745915
O14   O     O_R   0.445480 0.069960 0.939820 -0.533392
O15   O     O_R   0.270770 0.915690 0.913690 -0.550109
C50   C     C_R   0.614798 0.087341 0.920268 0.690737
O16   O     O_R   0.770300 0.084410 0.086380 -0.520215
O17   O     O_3   0.602600 0.949510 0.991670 -0.371403
V3    V     V_3+5 0.329470 0.009370 0.001550 1.511902
O18   O     O_R   0.940760 0.906160 0.912560 -0.519992
C51   C     C_R   0.109660 0.882521 0.885079 0.772412
O19   O     O_R   0.936150 0.929930 0.060100 -0.535670
C52   C     C_R   0.103953 0.915025 0.081709 0.755169
V4    V     V_3+5 0.828930 0.990450 0.998310 1.539486
O20   O     O_3   0.105670 0.050490 0.008320 -0.359754
O21   O     O_3   0.430135 0.743502 0.653685 -0.605657
H8    H     H_    0.516080 0.790803 0.673571 0.314011
O22   O     O_3   0.644462 0.711021 0.142462 -0.642400
H9    H     H_    0.607456 0.764999 0.142118 0.282409
O23   O     O_3   0.669323 0.617680 0.232849 -0.591061
H10   H     H_    0.563064 0.620265 0.199980 0.338282
O24   O     O_3   0.357051 0.221438 0.936425 -0.601202
H11   H     H_    0.424180 0.216309 0.979432 0.287789
Br1   Br    Br    0.106364 0.069069 0.705363 -0.457288
O25   O     O_3   0.012954 0.150976 0.598929 -0.564578
H12   H     H_    0.929147 0.145510 0.556488 0.347012
Br2   Br    Br    0.025498 0.297444 0.565775 -0.450186
O26   O     O_3   0.183971 0.388390 0.776690 -0.594985
H13   H     H_    0.245983 0.438970 0.775750 0.312998
Br3   Br    Br    0.094277 0.308884 0.883775 -0.405783
O27   O     O_3   0.942164 0.261544 0.348726 -0.611375
H14   H     H_    0.056174 0.232293 0.322948 0.334792
Br4   Br    Br    0.955404 0.098664 0.222490 -0.528308
O28   O     O_3   0.831400 0.756518 0.851000 -0.625038
H15   H     H_    0.718762 0.724474 0.826402 0.332757
Br5   Br    Br    0.826385 0.592905 0.725254 -0.535255
O29   O     O_3   0.876827 0.561314 0.307725 -0.583736
H16   H     H_    0.954069 0.514012 0.307128 0.272835
Br6   Br    Br    0.543227 0.695004 0.420487 -0.389661
Br7   Br    Br    0.530155 0.876623 0.430154 -0.303045
O30   O     O_3   0.550898 0.912338 0.292857 -0.587165
H17   H     H_    0.604650 0.903428 0.243774 0.289452

loop_
_geom_bond_atom_site_label_1
_geom_bond_atom_site_label_2
_ccdc_geom_bond_type
C40   C41   A    
C46   C47   A    
O25   H12   S    
O14   C50   A    
O12   V3    S    
C22   C23   A    
C1    O6    A    
C43   O27   S    
C26   H3    S    
C38   C39   A    
C23   O23   S    
C16   C23   A    
C13   C14   A    
C45   C46   A    
O13   V3    S    
C15   C16   A    
C21   C22   A    
C24   H2    S    
O5    C3    A    
C17   C18   A    
C22   O22   S    
C42   H5    S    
V3    O20   S    
O11   C50   A    
V2    O10   S    
C9    Br5   S    
C41   C42   A    
C6    H1    S    
O12   C49   A    
O13   C52   A    
C11   C16   A    
O14   V3    S    
O8    V2    S    
O21   H8    S    
C18   C19   A    
C43   C48   A    
C29   H4    S    
C47   C48   A    
O1    V2    S    
O7    V1    S    
C28   C50   S    
O1    C2    A    
C8    C9    A    
C1    C41   S    
C38   O26   S    
O28   H15   S    
C5    C6    A    
C18   O30   S    
C21   C26   A    
C11   C12   A    
O19   V4    S    
O17   V4    S    
O4    C2    A    
O18   C51   A    
C12   C13   A    
C30   C31   A    
C31   C36   A    
C36   C37   A    
C43   C44   A    
C27   O24   S    
C4    C10   S    
C44   Br4   S    
C28   C29   A    
C24   C25   A    
O18   V4    S    
O27   H14   S    
O26   H13   S    
C7    C8    A    
C35   C36   A    
O15   C51   A    
C5    C10   A    
C19   C24   A    
O17   V3    S    
O3    C4    A    
C32   C39   A    
C8    O28   S    
C40   Br2   S    
C33   C34   A    
C15   C20   A    
V4    O20   S    
O6    V2    S    
O9    V2    S    
C25   C52   S    
C27   C28   A    
O2    V1    S    
C29   C30   A    
C30   C33   A    
C31   C32   A    
C7    C51   S    
C17   Br7   S    
O22   H9    S    
O19   C52   A    
C13   Br6   S    
O5    V1    S    
O8    C3    A    
O16   V4    S    
O29   H16   S    
C35   C40   A    
C3    C12   S    
C5    O21   S    
O11   V4    S    
C19   C20   A    
O7    V2    S    
O4    V1    S    
O3    V1    S    
V1    O10   S    
O30   H17   S    
C49   O16   A    
O24   H11   S    
C25   C26   A    
O2    C1    A    
C20   C21   A    
C45   C49   S    
C6    C7    A    
C27   C32   A    
C47   H7    S    
C44   C45   A    
C37   C42   A    
C2    C48   S    
C46   H6    S    
O23   H10   S    
C34   C35   A    
C33   Br1   S    
C14   C15   A    
O15   V3    S    
C9    C10   A    
C39   Br3   S    
C11   O29   S    
C34   O25   S    
O9    C4    A    
C37   C38   A    
C14   C17   A    
