data_mof_unit_45065.cif
_audit_creation_date              2012-12-10T18:55:57-0500
_audit_creation_method            fapswitch 2.2
_symmetry_space_group_name_H-M    P1
_symmetry_Int_Tables_number       1
_space_group_crystal_system       triclinic
_cell_length_a                    10.692993
_cell_length_b                    9.845024
_cell_length_c                    14.956338
_cell_angle_alpha                 89.942858
_cell_angle_beta                  90.124712
_cell_angle_gamma                 89.983332
_cell_volume                      1574.49059053

loop_
_atom_site_label
_atom_site_type_symbol
_atom_type_description
_atom_site_fract_x
_atom_site_fract_y
_atom_site_fract_z
_atom_type_partial_charge
C1    C     C_R   0.259940 0.500017 0.499931 0.858764
C2    C     C_R   0.936005 0.615990 0.528735 -0.193218
C3    C     C_R   0.935885 0.383970 0.471349 -0.195808
C4    C     C_R   0.064156 0.616002 0.528703 -0.195873
C5    C     C_R   0.602419 0.552319 0.094029 -0.170597
C6    C     C_R   0.602395 0.447689 0.906334 -0.170217
C7    C     C_R   0.396181 0.552120 0.905681 -0.170598
C8    C     C_R   0.396045 0.448386 0.093963 -0.170228
C9    C     C_R   0.604035 0.552534 0.186723 0.137694
C10   C     C_R   0.604029 0.447346 0.813645 0.140414
C11   C     C_R   0.395012 0.552375 0.812969 0.144409
C12   C     C_R   0.740070 0.499984 0.500067 0.858093
C13   C     C_R   0.394858 0.448015 0.186672 0.146713
C14   C     C_R   0.499575 0.500203 0.232602 -0.049254
C15   C     C_R   0.499650 0.499846 0.767401 -0.049253
C16   C     C_R   0.499170 0.500309 0.048233 0.036269
C17   C     C_R   0.499207 0.499988 0.951770 0.036211
C18   C     C_R   0.872493 0.499963 0.500075 -0.012088
C19   C     C_R   0.127535 0.500040 0.499916 -0.013419
C20   C     C_3   0.717838 0.605730 0.235356 -0.894559
C21   C     C_3   0.717755 0.393800 0.765412 -0.906721
C22   C     C_3   0.281558 0.605980 0.763988 -0.905258
C23   C     C_R   0.499850 0.500058 0.328243 0.902700
C24   C     C_3   0.281329 0.394613 0.235265 -0.916940
C25   C     C_R   0.499960 0.499947 0.671758 0.902797
C26   C     C_R   0.582578 0.071826 0.551941 -0.069228
C27   C     C_R   0.417442 0.928170 0.448044 -0.072574
C28   C     C_R   0.417416 0.072040 0.448062 -0.067254
C29   C     C_R   0.582560 0.927955 0.551957 -0.070700
C30   C     C_R   0.064036 0.384048 0.471190 -0.191773
H1    H     H_    0.681129 0.593198 0.057188 0.143205
H2    H     H_    0.755911 0.525867 0.280319 0.230981
H3    H     H_    0.793081 0.635944 0.188268 0.234208
H4    H     H_    0.692226 0.303082 0.725381 0.250708
H5    H     H_    0.755843 0.473408 0.720396 0.230348
H6    H     H_    0.793018 0.363667 0.812751 0.236423
H7    H     H_    0.243582 0.526321 0.718958 0.233184
H8    H     H_    0.206111 0.636311 0.810848 0.234891
H9    H     H_    0.307322 0.696576 0.723848 0.257550
H10   H     H_    0.243547 0.474229 0.280312 0.232291
H11   H     H_    0.205790 0.364652 0.188157 0.237041
H12   H     H_    0.681029 0.406650 0.943450 0.143456
H13   H     H_    0.306956 0.303823 0.275328 0.248607
H14   H     H_    0.113144 0.294495 0.447958 0.151430
H15   H     H_    0.886913 0.705610 0.551856 0.149586
H16   H     H_    0.886696 0.294319 0.448296 0.156017
H17   H     H_    0.113362 0.705584 0.551869 0.156992
H18   H     H_    0.317402 0.593243 0.942297 0.143233
H19   H     H_    0.317217 0.407484 0.057073 0.143478
H20   H     H_    0.648630 0.126216 0.593450 0.124006
H21   H     H_    0.351444 0.873762 0.406486 0.130436
H22   H     H_    0.351349 0.126601 0.406563 0.118883
H23   H     H_    0.648568 0.873374 0.593509 0.124972
H24   H     H_    0.692421 0.696324 0.275507 0.259960
N1    N     N_R   0.500000 0.857200 0.500000 -0.082173
N2    N     N_R   0.500000 0.142800 0.500000 -0.080004
O1    O     O_R   0.316770 0.614620 0.499990 -0.627982
O2    O     O_R   0.683230 0.385380 0.500010 -0.627096
O3    O     O_R   0.683230 0.614620 0.500010 -0.626468
O4    O     O_R   0.316770 0.385380 0.499990 -0.625322
O5    O     O_R   0.499990 0.614660 0.369060 -0.616963
O6    O     O_R   0.500010 0.385340 0.630940 -0.614063
O7    O     O_R   0.500010 0.614660 0.630940 -0.619834
O8    O     O_R   0.499990 0.385340 0.369060 -0.617082
Zn1   Zn    Zn3+2 0.500000 0.653120 0.500000 0.941369
Zn2   Zn    Zn3+2 0.500000 0.346880 0.500000 0.945232

loop_
_geom_bond_atom_site_label_1
_geom_bond_atom_site_label_2
_ccdc_geom_bond_type
C14   C23   S    
C6    C10   A    
C3    C30   A    
C2    C4    A    
C9    C14   A    
O7    Zn1   S    
C5    C9    A    
C8    C13   A    
C21   H5    S    
C1    O1    A    
C2    C18   A    
C28   H22   S    
C3    H16   S    
C29   N1    A    
C21   H4    S    
C25   O6    A    
C12   O2    A    
C7    H18   S    
C26   H20   S    
C28   N2    A    
O4    Zn2   S    
C8    C16   A    
C21   H6    S    
C13   C14   A    
O3    Zn1   S    
C7    C11   A    
C24   H11   S    
C22   H7    S    
C30   H14   S    
C19   C30   A    
C29   H23   S    
C26   C29   A    
C20   H2    S    
N2    Zn2   S    
C20   H3    S    
C23   O8    A    
N1    Zn1   S    
C27   H21   S    
C10   C15   A    
C12   O3    A    
C10   C21   S    
C6    H12   S    
C27   N1    A    
C15   C25   S    
C1    C19   S    
C2    H15   S    
C22   H9    S    
C26   N2    A    
C22   H8    S    
O5    Zn1   S    
C23   O5    A    
C3    C18   A    
C20   H24   S    
C25   O7    A    
C1    O4    A    
C12   C18   S    
C27   C28   A    
C6    C17   A    
C24   H13   S    
O6    Zn2   S    
C4    H17   S    
C5    C16   A    
C11   C22   S    
C9    C20   S    
C24   H10   S    
C4    C19   A    
C11   C15   A    
C8    H19   S    
O2    Zn2   S    
C13   C24   S    
O1    Zn1   S    
C16   C17   S    
C5    H1    S    
C7    C17   A    
O8    Zn2   S    
