data_mof_unit_50176.cif
_audit_creation_date              2013-03-05T15:42:05-0500
_audit_creation_method            fapswitch 2.2
_symmetry_space_group_name_H-M    P1
_symmetry_Int_Tables_number       1
_space_group_crystal_system       triclinic
_cell_length_a                    32.962261
_cell_length_b                    33.073535
_cell_length_c                    33.158701
_cell_angle_alpha                 60.87284
_cell_angle_beta                  60.414882
_cell_angle_gamma                 60.561114
_cell_volume                      25916.0245731

loop_
_atom_site_label
_atom_site_type_symbol
_atom_site_description
_atom_site_fract_x
_atom_site_fract_y
_atom_site_fract_z
_atom_type_partial_charge
O1    O     O_R   0.003330 0.572150 0.937250 -0.555766
O2    O     O_R   0.996670 0.427850 0.062750 -0.555499
O3    O     O_R   0.572150 0.937250 0.003330 -0.553578
O4    O     O_R   0.427850 0.062750 0.996670 -0.546269
O5    O     O_R   0.937250 0.003330 0.572150 -0.554251
O6    O     O_R   0.062750 0.996670 0.427850 -0.540786
O7    O     O_R   0.427850 0.996670 0.062750 -0.593231
O8    O     O_R   0.572150 0.003330 0.937250 -0.558345
O9    O     O_R   0.062750 0.427850 0.996670 -0.564522
O10   O     O_R   0.937250 0.572150 0.003330 -0.559317
O11   O     O_R   0.996670 0.062750 0.427850 -0.640798
O12   O     O_R   0.003330 0.937250 0.572150 -0.561004
O13   O     O_R   0.996560 0.512880 0.063050 -0.582360
O14   O     O_R   0.003440 0.487120 0.936950 -0.603676
O15   O     O_R   0.512880 0.063050 0.996560 -0.589384
O16   O     O_R   0.487120 0.936950 0.003440 -0.613760
O17   O     O_R   0.063050 0.996560 0.512880 -0.580877
O18   O     O_R   0.936950 0.003440 0.487120 -0.609850
O19   O     O_R   0.487120 0.003440 0.936950 -0.590152
O20   O     O_R   0.512880 0.996560 0.063050 -0.601909
O21   O     O_R   0.936950 0.487120 0.003440 -0.597665
O22   O     O_R   0.063050 0.512880 0.996560 -0.594779
O23   O     O_R   0.003440 0.936950 0.487120 -0.585710
O24   O     O_R   0.996560 0.063050 0.512880 -0.600448
C1    C     C_R   0.960595 0.595652 0.961054 0.984670
C2    C     C_R   0.039695 0.404421 0.039446 0.999668
C3    C     C_R   0.595752 0.961098 0.960730 0.971936
C4    C     C_R   0.404521 0.040035 0.039354 1.020219
C5    C     C_R   0.960811 0.960692 0.595563 0.988639
C6    C     C_R   0.040463 0.039295 0.405062 1.019701
C7    C     C_R   0.039135 0.517955 0.038997 0.872357
C8    C     C_R   0.960840 0.482334 0.960968 0.884407
C9    C     C_R   0.517618 0.039140 0.039037 0.866798
C10   C     C_R   0.482549 0.960978 0.961042 0.901618
C11   C     C_R   0.038957 0.038931 0.518109 0.879289
C12   C     C_R   0.960829 0.960940 0.482346 0.911692
Zn1   Zn    Zn3+2 0.044470 0.500000 0.955530 1.177862
Zn2   Zn    Zn3+2 0.955530 0.500000 0.044470 1.189570
Zn3   Zn    Zn3+2 0.500000 0.955530 0.044470 1.144417
Zn4   Zn    Zn3+2 0.500000 0.044470 0.955530 1.204539
Zn5   Zn    Zn3+2 0.955530 0.044470 0.500000 1.124345
Zn6   Zn    Zn3+2 0.044470 0.955530 0.500000 1.199182
C13   C     C_R   0.872348 0.449924 0.801380 0.109431
C14   C     C_R   0.117882 0.567639 0.195037 0.128141
C15   C     C_R   0.467619 0.794692 0.867938 0.102996
C16   C     C_R   0.562450 0.195901 0.122749 0.147284
C17   C     C_R   0.806167 0.875774 0.438797 0.121813
C18   C     C_R   0.193962 0.120438 0.563851 0.120654
C19   C     C_R   0.549292 0.128996 0.198880 0.110682
C20   C     C_R   0.464251 0.866441 0.796263 0.116496
C21   C     C_R   0.189848 0.572202 0.120477 0.125676
C22   C     C_R   0.805990 0.434379 0.878357 0.146726
C23   C     C_R   0.119013 0.191782 0.570883 0.134786
C24   C     C_R   0.881373 0.805027 0.432564 0.137499
C25   C     C_R   0.877570 0.440512 0.875742 0.129373
C26   C     C_R   0.114861 0.573810 0.120764 0.136468
C27   C     C_R   0.462024 0.869647 0.868450 0.126159
C28   C     C_R   0.556703 0.124608 0.124752 0.129320
C29   C     C_R   0.881319 0.878189 0.432789 0.132727
C30   C     C_R   0.117878 0.117529 0.573268 0.136201
C31   C     C_R   0.826254 0.443131 0.827644 -0.086170
C32   C     C_R   0.167320 0.565754 0.170952 -0.090580
C33   C     C_R   0.466836 0.817366 0.820091 -0.137406
C34   C     C_R   0.555574 0.175058 0.172985 -0.088647
C35   C     C_R   0.830910 0.827232 0.438249 -0.091467
C36   C     C_R   0.170160 0.169551 0.562327 -0.102545
H1    H     H_    0.805200 0.447453 0.808168 0.125877
H2    H     H_    0.188612 0.556578 0.192515 0.116294
H3    H     H_    0.469550 0.796638 0.801151 0.136174
H4    H     H_    0.552220 0.195681 0.192399 0.127219
H5    H     H_    0.810350 0.805905 0.444962 0.120556
H6    H     H_    0.192349 0.190817 0.551994 0.112738
C37   C     C_R   0.833274 0.430298 0.902583 -0.125371
C38   C     C_R   0.161907 0.578432 0.095276 -0.085513
C39   C     C_R   0.459878 0.893117 0.821102 -0.103329
C40   C     C_R   0.549730 0.103966 0.174744 -0.068309
C41   C     C_R   0.906827 0.831461 0.427996 -0.106680
C42   C     C_R   0.092665 0.164011 0.578748 -0.072581
C43   C     C_R   0.564993 0.169574 0.098442 -0.118936
C44   C     C_R   0.465776 0.820424 0.891982 -0.051859
C45   C     C_R   0.091836 0.571394 0.169842 -0.106977
C46   C     C_R   0.897614 0.449263 0.825326 -0.071263
C47   C     C_R   0.167660 0.094698 0.568866 -0.109476
C48   C     C_R   0.831740 0.900997 0.436049 -0.097297
H7    H     H_    0.817511 0.424546 0.941638 0.142040
H8    H     H_    0.177779 0.582707 0.056632 0.134448
H9    H     H_    0.458071 0.931199 0.802573 0.145174
H10   H     H_    0.542332 0.069496 0.195327 0.140749
H11   H     H_    0.945226 0.813762 0.426008 0.143353
H12   H     H_    0.053480 0.179800 0.584313 0.135098
H13   H     H_    0.568687 0.186191 0.059935 0.143236
H14   H     H_    0.468572 0.801828 0.928412 0.138764
H15   H     H_    0.055218 0.568138 0.189439 0.145778
H16   H     H_    0.931767 0.457723 0.804385 0.140233
H17   H     H_    0.186643 0.058230 0.565631 0.148325
H18   H     H_    0.812287 0.937325 0.439627 0.126978
C49   C     C_R   0.870687 0.501487 0.715425 -0.010740
C50   C     C_R   0.092941 0.584723 0.272176 -0.005425
C51   C     C_R   0.517009 0.706608 0.877888 -0.016742
C52   C     C_R   0.582510 0.271986 0.096554 -0.005131
C53   C     C_R   0.728364 0.895869 0.424962 -0.038011
C54   C     C_R   0.271559 0.100924 0.577092 -0.029999
C55   C     C_R   0.497364 0.129442 0.285822 -0.007927
C56   C     C_R   0.510467 0.870027 0.708228 -0.000737
C57   C     C_R   0.271178 0.575028 0.110036 -0.030050
C58   C     C_R   0.728258 0.419713 0.898868 -0.009088
C59   C     C_R   0.110609 0.272489 0.572329 -0.036137
C60   C     C_R   0.903145 0.727324 0.417737 -0.002934
C61   C     C_R   0.893584 0.507180 0.665365 -0.245126
C62   C     C_R   0.075580 0.569270 0.323574 -0.281708
C63   C     C_R   0.518200 0.658168 0.900223 -0.250256
C64   C     C_R   0.568342 0.323425 0.077351 -0.275943
C65   C     C_R   0.676775 0.913709 0.440149 -0.155710
C66   C     C_R   0.323165 0.084402 0.561047 -0.201733
C67   C     C_R   0.491559 0.105995 0.335762 -0.243756
C68   C     C_R   0.512737 0.894437 0.659614 -0.213098
C69   C     C_R   0.323071 0.556416 0.092968 -0.161355
C70   C     C_R   0.676432 0.435706 0.916833 -0.274219
C71   C     C_R   0.094184 0.323889 0.553579 -0.149960
C72   C     C_R   0.920383 0.675896 0.433678 -0.277869
C73   C     C_R   0.939177 0.473398 0.647998 -0.182724
C74   C     C_R   0.060357 0.527860 0.351261 -0.173593
C75   C     C_R   0.477215 0.646095 0.938807 -0.165755
C76   C     C_R   0.528450 0.351331 0.059530 -0.176929
C77   C     C_R   0.648697 0.937871 0.475278 -0.182148
C78   C     C_R   0.351326 0.061345 0.525075 -0.183709
C79   C     C_R   0.525976 0.060895 0.352059 -0.179348
C80   C     C_R   0.476037 0.938568 0.646596 -0.158393
C81   C     C_R   0.349110 0.533597 0.056742 -0.171388
C82   C     C_R   0.649139 0.471145 0.940703 -0.182494
C83   C     C_R   0.056951 0.349763 0.532229 -0.178267
C84   C     C_R   0.940460 0.648702 0.471682 -0.178042
C85   C     C_R   0.962005 0.431843 0.680983 0.370807
C86   C     C_R   0.064065 0.500136 0.327346 0.431647
C87   C     C_R   0.433153 0.682479 0.954493 0.360375
C88   C     C_R   0.501411 0.327728 0.061609 0.423638
C89   C     C_R   0.672325 0.940330 0.499321 0.343993
C90   C     C_R   0.327630 0.057989 0.501663 0.439785
C91   C     C_R   0.568325 0.039303 0.317981 0.377658
C92   C     C_R   0.434661 0.958126 0.682528 0.446362
C93   C     C_R   0.321596 0.530026 0.037099 0.343893
C94   C     C_R   0.673881 0.491399 0.946834 0.445590
C95   C     C_R   0.036213 0.322583 0.529521 0.328197
C96   C     C_R   0.942667 0.673090 0.495150 0.449634
C97   C     C_R   0.939065 0.425690 0.730884 -0.222129
C98   C     C_R   0.081903 0.514977 0.276344 -0.239745
C99   C     C_R   0.431041 0.731259 0.930592 -0.216613
C100  C     C_R   0.515359 0.276894 0.080494 -0.233240
C101  C     C_R   0.723658 0.919578 0.486559 -0.227661
C102  C     C_R   0.276181 0.077272 0.515509 -0.228604
C103  C     C_R   0.574522 0.062647 0.268225 -0.225731
C104  C     C_R   0.431587 0.933235 0.731412 -0.220543
C105  C     C_R   0.270673 0.540694 0.060337 -0.215955
C106  C     C_R   0.725179 0.476211 0.928211 -0.233873
C107  C     C_R   0.058783 0.271951 0.540412 -0.209691
C108  C     C_R   0.924870 0.724144 0.479838 -0.238094
C109  C     C_R   0.893894 0.459818 0.748358 -0.046214
C110  C     C_R   0.096337 0.556781 0.248501 -0.045231
C111  C     C_R   0.472439 0.743300 0.892520 -0.050660
C112  C     C_R   0.555108 0.248699 0.098347 -0.040187
C113  C     C_R   0.752160 0.897915 0.449277 -0.037735
C114  C     C_R   0.247843 0.098387 0.553093 -0.040682
C115  C     C_R   0.539748 0.107274 0.251827 -0.048965
C116  C     C_R   0.469051 0.889668 0.744537 -0.054764
C117  C     C_R   0.244270 0.563835 0.096284 -0.025979
C118  C     C_R   0.752772 0.441374 0.903640 -0.030667
C119  C     C_R   0.095342 0.245787 0.562545 -0.028804
C120  C     C_R   0.904732 0.751631 0.441856 -0.040574
H19   H     H_    0.876636 0.538971 0.639368 0.217878
H20   H     H_    0.071974 0.590715 0.342311 0.196691
H21   H     H_    0.551902 0.629348 0.889031 0.215204
H22   H     H_    0.589204 0.342006 0.075093 0.201275
H23   H     H_    0.658308 0.911292 0.422382 0.261480
H24   H     H_    0.341610 0.086980 0.578713 0.223891
H25   H     H_    0.459286 0.122249 0.362479 0.216031
H26   H     H_    0.544349 0.880049 0.631232 0.205599
H27   H     H_    0.343444 0.563048 0.105385 0.234148
H28   H     H_    0.657064 0.419213 0.913765 0.206613
H29   H     H_    0.107611 0.344033 0.559367 0.238283
H30   H     H_    0.920004 0.656753 0.415088 0.201577
H31   H     H_    0.955813 0.393529 0.756757 0.203047
H32   H     H_    0.085566 0.493275 0.257884 0.199221
H33   H     H_    0.397164 0.760157 0.941193 0.201270
H34   H     H_    0.493898 0.258950 0.082917 0.200069
H35   H     H_    0.741699 0.919867 0.506204 0.198657
H36   H     H_    0.257885 0.076453 0.496449 0.194711
H37   H     H_    0.607250 0.046668 0.241639 0.203229
H38   H     H_    0.399749 0.947421 0.759701 0.203193
H39   H     H_    0.251593 0.530995 0.049456 0.194495
H40   H     H_    0.743864 0.493100 0.931486 0.196457
H41   H     H_    0.046956 0.252866 0.531705 0.199701
H42   H     H_    0.925460 0.742786 0.498656 0.197870
C121  C     C_R   0.948361 0.422309 0.898351 -0.038877
C122  C     C_R   0.094827 0.511500 0.118168 -0.021074
C123  C     C_R   0.431242 0.898177 0.938718 -0.041260
C124  C     C_R   0.507294 0.128900 0.084262 -0.024664
C125  C     C_R   0.906233 0.947249 0.415395 -0.049408
C126  C     C_R   0.109189 0.105449 0.509739 -0.032362
C127  C     C_R   0.578508 0.054816 0.098630 -0.036503
C128  C     C_R   0.505014 0.913763 0.868313 -0.026699
C129  C     C_R   0.076652 0.595215 0.060059 -0.031609
C130  C     C_R   0.870496 0.488367 0.919635 -0.026474
C131  C     C_R   0.063827 0.070681 0.596691 -0.032176
C132  C     C_R   0.918096 0.872853 0.486176 -0.022217
C133  C     C_R   0.968615 0.434910 0.917278 -0.169607
C134  C     C_R   0.076117 0.498359 0.098146 -0.162055
C135  C     C_R   0.438643 0.918106 0.962186 -0.155540
C136  C     C_R   0.499306 0.108191 0.062019 -0.168640
C137  C     C_R   0.922598 0.967912 0.430351 -0.132969
C138  C     C_R   0.090200 0.085605 0.496737 -0.160013
C139  C     C_R   0.566999 0.033986 0.079237 -0.176106
C140  C     C_R   0.508390 0.937207 0.891099 -0.181025
C141  C     C_R   0.059404 0.580123 0.040186 -0.171542
C142  C     C_R   0.890648 0.496759 0.942071 -0.172525
C143  C     C_R   0.045688 0.051378 0.581910 -0.166214
C144  C     C_R   0.938874 0.892833 0.496857 -0.176245
C145  C     C_R   0.939640 0.471007 0.939952 -0.077514
C146  C     C_R   0.059090 0.532153 0.059078 -0.064646
C147  C     C_R   0.476175 0.938390 0.937901 -0.064473
C148  C     C_R   0.528247 0.060778 0.060344 -0.073976
C149  C     C_R   0.940216 0.940330 0.469791 -0.080692
C150  C     C_R   0.058750 0.058868 0.532433 -0.054405
O25   O     O_R   0.488820 0.572080 0.003280 -0.571830
O26   O     O_R   0.511180 0.427920 0.996720 -0.563345
O27   O     O_R   0.572080 0.003280 0.488820 -0.558046
O28   O     O_R   0.427920 0.996720 0.511180 -0.560839
O29   O     O_R   0.003280 0.488820 0.572080 -0.561400
O30   O     O_R   0.996720 0.511180 0.427920 -0.567488
O31   O     O_R   0.427920 0.511180 0.996720 -0.519237
O32   O     O_R   0.572080 0.488820 0.003280 -0.561182
O33   O     O_R   0.996720 0.427920 0.511180 -0.526574
O34   O     O_R   0.003280 0.572080 0.488820 -0.569741
O35   O     O_R   0.511180 0.996720 0.427920 -0.560400
O36   O     O_R   0.488820 0.003280 0.572080 -0.534204
C151  C     C_R   0.898914 0.449722 0.898945 -0.049653
C152  C     C_R   0.094722 0.560530 0.099462 -0.070809
C153  C     C_R   0.465452 0.894989 0.891741 -0.052837
C154  C     C_R   0.548015 0.102641 0.101674 -0.054022
C155  C     C_R   0.903305 0.899345 0.443941 -0.055595
C156  C     C_R   0.096024 0.097977 0.560181 -0.077519
H43   H     H_    0.006657 0.415390 0.915944 0.227041
H44   H     H_    0.076259 0.461114 0.112030 0.214002
H45   H     H_    0.414063 0.919596 0.998654 0.207750
H46   H     H_    0.468518 0.127980 0.048543 0.224885
H47   H     H_    0.923631 0.004964 0.409993 0.240252
H48   H     H_    0.099305 0.091657 0.458480 0.200212
H49   H     H_    0.589419 0.997401 0.077117 0.225362
H50   H     H_    0.538179 0.952005 0.873644 0.215775
H51   H     H_    0.044454 0.606291 0.010912 0.211613
H52   H     H_    0.869168 0.525706 0.958472 0.219052
H53   H     H_    0.021868 0.029590 0.609040 0.204671
H54   H     H_    0.951173 0.872563 0.528349 0.217200
C157  C     C_R   0.482300 0.594941 0.961886 0.977971
C158  C     C_R   0.516360 0.404748 0.038945 0.942318
C159  C     C_R   0.595186 0.960191 0.485143 0.975108
C160  C     C_R   0.404869 0.039784 0.514688 0.975473
C161  C     C_R   0.961434 0.482393 0.595339 0.976111
C162  C     C_R   0.039457 0.515780 0.404717 0.946235
C163  C     C_R   0.403971 0.517923 0.038297 0.996331
C164  C     C_R   0.595340 0.483961 0.960833 0.923518
C165  C     C_R   0.038442 0.404124 0.517442 1.000737
C166  C     C_R   0.960728 0.595267 0.484133 0.935076
C167  C     C_R   0.517382 0.038543 0.404687 0.980845
C168  C     C_R   0.481966 0.961890 0.595114 0.976962
Zn7   Zn    Zn3+2 0.500090 0.500090 0.045140 1.123597
Zn8   Zn    Zn3+2 0.499910 0.499910 0.954860 1.161476
Zn9   Zn    Zn3+2 0.500090 0.045140 0.500090 1.141535
Zn10  Zn    Zn3+2 0.499910 0.954860 0.499910 1.139797
Zn11  Zn    Zn3+2 0.045140 0.500090 0.500090 1.134475
Zn12  Zn    Zn3+2 0.954860 0.499910 0.499910 1.161814
C169  C     C_R   0.800375 0.869681 0.867960 0.432606
C170  C     C_R   0.208527 0.135249 0.147100 0.408809
C171  C     C_R   0.871579 0.867817 0.798841 0.435930
C172  C     C_R   0.134535 0.146232 0.213408 0.413331
C173  C     C_R   0.869551 0.798680 0.868952 0.433758
C174  C     C_R   0.142704 0.209502 0.138570 0.435728
N1    N     N_R   0.824764 0.892166 0.821569 -0.186285
N2    N     N_R   0.181132 0.118128 0.194213 -0.165150
N3    N     N_R   0.894072 0.820998 0.822442 -0.177070
N4    N     N_R   0.115903 0.191870 0.185576 -0.153055
N5    N     N_R   0.822706 0.822978 0.891691 -0.176468
N6    N     N_R   0.188903 0.181184 0.119030 -0.189799
C175  C     C_R   0.715450 0.918601 0.866047 0.284193
C176  C     C_R   0.273936 0.057694 0.127969 0.304770
C177  C     C_R   0.917346 0.866430 0.713800 0.323877
C178  C     C_R   0.058259 0.125516 0.276861 0.312067
C179  C     C_R   0.866686 0.714378 0.916705 0.324337
C180  C     C_R   0.116633 0.268709 0.065446 0.322602
C181  C     C_R   0.096570 0.296355 0.131292 0.331565
C182  C     C_R   0.940478 0.731557 0.894344 0.320735
C183  C     C_R   0.130681 0.099906 0.298600 0.312669
C184  C     C_R   0.897107 0.938574 0.732201 0.317951
C185  C     C_R   0.294276 0.132208 0.096207 0.313962
C186  C     C_R   0.733003 0.894062 0.939598 0.321231
C187  C     C_R   0.669191 0.950004 0.885303 0.245012
C188  C     C_R   0.318710 0.038900 0.093200 0.313943
C189  C     C_R   0.947988 0.885379 0.667077 0.303669
C190  C     C_R   0.041155 0.089745 0.320232 0.194986
C191  C     C_R   0.885167 0.668246 0.948195 0.304886
C192  C     C_R   0.097171 0.318052 0.038279 0.312271
C193  C     C_R   0.060679 0.338719 0.113845 0.291139
C194  C     C_R   0.965934 0.680806 0.908153 0.305351
C195  C     C_R   0.114475 0.063292 0.340924 0.264571
C196  C     C_R   0.909701 0.964714 0.681635 0.307102
C197  C     C_R   0.336742 0.114929 0.059837 0.277849
C198  C     C_R   0.681849 0.907555 0.965291 0.312996
C199  C     C_R   0.649328 0.939574 0.937194 -0.408044
C200  C     C_R   0.352014 0.065560 0.062906 -0.401504
C201  C     C_R   0.939156 0.937029 0.648489 -0.430861
C202  C     C_R   0.066751 0.062565 0.353982 -0.370869
C203  C     C_R   0.937178 0.648697 0.939291 -0.432421
C204  C     C_R   0.065025 0.352852 0.064189 -0.427358
C205  C     C_R   0.749046 0.894702 0.891409 -0.249986
C206  C     C_R   0.260346 0.106365 0.126245 -0.235648
C207  C     C_R   0.896247 0.891011 0.747724 -0.263484
C208  C     C_R   0.105515 0.126813 0.264522 -0.209095
C209  C     C_R   0.892559 0.747562 0.893702 -0.263989
C210  C     C_R   0.120531 0.259203 0.109937 -0.256640
O37   O     O_R   0.427880 0.513270 0.062460 -0.623024
O38   O     O_R   0.572120 0.486730 0.937540 -0.635756
O39   O     O_R   0.513270 0.062460 0.427880 -0.632317
O40   O     O_R   0.486730 0.937540 0.572120 -0.639245
O41   O     O_R   0.062460 0.427880 0.513270 -0.615558
O42   O     O_R   0.937540 0.572120 0.486730 -0.632551
O43   O     O_R   0.486730 0.572120 0.937540 -0.619454
O44   O     O_R   0.513270 0.427880 0.062460 -0.627147
O45   O     O_R   0.937540 0.486730 0.572120 -0.620008
O46   O     O_R   0.062460 0.513270 0.427880 -0.628794
O47   O     O_R   0.572120 0.937540 0.486730 -0.619931
O48   O     O_R   0.427880 0.062460 0.513270 -0.626710
S1    S     S_3+6 0.726997 0.901794 0.816860 0.122054
O49   O     O_2   0.760385 0.926808 0.770135 -0.237002
O50   O     O_2   0.751413 0.847222 0.828614 -0.203712
O51   O     O_3   0.673757 0.917217 0.809346 -0.458033
H55   H     H_    0.683672 0.906576 0.781621 0.406390
S2    S     S_3+6 0.238035 0.019448 0.176778 0.131746
O52   O     O_2   0.227507 0.022981 0.224733 -0.235142
O53   O     O_2   0.190033 0.036895 0.169075 -0.232975
O54   O     O_3   0.266961 0.959809 0.181396 -0.430588
H56   H     H_    0.242351 0.943479 0.207497 0.399416
S3    S     S_3+6 0.898115 0.818385 0.726479 0.135410
O55   O     O_2   0.925472 0.770737 0.756728 -0.212031
O56   O     O_2   0.843674 0.830320 0.754357 -0.204982
O57   O     O_3   0.908504 0.812653 0.674175 -0.470222
H57   H     H_    0.898524 0.784287 0.684725 0.403385
S4    S     S_3+6 0.019113 0.171750 0.241216 0.113907
O58   O     O_2   0.019467 0.221342 0.230345 -0.237297
O59   O     O_2   0.038316 0.162352 0.193912 -0.211210
O60   O     O_3   0.959881 0.173662 0.270256 -0.471990
H58   H     H_    0.942988 0.198304 0.245956 0.405024
S5    S     S_3+6 0.817275 0.727088 0.899297 0.133194
O61   O     O_2   0.769924 0.758635 0.926422 -0.212482
O62   O     O_2   0.828699 0.753708 0.845235 -0.209540
O63   O     O_3   0.810404 0.674744 0.911353 -0.472365
H59   H     H_    0.781327 0.685335 0.902352 0.401345
S6    S     S_3+6 0.128545 0.219217 0.048558 0.133218
O64   O     O_2   0.182350 0.202082 0.019138 -0.207540
O65   O     O_2   0.116306 0.177008 0.093315 -0.244193
O66   O     O_3   0.093405 0.237281 0.015552 -0.456066
H60   H     H_    0.105006 0.209246 0.004571 0.402705
S7    S     S_3+6 0.115952 0.292085 0.175230 0.130833
O67   O     O_2   0.089506 0.264267 0.225741 -0.176445
O68   O     O_2   0.170647 0.265609 0.163723 -0.230691
O69   O     O_3   0.103816 0.348463 0.173562 -0.483043
H61   H     H_    0.113699 0.342795 0.200145 0.412639
S8    S     S_3+6 0.964357 0.774503 0.885319 0.135797
O70   O     O_2   0.989356 0.796217 0.831520 -0.203969
O71   O     O_2   0.922869 0.815051 0.904957 -0.222123
O72   O     O_3   0.004878 0.746814 0.915272 -0.454916
H62   H     H_    0.018066 0.772350 0.906377 0.403692
S9    S     S_3+6 0.176467 0.119321 0.291340 0.139906
O73   O     O_2   0.176440 0.109881 0.340522 -0.198515
O74   O     O_2   0.226730 0.092508 0.262594 -0.176155
O75   O     O_3   0.164066 0.179762 0.260887 -0.482573
H63   H     H_    0.190618 0.187794 0.258454 0.416059
S10   S     S_3+6 0.889321 0.961305 0.775409 0.133329
O76   O     O_2   0.835320 0.986738 0.797902 -0.222536
O77   O     O_2   0.908847 0.919528 0.815308 -0.220446
O78   O     O_3   0.920772 0.000595 0.747829 -0.445722
H64   H     H_    0.912472 0.013240 0.773543 0.403209
S11   S     S_3+6 0.288162 0.180117 0.111636 0.130431
O79   O     O_2   0.256944 0.228550 0.086166 -0.194924
O80   O     O_2   0.263876 0.170127 0.166050 -0.240654
O81   O     O_3   0.344182 0.182800 0.095051 -0.483624
H65   H     H_    0.337486 0.210715 0.103765 0.405796
S12   S     S_3+6 0.776337 0.883649 0.963766 0.132639
O82   O     O_2   0.798355 0.829531 0.987207 -0.203507
O83   O     O_2   0.817108 0.903291 0.923161 -0.224136
O84   O     O_3   0.748454 0.912619 0.005326 -0.468528
H66   H     H_    0.774146 0.902725 0.018764 0.401314
S13   S     S_3+6 0.015614 0.384250 0.661797 0.038893
O85   O     O_2   0.057618 0.403819 0.625890 -0.234764
O86   O     O_2   0.030752 0.343331 0.704600 -0.251453
O87   O     O_3   0.003203 0.362186 0.634508 -0.595781
H67   H     H_    0.975046 0.350538 0.659751 0.359261
S14   S     S_3+6 0.048968 0.445693 0.359794 0.078570
O88   O     O_2   0.993687 0.459063 0.379667 -0.191117
O89   O     O_2   0.070173 0.416427 0.326431 -0.267919
O90   O     O_3   0.071959 0.412030 0.406154 -0.583278
H68   H     H_    0.081074 0.377397 0.409730 0.393147
S15   S     S_3+6 0.379954 0.668038 0.001573 0.037507
O91   O     O_2   0.391193 0.636210 0.048489 -0.248654
O92   O     O_2   0.337189 0.713710 0.009224 -0.247273
O93   O     O_3   0.364472 0.637109 0.986437 -0.582970
H69   H     H_    0.360004 0.658835 0.954267 0.357945
S16   S     S_3+6 0.447775 0.360477 0.044720 0.081266
O94   O     O_2   0.462784 0.380999 0.989829 -0.183456
O95   O     O_2   0.419169 0.327274 0.063160 -0.277051
O96   O     O_3   0.412162 0.406426 0.068895 -0.580735
H70   H     H_    0.377760 0.407293 0.080659 0.391574
S17   S     S_3+6 0.639139 0.966578 0.547007 0.073508
O97   O     O_2   0.595581 0.949162 0.581918 -0.286679
O98   O     O_2   0.671470 0.952320 0.574803 -0.243751
O99   O     O_3   0.618658 0.028018 0.522998 -0.476594
H71   H     H_    0.648679 0.036866 0.498757 0.355070
S18   S     S_3+6 0.360756 0.032602 0.453400 0.060754
O100  O     O_2   0.379571 0.977655 0.474419 -0.247745
O101  O     O_2   0.327853 0.046909 0.426184 -0.242373
O102  O     O_3   0.408777 0.053141 0.414225 -0.595149
H72   H     H_    0.426498 0.036034 0.389614 0.394873
S19   S     S_3+6 0.617069 0.987205 0.335748 0.031616
O103  O     O_2   0.598500 0.944786 0.371473 -0.240504
O104  O     O_2   0.658654 0.972756 0.292278 -0.254945
O105  O     O_3   0.638115 0.001149 0.362718 -0.599110
H73   H     H_    0.650605 0.028442 0.336983 0.368053
S20   S     S_3+6 0.384692 0.010671 0.667862 0.035635
O106  O     O_2   0.364636 0.001006 0.642604 -0.332807
O107  O     O_2   0.344396 0.021697 0.713470 -0.255077
O108  O     O_3   0.404564 0.059075 0.630237 -0.528426
H74   H     H_    0.374206 0.088191 0.631368 0.394389
S21   S     S_3+6 0.346487 0.517950 0.981146 0.098727
O109  O     O_2   0.383174 0.467174 0.985375 -0.152752
O110  O     O_2   0.306441 0.522317 0.968167 -0.263020
O111  O     O_3   0.374908 0.558566 0.935544 -0.489359
H75   H     H_    0.349367 0.591139 0.935975 0.356683
S22   S     S_3+6 0.642676 0.537199 0.975374 0.060254
O112  O     O_2   0.625155 0.513395 0.029987 -0.246693
O113  O     O_2   0.676760 0.562783 0.962246 -0.247749
O114  O     O_3   0.593859 0.578846 0.957204 -0.589916
H76   H     H_    0.576969 0.601230 0.976698 0.395737
S23   S     S_3+6 0.979825 0.347730 0.517894 0.094814
O115  O     O_2   0.984666 0.384096 0.467329 -0.157020
O116  O     O_2   0.966150 0.308313 0.522088 -0.261908
O117  O     O_3   0.933976 0.376133 0.558843 -0.488861
H77   H     H_    0.935888 0.351686 0.591205 0.350878
S24   S     S_3+6 0.964667 0.641357 0.545373 0.063058
O118  O     O_2   0.020188 0.621715 0.526612 -0.246234
O119  O     O_2   0.948309 0.675219 0.572482 -0.244575
O120  O     O_3   0.942587 0.594535 0.583992 -0.589272
H78   H     H_    0.958618 0.577013 0.609273 0.392441
C211  C     C_2   0.824100 0.540385 0.731549 0.935400
O121  O     O_2   0.796694 0.565470 0.707040 -0.583731
O122  O     O_R   0.812006 0.549494 0.773814 -0.761390
H79   H     H_    0.779432 0.576860 0.780683 0.367079
C212  C     C_2   0.104882 0.631032 0.244586 0.941507
O123  O     O_2   0.118276 0.644898 0.262722 -0.588320
O124  O     O_R   0.099431 0.659697 0.198552 -0.745826
H80   H     H_    0.108032 0.690613 0.183953 0.387018
C213  C     C_2   0.563426 0.717223 0.842436 0.967460
O125  O     O_2   0.592785 0.693762 0.814085 -0.596753
O126  O     O_R   0.574843 0.752259 0.843243 -0.725716
H81   H     H_    0.608683 0.754322 0.819234 0.387942
C214  C     C_2   0.626541 0.243945 0.112721 0.922601
O127  O     O_2   0.640527 0.263959 0.123917 -0.587772
O128  O     O_R   0.652904 0.195081 0.114092 -0.778879
H82   H     H_    0.682093 0.180269 0.125584 0.367367
C215  C     C_2   0.755674 0.878543 0.381811 0.953095
O129  O     O_2   0.795235 0.884749 0.353195 -0.578500
O130  O     O_R   0.735085 0.856833 0.372766 -0.741898
H83   H     H_    0.756852 0.847066 0.342038 0.376835
C216  C     C_2   0.243822 0.117041 0.621038 0.976086
O131  O     O_2   0.260322 0.137235 0.629253 -0.593216
O132  O     O_R   0.199873 0.107230 0.654237 -0.734367
H84   H     H_    0.185459 0.118287 0.683618 0.390733
C217  C     C_2   0.457871 0.175589 0.270938 0.936544
O133  O     O_2   0.432215 0.202181 0.296549 -0.591978
O134  O     O_R   0.448845 0.188207 0.228592 -0.762084
H85   H     H_    0.421043 0.220417 0.222645 0.363143
C218  C     C_2   0.553232 0.826166 0.718735 0.937653
O135  O     O_2   0.567720 0.818694 0.750019 -0.593460
O136  O     O_R   0.578382 0.794375 0.691220 -0.775177
H86   H     H_    0.607213 0.766091 0.701419 0.376902
C219  C     C_2   0.247123 0.608675 0.138887 0.948669
O137  O     O_2   0.208998 0.642805 0.134916 -0.574905
O138  O     O_R   0.269087 0.602478 0.169282 -0.767131
H87   H     H_    0.249434 0.627932 0.186662 0.378712
C220  C     C_2   0.755445 0.379386 0.877309 0.917001
O139  O     O_2   0.735472 0.371870 0.860013 -0.587671
O140  O     O_R   0.803399 0.349079 0.877830 -0.777720
H88   H     H_    0.817763 0.323014 0.862190 0.366423
C221  C     C_2   0.140180 0.248721 0.604951 0.950709
O141  O     O_2   0.135031 0.211786 0.639851 -0.580900
O142  O     O_R   0.172546 0.269648 0.596952 -0.762237
H89   H     H_    0.190231 0.250293 0.621904 0.383589
C222  C     C_2   0.886179 0.754309 0.374642 0.920582
O143  O     O_2   0.868800 0.735800 0.365416 -0.589382
O144  O     O_R   0.891488 0.800178 0.343580 -0.743540
H90   H     H_    0.879499 0.814243 0.315046 0.381981
C223  C     C_2   0.979468 0.380079 0.879134 0.933840
O145  O     O_2   0.024528 0.368798 0.863326 -0.561431
O146  O     O_R   0.957646 0.352255 0.880260 -0.779721
H91   H     H_    0.982836 0.324651 0.866182 0.372125
C224  C     C_2   0.115395 0.472546 0.157732 0.916573
O147  O     O_2   0.095695 0.441464 0.188168 -0.561683
O148  O     O_R   0.157909 0.470389 0.159588 -0.807807
H92   H     H_    0.167931 0.442323 0.188340 0.362462
C225  C     C_2   0.387092 0.882242 0.963645 0.936386
O149  O     O_2   0.369550 0.868727 0.008392 -0.569617
O150  O     O_R   0.364567 0.883988 0.936201 -0.785890
H93   H     H_    0.334955 0.872229 0.957490 0.372128
C226  C     C_2   0.470428 0.176486 0.091461 0.908579
O151  O     O_2   0.452074 0.207947 0.059787 -0.547246
O152  O     O_R   0.455049 0.184601 0.135229 -0.765016
H94   H     H_    0.428950 0.217868 0.136136 0.369255
C227  C     C_2   0.893609 0.976155 0.369510 0.950212
O153  O     O_2   0.880394 0.020970 0.355395 -0.546981
O154  O     O_R   0.898150 0.952407 0.341537 -0.758975
H95   H     H_    0.888641 0.976190 0.311195 0.375664
C228  C     C_2   0.142693 0.133730 0.469421 0.926927
O155  O     O_2   0.170139 0.121846 0.432505 -0.527878
O156  O     O_R   0.142166 0.174561 0.472688 -0.814681
H96   H     H_    0.166712 0.190366 0.442891 0.365080
C229  C     C_2   0.622925 0.026090 0.114349 0.931401
O157  O     O_2   0.637773 0.981268 0.127067 -0.558784
O158  O     O_R   0.648716 0.049942 0.113429 -0.780497
H97   H     H_    0.678155 0.026231 0.124917 0.370649
C230  C     C_2   0.545276 0.906952 0.821853 0.927303
O159  O     O_2   0.562978 0.939607 0.791866 -0.546322
O160  O     O_R   0.564521 0.862565 0.813253 -0.736235
H98   H     H_    0.592758 0.862127 0.781041 0.384972
C231  C     C_2   0.074158 0.647432 0.039538 0.937763
O161  O     O_2   0.072390 0.671922 0.998090 -0.553388
O162  O     O_R   0.072662 0.669216 0.067553 -0.771304
H99   H     H_    0.070825 0.704804 0.049327 0.372967
C232  C     C_2   0.821260 0.523056 0.915363 0.906092
O163  O     O_2   0.789309 0.538935 0.949014 -0.543367
O164  O     O_R   0.812074 0.539332 0.872111 -0.764841
H100  H     H_    0.777581 0.563623 0.873363 0.370781
C233  C     C_2   0.048875 0.061023 0.650186 0.942466
O165  O     O_2   0.012924 0.047651 0.678903 -0.552709
O166  O     O_R   0.075795 0.066315 0.668238 -0.774808
H101  H     H_    0.061657 0.058508 0.705126 0.373363
C234  C     C_2   0.908993 0.826122 0.522113 0.904196
O167  O     O_2   0.939538 0.793740 0.541827 -0.543242
O168  O     O_R   0.864566 0.819952 0.535124 -0.799437
H102  H     H_    0.862334 0.787028 0.560658 0.369643
S25   S     S_3+6 0.641400 0.004029 0.843192 0.141624
O169  O     O_2   0.596165 0.000551 0.846212 -0.218376
O170  O     O_2   0.626806 0.048536 0.855542 -0.258349
O171  O     O_3   0.680387 0.012136 0.785080 -0.410113
H103  H     H_    0.706206 0.020298 0.783911 0.377584
S26   S     S_3+6 0.328534 0.989673 0.077319 0.117439
O172  O     O_2   0.280136 0.987446 0.086419 -0.168271
O173  O     O_2   0.358055 0.997494 0.023791 -0.344869
O174  O     O_3   0.360039 0.936436 0.110379 -0.477070
H104  H     H_    0.367845 0.911670 0.096713 0.385696
S27   S     S_3+6 0.999074 0.843195 0.636086 0.125578
O175  O     O_2   0.991920 0.851592 0.590891 -0.281316
O176  O     O_2   0.046225 0.851091 0.621857 -0.250611
O177  O     O_3   0.005570 0.784403 0.671691 -0.435733
H105  H     H_    0.032282 0.764848 0.649938 0.399099
S28   S     S_3+6 0.996224 0.068912 0.327943 0.130590
O178  O     O_2   0.996072 0.077544 0.279123 -0.132133
O179  O     O_2   0.009137 0.014701 0.354783 -0.310904
O180  O     O_3   0.939364 0.097519 0.360699 -0.469824
H106  H     H_    0.943255 0.122090 0.366207 0.367957
S29   S     S_3+6 0.842335 0.638868 0.999789 0.126252
O181  O     O_2   0.849300 0.593542 0.993571 -0.278947
O182  O     O_2   0.851374 0.624986 0.045814 -0.250582
O183  O     O_3   0.783307 0.675833 0.006838 -0.435632
H107  H     H_    0.763223 0.654919 0.033889 0.398490
S30   S     S_3+6 0.114561 0.336167 0.973123 0.122709
O184  O     O_2   0.068659 0.359206 0.959999 -0.308766
O185  O     O_2   0.140461 0.373058 0.949152 -0.246685
O186  O     O_3   0.153656 0.289983 0.949801 -0.427965
H108  H     H_    0.156847 0.304452 0.914699 0.399095
S31   S     S_3+6 0.008955 0.369665 0.155723 0.129757
O187  O     O_2   0.011740 0.418747 0.142724 -0.286808
O188  O     O_2   0.961844 0.376788 0.152444 -0.244860
O189  O     O_3   0.006410 0.337700 0.214269 -0.423237
H109  H     H_    0.978445 0.359514 0.233229 0.397526
S32   S     S_3+6 0.031995 0.658614 0.882391 0.125382
O190  O     O_2   0.053797 0.628627 0.922833 -0.291744
O191  O     O_2   0.046258 0.626903 0.853831 -0.245976
O192  O     O_3   0.056878 0.703421 0.843401 -0.431400
H110  H     H_    0.093082 0.686422 0.833824 0.396260
S33   S     S_3+6 0.156476 0.014254 0.372561 0.128559
O193  O     O_2   0.140975 0.019208 0.421240 -0.306345
O194  O     O_2   0.155355 0.965954 0.380532 -0.234612
O195  O     O_3   0.215422 0.012878 0.341277 -0.414734
H111  H     H_    0.233941 0.986587 0.363763 0.398353
S34   S     S_3+6 0.885810 0.030393 0.660708 0.119975
O196  O     O_2   0.928032 0.050308 0.630478 -0.293417
O197  O     O_2   0.855991 0.046723 0.629586 -0.246321
O198  O     O_3   0.848141 0.054789 0.706246 -0.440725
H112  H     H_    0.839816 0.090724 0.689845 0.394551
S35   S     S_3+6 0.363899 0.157676 0.005760 0.132657
O199  O     O_2   0.413470 0.149228 0.004690 -0.287524
O200  O     O_2   0.370386 0.150183 0.961418 -0.230869
O201  O     O_3   0.328570 0.216309 0.002103 -0.430641
H113  H     H_    0.348551 0.236043 0.972621 0.400802
S36   S     S_3+6 0.659784 0.881046 0.030561 0.124616
O202  O     O_2   0.629850 0.921201 0.053228 -0.296364
O203  O     O_2   0.627656 0.853232 0.043959 -0.248112
O204  O     O_3   0.705098 0.841088 0.054602 -0.430403
H114  H     H_    0.688130 0.831438 0.090527 0.396935

loop_
_geom_bond_atom_site_label_1
_geom_bond_atom_site_label_2
_geom_bond_distance
_ccdc_geom_bond_type
C84   C96   1.409287 A    
S13   O87   1.679424 S    
C213  O125  1.223127 D    
C46   H16   1.084623 S    
S17   O98   1.503478 D    
C53   C65   1.396711 A    
O124  H80   1.013788 S    
C60   C72   1.402361 A    
C231  O161  1.223649 D    
C60   C222  1.486001 S    
S29   O181  1.502786 D    
C184  C207  1.407663 A    
O26   C158  1.280502 A    
C26   C45   1.394332 A    
C24   C35   1.402143 A    
C160  O48   1.276570 A    
O130  H83   1.013902 S    
C58   C220  1.487852 S    
C139  C148  1.395150 A    
C41   H11   1.084411 S    
C129  C231  1.491307 S    
C58   C118  1.413110 A    
C191  S29   1.791483 S    
S14   O89   1.504396 D    
C64   C76   1.404780 A    
C22   C31   1.401707 A    
C193  S31   1.792522 S    
C16   C43   1.399818 A    
C225  O150  1.398760 S    
C18   C114  1.472371 S    
C137  C149  1.395517 A    
S30   O185  1.503031 D    
C100  C112  1.401498 A    
C77   C159  1.465784 S    
S33   O193  1.501383 D    
C128  C153  1.419720 A    
O12   Zn6   2.030361 S    
S7    O68   1.502281 D    
S24   O120  1.680704 S    
C51   C213  1.482001 S    
C56   C68   1.388976 A    
O29   Zn11  2.031760 S    
S26   O174  1.681659 S    
C36   H6    1.081981 S    
C174  N4    1.346047 A    
S10   O77   1.503606 D    
O189  H109  0.990493 S    
C223  O146  1.398699 S    
C178  C208  1.419468 A    
S24   O119  1.503613 D    
S33   O194  1.503452 D    
S32   O190  1.501531 D    
C30   C156  1.471434 S    
S1    O51   1.682303 S    
C92   C104  1.391474 A    
C185  C206  1.408674 A    
S10   O78   1.682524 S    
O1    Zn1   2.030571 S    
C196  S34   1.791903 S    
C166  O42   1.274242 A    
S15   O92   1.503332 D    
O3    Zn3   2.017031 S    
C58   C70   1.402347 A    
C143  H53   1.082911 S    
O24   Zn5   2.007957 S    
C221  O142  1.398334 S    
C71   H29   1.083847 S    
C132  C155  1.423552 A    
C162  O46   1.273897 A    
C69   H27   1.083625 S    
O9    C2    1.278401 A    
C185  S11   1.785088 S    
C57   C219  1.484052 S    
C170  N6    1.358213 A    
C86   C98   1.392988 A    
S7    O69   1.681707 S    
C59   C119  1.419660 A    
C20   C116  1.458008 S    
C214  O127  1.223400 D    
C131  C233  1.493758 S    
C181  S7    1.783493 S    
C29   C48   1.394492 A    
C14   C45   1.397487 A    
C25   C151  1.467283 S    
C10   C147  1.436129 S    
S23   O117  1.682255 S    
S27   O175  1.502613 D    
S6    O66   1.682685 S    
O7    C4    1.293039 A    
C55   C217  1.488513 S    
C44   H14   1.084848 S    
S12   O83   1.503623 D    
O4    Zn4   2.017030 S    
C54   C66   1.396739 A    
C217  O134  1.397964 S    
C97   C109  1.399817 A    
O25   C157  1.273979 A    
S36   O203  1.503447 D    
S31   O189  1.679802 S    
C16   C112  1.471385 S    
S32   O192  1.680144 S    
C198  C199  1.431211 A    
C180  C192  1.413014 A    
C220  O140  1.398651 S    
O192  H110  0.990523 S    
C130  C142  1.393542 A    
C28   C43   1.395910 A    
O20   C9    1.281957 A    
O177  H105  0.990507 S    
O6    C6    1.261404 A    
C126  C228  1.490651 S    
S16   O95   1.504577 D    
O166  H101  1.013874 S    
C85   C97   1.392501 A    
C127  C154  1.419442 A    
C83   C95   1.423604 A    
S22   O112  1.503016 D    
C13   C31   1.398530 A    
S36   O204  1.680120 S    
Zn11  O41   2.027471 S    
S27   O177  1.681119 S    
C131  C143  1.405158 A    
C198  S36   1.790815 S    
C170  N2    1.350948 A    
S2    O52   1.502921 D    
C87   S15   1.770458 S    
C56   C116  1.414871 A    
C82   C164  1.462083 S    
C186  C198  1.407154 A    
C163  O37   1.292661 A    
O126  H81   1.013787 S    
C32   H2    1.082027 S    
O10   Zn2   2.036540 S    
S18   O100  1.502934 D    
C23   C42   1.411797 A    
O132  H84   1.013704 S    
O30   Zn12  2.031763 S    
C190  C202  1.407036 A    
O35   Zn10  2.040988 S    
C100  H34   1.081280 S    
C125  C155  1.419752 A    
C61   C73   1.399908 A    
O36   Zn9   2.040985 S    
O150  H93   1.013816 S    
C174  N6    1.352944 A    
C15   C44   1.387632 A    
C184  S10   1.783112 S    
C169  N5    1.348330 A    
O87   H67   0.990391 S    
C169  N1    1.348523 A    
O201  H113  0.990507 S    
C222  O143  1.223340 D    
O23   C12   1.276401 A    
O6    Zn6   2.037536 S    
S29   O183  1.681037 S    
O66   H60   0.990520 S    
C212  O124  1.398438 S    
O7    Zn3   2.018246 S    
O34   Zn11  2.031276 S    
C127  C229  1.490626 S    
O8    Zn4   2.018245 S    
O96   H70   0.990459 S    
C27   C153  1.456422 S    
C168  O40   1.268785 A    
O60   H58   0.990525 S    
C138  C150  1.388616 A    
C51   C111  1.408254 A    
O12   C5    1.269459 A    
C121  C223  1.490519 S    
Zn12  O45   2.031702 S    
O102  H72   0.990574 S    
C165  O41   1.288694 A    
S15   O91   1.502336 D    
S5    O63   1.682408 S    
C28   C40   1.393962 A    
S21   O110  1.503832 D    
C105  H39   1.078752 S    
S35   O199  1.500946 D    
C213  O126  1.397800 S    
C30   C42   1.397859 A    
C161  O45   1.270370 A    
O34   C166  1.273375 A    
C231  O162  1.398511 S    
C122  C224  1.488217 S    
C216  O132  1.398371 S    
O26   Zn8   2.038636 S    
O171  H103  0.990835 S    
C66   C78   1.400792 A    
O30   C162  1.275172 A    
C108  C120  1.403897 A    
O90   H68   0.990474 S    
C97   H31   1.083649 S    
C185  C197  1.399297 A    
O69   H61   0.990419 S    
C139  H49   1.080600 S    
C31   H1    1.083659 S    
O75   H63   0.990428 S    
C74   C86   1.409428 A    
C67   H25   1.084621 S    
O16   C10   1.278494 A    
C144  C149  1.389882 A    
C95   C107  1.392866 A    
O21   Zn2   2.012694 S    
S21   O109  1.498033 D    
C79   C167  1.460793 S    
C181  C210  1.405682 A    
O128  H82   1.013820 S    
C194  C203  1.431047 A    
S11   O81   1.682516 S    
C92   S20   1.767484 S    
C141  H51   1.081365 S    
C69   C81   1.406037 A    
C43   H13   1.084595 S    
S22   O114  1.679343 S    
O27   C159  1.279200 A    
O35   C167  1.278175 A    
C7    C146  1.461830 S    
S26   O173  1.503050 D    
C60   C120  1.413225 A    
C47   H17   1.084240 S    
C19   C34   1.400743 A    
Zn10  O47   2.015144 S    
C20   C33   1.395731 A    
C4    C200  1.479521 S    
C27   C44   1.391117 A    
C21   C32   1.406800 A    
S2    O54   1.680660 S    
C133  H43   1.080925 S    
O9    Zn1   2.036540 S    
C61   H19   1.084643 S    
O136  H86   1.013952 S    
S3    O56   1.500495 D    
C194  S32   1.792372 S    
C121  C133  1.398246 A    
S18   O102  1.679880 S    
C177  C207  1.404262 A    
C54   C216  1.484923 S    
S25   O171  1.681365 S    
O93   H69   0.990367 S    
C193  C204  1.426115 A    
C107  C119  1.403420 A    
C93   S21   1.780751 S    
C189  S27   1.793254 S    
O51   H55   0.990487 S    
C129  C152  1.419680 A    
Zn10  O40   2.032787 S    
C183  C208  1.406395 A    
C38   H8    1.081668 S    
C75   C87   1.404770 A    
O117  H77   0.990607 S    
C124  C136  1.393986 A    
O138  H87   1.013909 S    
C186  C205  1.406062 A    
C49   C61   1.399580 A    
O2    Zn2   2.030571 S    
S4    O59   1.502806 D    
C219  O137  1.222718 D    
C66   H24   1.082283 S    
C125  C227  1.490009 S    
S9    O75   1.679891 S    
C51   C63   1.388725 A    
S6    O65   1.503192 D    
O160  H98   1.013659 S    
O2    C2    1.276489 A    
C94   C106  1.388837 A    
C1    C203  1.476766 S    
S8    O72   1.682624 S    
C37   H7    1.084479 S    
O13   Zn2   2.008649 S    
C88   C100  1.389137 A    
C126  C156  1.425932 A    
C171  C207  1.452259 S    
C70   H28   1.084403 S    
O10   C1    1.274147 A    
C172  C208  1.464037 S    
O105  H73   0.990459 S    
S19   O105  1.679977 S    
C87   C99   1.391093 A    
C86   S14   1.764524 S    
O146  H91   1.013828 S    
C130  C232  1.486179 S    
C21   C117  1.498437 S    
C138  H48   1.084113 S    
C227  O153  1.223514 D    
C108  H42   1.080834 S    
C72   C84   1.403540 A    
S15   O93   1.680603 S    
S4    O60   1.680687 S    
C84   C166  1.463382 S    
S35   O201  1.679895 S    
C39   H9    1.084643 S    
S13   O86   1.503494 D    
C230  O160  1.397273 S    
C105  C117  1.404601 A    
C123  C153  1.420435 A    
C24   C120  1.474596 S    
S34   O196  1.502108 D    
C13   C109  1.462167 S    
C123  C225  1.490285 S    
C102  H36   1.083044 S    
C78   C160  1.464147 S    
C229  O157  1.223514 D    
C6    C202  1.466023 S    
C98   C110  1.400208 A    
Zn11  O46   2.031705 S    
C132  C144  1.394047 A    
C18   C47   1.396200 A    
C27   C39   1.393468 A    
O3    C3    1.286897 A    
C80   C92   1.405910 A    
C180  C210  1.409838 A    
C93   C105  1.393213 A    
C91   C103  1.393556 A    
C63   H21   1.084777 S    
C88   S16   1.765573 S    
C232  O164  1.398341 S    
C106  H40   1.079967 S    
C176  S2    1.790810 S    
S33   O195  1.679960 S    
C19   C115  1.465030 S    
C188  S26   1.783506 S    
O19   Zn4   2.009921 S    
C157  O43   1.269334 A    
C211  O121  1.223381 D    
C25   C37   1.395405 A    
C197  S35   1.790672 S    
O57   H57   0.990485 S    
O63   H59   0.990480 S    
C233  O165  1.223744 D    
C26   C152  1.477891 S    
S32   O191  1.503464 D    
C18   C36   1.401085 A    
O162  H99   1.013842 S    
C12   C149  1.452751 S    
O27   Zn9   2.021372 S    
C226  O151  1.223326 D    
C73   C161  1.455885 S    
C83   C165  1.484589 S    
C187  C199  1.428308 A    
C101  H35   1.082695 S    
C50   C62   1.403510 A    
C181  C193  1.398118 A    
C218  O135  1.220164 D    
C15   C111  1.446508 S    
C21   C38   1.412366 A    
C104  H38   1.083391 S    
C183  C195  1.400906 A    
O111  H75   0.990529 S    
O78   H64   0.990470 S    
C14   C110  1.471006 S    
C42   H12   1.081878 S    
C103  H37   1.083638 S    
C159  O47   1.274397 A    
S19   O103  1.502148 D    
C126  C138  1.397882 A    
C179  C191  1.397432 A    
C190  S28   1.786400 S    
C234  O167  1.223275 D    
C95   S23   1.780708 S    
O154  H95   1.013815 S    
C30   C47   1.391746 A    
S23   O116  1.503759 D    
C81   C93   1.422757 A    
S20   O106  1.501891 D    
C176  C188  1.417544 A    
S9    O73   1.503370 D    
O33   Zn12  2.031275 S    
C228  O156  1.397564 S    
C195  S33   1.793930 S    
C59   C221  1.482654 S    
S8    O70   1.503390 D    
C130  C151  1.422636 A    
S5    O61   1.503405 D    
O11   C6    1.284265 A    
C96   C108  1.392434 A    
S31   O188  1.503658 D    
C2    C204  1.481073 S    
S28   O179  1.502794 D    
C183  S9    1.786463 S    
C177  S3    1.783318 S    
C140  H50   1.083565 S    
C158  O44   1.276478 A    
C224  O148  1.398314 S    
O33   C165  1.269955 A    
C212  O123  1.223335 D    
O114  H76   0.990540 S    
Zn7   O37   2.014755 S    
O142  H89   1.013897 S    
S17   O99   1.681107 S    
C57   C69   1.404747 A    
C5    C201  1.475475 S    
S34   O198  1.680084 S    
C175  S1    1.782000 S    
C59   C71   1.402965 A    
S22   O113  1.503554 D    
S27   O176  1.503764 D    
C196  C201  1.428689 A    
C102  C114  1.403507 A    
Zn8   O38   2.014756 S    
S28   O180  1.683685 S    
C26   C38   1.398410 A    
C98   H32   1.083501 S    
C63   C75   1.395566 A    
C90   S18   1.771937 S    
S13   O85   1.502140 D    
Zn7   O44   2.028175 S    
C76   C158  1.465754 S    
C175  C205  1.403713 A    
C11   C150  1.455927 S    
C178  S4    1.790844 S    
C85   S13   1.770769 S    
O20   Zn3   2.009910 S    
C76   C88   1.406922 A    
C81   C163  1.485908 S    
O183  H107  0.990498 S    
O108  H74   0.990417 S    
O22   Zn1   2.012683 S    
C187  S25   1.790751 S    
O19   C10   1.276766 A    
C182  C209  1.405676 A    
C171  N1    1.348587 A    
C180  S6    1.786191 S    
S30   O184  1.501111 D    
S3    O57   1.682515 S    
S18   O101  1.503610 D    
C128  C230  1.486761 S    
C173  N3    1.350536 A    
O174  H104  0.990721 S    
O134  H85   1.013835 S    
C70   C82   1.404691 A    
O54   H56   0.990545 S    
C141  C146  1.397083 A    
C133  C145  1.395238 A    
C171  N3    1.350768 A    
C17   C48   1.398631 A    
S14   O88   1.502024 D    
C189  C201  1.430412 A    
O198  H112  0.990521 S    
C62   H20   1.084603 S    
S2    O53   1.503266 D    
C219  O138  1.398405 S    
O32   C164  1.276013 A    
C52   C64   1.405666 A    
S29   O182  1.503693 D    
O99   H71   0.990560 S    
C101  C113  1.406415 A    
C143  C150  1.396438 A    
C137  H47   1.082379 S    
O17   Zn6   2.009564 S    
C91   S19   1.767088 S    
C177  C189  1.394640 A    
C135  C147  1.391145 A    
O13   C7    1.276606 A    
C136  H46   1.080805 S    
O14   C8    1.273801 A    
C227  O154  1.398656 S    
Zn9   O48   2.015144 S    
S5    O62   1.501118 D    
C140  C147  1.388721 A    
C176  C206  1.421996 A    
C56   C218  1.481759 S    
C77   C89   1.409703 A    
S12   O82   1.503437 D    
C72   H30   1.084573 S    
S1    O49   1.503194 D    
C188  C200  1.411393 A    
C20   C39   1.393813 A    
C62   C74   1.402516 A    
O14   Zn1   2.008660 S    
C229  O158  1.398665 S    
S36   O202  1.501167 D    
C64   H22   1.084402 S    
C173  C209  1.452740 S    
S25   O169  1.502126 D    
C57   C117  1.420571 A    
C80   C168  1.443658 S    
O15   Zn4   2.012335 S    
C75   C157  1.436508 S    
O16   Zn3   2.012347 S    
C17   C113  1.477006 S    
Zn8   O43   2.028176 S    
C123  C135  1.394388 A    
S17   O97   1.501975 D    
S11   O80   1.502973 D    
O8    C3    1.278150 A    
S16   O94   1.502184 D    
C106  C118  1.403789 A    
O17   C11   1.277171 A    
O18   C12   1.275291 A    
C121  C151  1.418474 A    
C223  O145  1.223487 D    
O28   Zn10  2.021373 S    
C211  O122  1.398226 S    
C136  C148  1.390727 A    
C226  O152  1.397962 S    
S24   O118  1.502953 D    
C233  O166  1.398373 S    
C179  C209  1.405869 A    
C55   C67   1.401061 A    
S14   O90   1.682791 S    
C216  O131  1.223308 D    
C99   C111  1.399319 A    
O81   H65   0.990452 S    
C29   C41   1.396599 A    
S23   O115  1.498207 D    
C228  O155  1.223374 D    
C124  C154  1.421425 A    
S3    O55   1.503373 D    
C90   C102  1.395192 A    
O148  H92   1.013764 S    
C128  C140  1.386595 A    
O23   Zn6   2.007965 S    
S30   O186  1.680112 S    
C172  N4    1.341459 A    
C186  S12   1.783040 S    
S25   O170  1.504049 D    
S11   O79   1.502978 D    
O144  H90   1.013811 S    
C65   C77   1.402360 A    
C169  C205  1.450173 S    
C230  O159  1.223431 D    
O32   Zn7   2.019491 S    
C67   C79   1.400412 A    
O180  H106  0.990096 S    
C48   H18   1.084042 S    
C192  C204  1.431945 A    
C22   C118  1.473537 S    
C23   C119  1.495942 S    
S9    O74   1.503057 D    
S16   O96   1.683220 S    
C50   C110  1.414430 A    
C221  O141  1.222261 D    
C134  C146  1.390735 A    
O11   Zn5   2.030365 S    
C182  C194  1.406368 A    
C34   H4    1.083916 S    
O156  H96   1.013741 S    
C40   H10   1.084622 S    
C8    C145  1.451424 S    
C54   C114  1.412523 A    
C49   C211  1.488620 S    
O28   C160  1.276567 A    
S19   O104  1.503547 D    
O1    C1    1.278490 A    
C89   C101  1.395473 A    
C134  H44   1.083404 S    
C79   C91   1.408404 A    
C192  S30   1.791615 S    
C173  N5    1.348732 A    
O4    C4    1.271608 A    
C74   C162  1.466775 S    
S28   O178  1.502931 D    
S21   O111  1.682092 S    
O5    C5    1.283552 A    
C96   S24   1.772999 S    
C122  C134  1.399561 A    
O21   C8    1.275894 A    
O24   C11   1.276015 A    
C225  O149  1.223488 D    
O22   C7    1.278382 A    
C68   H26   1.085423 S    
C3    C199  1.476043 S    
C33   H3    1.084303 S    
S34   O197  1.503320 D    
C22   C37   1.400277 A    
O18   Zn5   2.009569 S    
C175  C187  1.392458 A    
C217  O133  1.223393 D    
O195  H111  0.990522 S    
C170  C206  1.476849 S    
C14   C32   1.400262 A    
O164  H100  1.013818 S    
C35   H5    1.083732 S    
C15   C33   1.394029 A    
O186  H108  0.990550 S    
C16   C34   1.401536 A    
C49   C109  1.414358 A    
C29   C155  1.471856 S    
C132  C234  1.486148 S    
C142  H52   1.083516 S    
C135  H45   1.082792 S    
C167  O39   1.272529 A    
C45   H15   1.084392 S    
C52   C112  1.413793 A    
C71   C83   1.405526 A    
C215  O129  1.222573 D    
C144  H54   1.083306 S    
C197  C200  1.417973 A    
C129  C141  1.405604 A    
C234  O168  1.398719 S    
O168  H102  1.013780 S    
C19   C40   1.395662 A    
C222  O144  1.398129 S    
C53   C215  1.485004 S    
C25   C46   1.393313 A    
C23   C36   1.405594 A    
S1    O50   1.501431 D    
C124  C226  1.486585 S    
C131  C156  1.419899 A    
C104  C116  1.400615 A    
C107  H41   1.078995 S    
C50   C212  1.486835 S    
C195  C202  1.420278 A    
O31   C163  1.274832 A    
C191  C203  1.428570 A    
S26   O172  1.503327 D    
O120  H78   0.990571 S    
C103  C115  1.399701 A    
C182  S8    1.783006 S    
C220  O139  1.223380 D    
S10   O76   1.503402 D    
C89   S17   1.773489 S    
C65   H23   1.082480 S    
O72   H62   0.990474 S    
O140  H88   1.013811 S    
C9    C148  1.455036 S    
C99   H33   1.083668 S    
O5    Zn5   2.037531 S    
C78   C90   1.411733 A    
C215  O130  1.398467 S    
C172  N2    1.354789 A    
C82   C94   1.410140 A    
C94   S22   1.775041 S    
C122  C152  1.425377 A    
C142  C145  1.390093 A    
O31   Zn8   2.019490 S    
C218  O136  1.398350 S    
O204  H114  0.990525 S    
S7    O67   1.502714 D    
C164  O38   1.279339 A    
C55   C115  1.415160 A    
C224  O147  1.223117 D    
C24   C41   1.399252 A    
C53   C113  1.414089 A    
C28   C154  1.468836 S    
C232  O163  1.223271 D    
S4    O58   1.503140 D    
O84   H66   0.990486 S    
S20   O107  1.503855 D    
C179  S5    1.783708 S    
O36   C168  1.274407 A    
S6    O64   1.503357 D    
C52   C214  1.488296 S    
C17   C35   1.403429 A    
C184  C196  1.409049 A    
C127  C139  1.400369 A    
C174  C210  1.456892 S    
O122  H79   1.013840 S    
S8    O71   1.503552 D    
O25   Zn7   2.038637 S    
C125  C137  1.400130 A    
O29   C161  1.273090 A    
S12   O84   1.682532 S    
Zn9   O39   2.032790 S    
S31   O187  1.501864 D    
C68   C80   1.395270 A    
C214  O128  1.398549 S    
C13   C46   1.393796 A    
Zn12  O42   2.027469 S    
C178  C190  1.408700 A    
S35   O200  1.503704 D    
C73   C85   1.408566 A    
O158  H97   1.013829 S    
O15   C9    1.282613 A    
O152  H94   1.013802 S    
S20   O108  1.681637 S    
