data_mof_unit_27456.cif
_audit_creation_date              2012-12-11T15:39:29-0500
_audit_creation_method            fapswitch 2.2
_symmetry_space_group_name_H-M    P1
_symmetry_Int_Tables_number       1
_space_group_crystal_system       triclinic
_cell_length_a                    17.335078
_cell_length_b                    24.351567
_cell_length_c                    14.967353
_cell_angle_alpha                 89.815029
_cell_angle_beta                  125.866275
_cell_angle_gamma                 89.997809
_cell_volume                      5120.19493809

loop_
_atom_site_label
_atom_site_type_symbol
_atom_type_description
_atom_site_fract_x
_atom_site_fract_y
_atom_site_fract_z
_atom_type_partial_charge
C1    C     C_R   0.355486 0.347446 0.908494 -0.112483
C2    C     C_R   0.434201 0.500090 0.632116 0.040123
C3    C     C_R   0.184189 0.856145 0.002795 0.047364
C4    C     C_3   0.019498 0.362740 0.683293 0.349372
C5    C     C_3   0.093908 0.319334 0.755128 -0.954245
C6    C     C_3   0.788194 0.433923 0.558431 0.261744
C7    C     C_3   0.717804 0.387799 0.528378 -0.892522
C8    C     C_3   0.580505 0.912693 0.816472 0.233519
C9    C     C_3   0.607687 0.856900 0.873230 -0.803426
C10   C     C_3   0.314504 0.901495 0.557943 0.260275
C11   C     C_3   0.268450 0.845080 0.530894 -0.849335
C12   C     C_R   0.066771 0.999601 0.366925 0.042347
C13   C     C_R   0.024379 0.999912 0.697918 0.028644
C14   C     C_R   0.174742 0.500599 0.727868 0.145909
C15   C     C_R   0.802495 0.500699 0.368519 0.135961
C16   C     C_R   0.674511 0.000531 0.727157 0.123672
C17   C     C_R   0.302620 0.999141 0.369775 0.147014
C18   C     C_R   0.026535 0.553019 0.612533 0.076542
C19   C     C_R   0.933660 0.553181 0.522426 0.091828
C20   C     C_R   0.522198 0.051927 0.623747 0.095283
C21   C     C_R   0.690565 0.375573 0.092393 -0.128230
C22   C     C_R   0.428611 0.051001 0.533090 0.083517
C23   C     C_R   0.071207 0.503971 0.667953 -0.131174
C24   C     C_R   0.882113 0.504517 0.484884 -0.168310
C25   C     C_R   0.571501 0.002866 0.673335 -0.218396
C26   C     C_R   0.381812 0.001048 0.487768 -0.209796
C27   C     C_R   0.013700 0.457910 0.650944 0.386887
C28   C     C_R   0.914798 0.459771 0.559318 0.297617
C29   C     C_R   0.516506 0.954925 0.651048 0.393830
C30   C     C_R   0.421535 0.953628 0.555953 0.400428
C31   C     C_3   0.950632 0.595621 0.463329 -0.431453
C32   C     C_R   0.852045 0.848562 0.907626 -0.152531
C33   C     C_3   0.053173 0.595383 0.561830 -0.447474
C34   C     C_3   0.441790 0.099331 0.481208 -0.427436
C35   C     C_3   0.544359 0.100079 0.579657 -0.434622
C36   C     C_R   0.287208 0.767234 0.899804 -0.146194
C37   C     C_R   0.843558 0.684123 0.089976 -0.129881
C38   C     C_R   0.775445 0.262542 0.897453 -0.139830
C39   C     C_R   0.338597 0.191292 0.097793 -0.131336
C40   C     C_R   0.731375 0.309296 0.897385 -0.175007
C41   C     C_R   0.395207 0.231321 0.097805 -0.163627
C42   C     C_R   0.238034 0.810802 0.902008 -0.183517
C43   C     C_R   0.188761 0.872845 0.094061 -0.131969
C44   C     C_R   0.893212 0.729003 0.090772 -0.150260
C45   C     C_R   0.758790 0.332158 0.997525 0.138947
C46   C     C_R   0.363494 0.257803 0.998606 0.129875
C47   C     C_R   0.257761 0.827530 0.002564 0.142232
C48   C     C_R   0.853767 0.759808 0.993953 0.131721
C49   C     C_R   0.445184 0.652738 0.089811 -0.154120
C50   C     C_R   0.596928 0.624277 0.907771 -0.106138
C51   C     C_R   0.941629 0.151789 0.090310 -0.136684
C52   C     C_R   0.089650 0.134691 0.909259 -0.114460
C53   C     C_R   0.844604 0.315507 0.095550 -0.175103
C54   C     C_R   0.388766 0.685829 0.997658 0.006758
C55   C     C_R   0.289736 0.234561 0.898686 -0.166886
C56   C     C_R   0.341930 0.810068 0.101266 -0.174605
C57   C     C_R   0.775746 0.739261 0.893582 -0.182166
C58   C     C_R   0.395060 0.768274 0.098880 -0.153011
C59   C     C_R   0.725071 0.696005 0.893717 -0.150693
C60   C     C_R   0.893186 0.270274 0.094568 -0.148915
C61   C     C_R   0.231089 0.196496 0.899060 -0.159746
C62   C     C_R   0.361774 0.742726 0.998276 0.163439
C63   C     C_R   0.753197 0.672478 0.994091 0.154336
C64   C     C_R   0.854233 0.240999 0.996207 0.165057
C65   C     C_R   0.683768 0.641896 0.999336 -0.029415
C66   C     C_R   0.249445 0.180045 0.999725 0.156820
C67   C     C_R   0.394072 0.549686 0.464897 -0.166739
C68   C     C_R   0.396901 0.549596 0.374372 -0.164585
C69   C     C_R   0.090207 0.049066 0.612235 -0.168199
C70   C     C_R   0.105495 0.048847 0.531630 -0.169100
C71   C     C_R   0.409296 0.499878 0.337195 0.137584
C72   C     C_R   0.402624 0.500015 0.517652 0.135945
C73   C     C_R   0.098270 0.999194 0.480338 0.125794
C74   C     C_R   0.069313 0.999543 0.641530 0.150570
C75   C     C_R   0.398173 0.450184 0.375909 -0.158510
C76   C     C_R   0.883342 0.184461 0.997792 -0.004886
C77   C     C_R   0.395235 0.450234 0.466310 -0.166373
C78   C     C_R   0.099904 0.949367 0.528248 -0.197387
C79   C     C_R   0.085950 0.949549 0.609661 -0.155995
C80   C     C_R   0.481584 0.453878 0.249763 -0.125027
C81   C     C_R   0.450149 0.454484 0.695974 -0.143147
C82   C     C_R   0.049282 0.953955 0.303136 -0.125800
C83   C     C_R   0.998754 0.954264 0.729525 -0.126546
C84   C     C_R   0.233274 0.545910 0.758196 -0.137947
C85   C     C_R   0.752822 0.545517 0.304622 -0.144388
C86   C     C_R   0.732853 0.045924 0.757155 -0.124882
C87   C     C_R   0.175999 0.152144 0.001581 -0.016177
C88   C     C_R   0.252947 0.044574 0.306187 -0.138004
C89   C     C_R   0.481521 0.545967 0.249613 -0.125541
C90   C     C_R   0.450153 0.545636 0.695742 -0.127670
C91   C     C_R   0.049149 0.045569 0.303203 -0.121596
C92   C     C_R   0.000210 0.045737 0.730580 -0.107551
C93   C     C_R   0.230575 0.454297 0.750358 -0.100123
C94   C     C_R   0.756242 0.454642 0.305066 -0.132831
C95   C     C_R   0.730650 0.954294 0.749578 -0.120427
C96   C     C_R   0.255756 0.953876 0.304186 -0.135833
C97   C     C_R   0.359964 0.653567 0.906786 0.149541
C98   C     C_R   0.451516 0.499897 0.276599 0.041070
C99   C     C_R   0.684334 0.632122 0.091917 0.187756
C100  C     C_R   0.857681 0.153080 0.907056 0.145869
C101  C     C_R   0.179560 0.136663 0.093515 0.181283
C102  C     C_R   0.446246 0.347275 0.091343 -0.127283
C103  C     C_R   0.597523 0.376396 0.907866 -0.128263
C104  C     C_R   0.942066 0.848092 0.090978 -0.108851
C105  C     C_R   0.093390 0.868184 0.910294 -0.123739
C106  C     C_R   0.388121 0.314953 0.999696 0.058825
C107  C     C_R   0.687803 0.362942 0.999921 0.046098
C108  C     C_R   0.881189 0.816592 0.998262 0.045104
H1    H     H_    0.319772 0.334061 0.824314 0.074137
H2    H     H_    0.101709 0.579377 0.542149 0.205531
H3    H     H_    0.401604 0.135985 0.477097 0.209519
H4    H     H_    0.593591 0.090032 0.557229 0.208870
H5    H     H_    0.257478 0.749835 0.820357 0.157268
H6    H     H_    0.871654 0.662052 0.166061 0.143146
H7    H     H_    0.739380 0.240662 0.820864 0.149962
H8    H     H_    0.361621 0.172627 0.175246 0.147662
H9    H     H_    0.668166 0.322092 0.819116 0.114178
H10   H     H_    0.457546 0.244928 0.176066 0.119001
H11   H     H_    0.177942 0.826452 0.823897 0.111486
H12   H     H_    0.749189 0.369795 0.177853 0.094433
H13   H     H_    0.957384 0.741829 0.168205 0.117533
H14   H     H_    0.869976 0.334136 0.173775 0.114170
H15   H     H_    0.269298 0.250269 0.820034 0.111157
H16   H     H_    0.362637 0.824896 0.180471 0.121023
H17   H     H_    0.745801 0.760059 0.815933 0.123359
H18   H     H_    0.455493 0.752601 0.176691 0.121221
H19   H     H_    0.659030 0.685799 0.816162 0.118176
H20   H     H_    0.955723 0.255745 0.172021 0.121156
H21   H     H_    0.168406 0.183809 0.820407 0.106408
H22   H     H_    0.394184 0.588904 0.498526 0.118885
H23   H     H_    0.816154 0.835285 0.823342 0.099111
H24   H     H_    0.398840 0.588747 0.341568 0.112998
H25   H     H_    0.086688 0.088221 0.643530 0.106026
H26   H     H_    0.111678 0.087916 0.501919 0.110955
H27   H     H_    0.401255 0.410987 0.344481 0.120960
H28   H     H_    0.396296 0.411028 0.500986 0.115050
H29   H     H_    0.100286 0.910146 0.495195 0.118367
H30   H     H_    0.079254 0.910417 0.638736 0.107872
H31   H     H_    0.490174 0.665806 0.174716 0.115455
H32   H     H_    0.570399 0.626497 0.822390 0.110880
H33   H     H_    0.984178 0.164666 0.175453 0.115468
H34   H     H_    0.247419 0.868357 0.179758 0.100865
H35   H     H_    0.057294 0.147107 0.825622 0.114503
H36   H     H_    0.471664 0.411203 0.260022 0.100494
H37   H     H_    0.431468 0.412517 0.668359 0.088977
H38   H     H_    0.066315 0.911629 0.329528 0.092107
H39   H     H_    0.993316 0.912767 0.702474 0.089552
H40   H     H_    0.214766 0.588184 0.757705 0.138468
H41   H     H_    0.757134 0.585949 0.335929 0.149103
H42   H     H_    0.714614 0.088102 0.757646 0.134018
H43   H     H_    0.256752 0.084570 0.338545 0.146193
H44   H     H_    0.471543 0.588603 0.259744 0.096019
H45   H     H_    0.940314 0.579975 0.387266 0.202088
H46   H     H_    0.431671 0.587677 0.667754 0.120122
H47   H     H_    0.065602 0.087808 0.329664 0.094674
H48   H     H_    0.996781 0.087320 0.704560 0.097822
H49   H     H_    0.208460 0.411949 0.736426 0.136023
H50   H     H_    0.768181 0.412587 0.333506 0.150659
H51   H     H_    0.709290 0.911817 0.736476 0.160531
H52   H     H_    0.265667 0.911549 0.329968 0.158439
H53   H     H_    0.492885 0.333689 0.176076 0.088709
H54   H     H_    0.569164 0.372363 0.822194 0.095297
H55   H     H_    0.986419 0.834305 0.175766 0.090463
H56   H     H_    0.075287 0.634909 0.607416 0.203756
H57   H     H_    0.061302 0.854399 0.827625 0.086548
H58   H     H_    0.000196 0.358402 0.598290 0.099908
H59   H     H_    0.957211 0.354283 0.684639 0.165643
H60   H     H_    0.120043 0.324089 0.842454 0.289600
H61   H     H_    0.062598 0.277774 0.726307 0.223913
H62   H     H_    0.154256 0.323357 0.749053 0.235196
H63   H     H_    0.746763 0.470595 0.508190 0.108256
H64   H     H_    0.825860 0.443522 0.647535 0.106304
H65   H     H_    0.756122 0.350582 0.578195 0.265618
H66   H     H_    0.665858 0.400732 0.544945 0.215015
H67   H     H_    0.433120 0.089188 0.403374 0.205574
H68   H     H_    0.678522 0.377850 0.439433 0.248835
H69   H     H_    0.519283 0.928865 0.814415 0.073254
H70   H     H_    0.642327 0.940749 0.866196 0.105370
H71   H     H_    0.668911 0.839664 0.877322 0.249979
H72   H     H_    0.627966 0.861175 0.958329 0.212833
H73   H     H_    0.546542 0.828236 0.826671 0.262812
H74   H     H_    0.257416 0.933062 0.513769 0.084804
H75   H     H_    0.354988 0.907774 0.648582 0.097567
H76   H     H_    0.324234 0.812693 0.570785 0.281556
H77   H     H_    0.224153 0.841531 0.561968 0.207714
H78   H     H_    0.563058 0.137398 0.631140 0.192494
H79   H     H_    0.222705 0.838764 0.440246 0.231453
H80   H     H_    0.914217 0.635003 0.453935 0.217689
I1    I     I_    0.333864 0.679226 0.754786 -0.536643
I2    I     I_    0.746933 0.684603 0.230814 -0.524176
I3    I     I_    0.831172 0.181248 0.756177 -0.518998
I4    I     I_    0.235718 0.185978 0.235727 -0.535438
N1    N     N_R   0.394180 0.396910 0.943210 -0.038718
N2    N     N_R   0.474350 0.471570 0.793850 -0.040801
N3    N     N_R   0.025650 0.971570 0.206150 -0.041737
N4    N     N_R   0.974350 0.971570 0.793850 -0.041183
N5    N     N_R   0.319480 0.528420 0.793810 -0.035199
N6    N     N_R   0.680520 0.528420 0.206190 -0.045289
N7    N     N_R   0.819480 0.028420 0.793810 -0.035766
N8    N     N_R   0.180520 0.028420 0.206190 -0.043424
N9    N     N_R   0.525640 0.528390 0.206120 -0.039212
N10   N     N_R   0.474360 0.528390 0.793880 -0.035182
N11   N     N_R   0.025640 0.028390 0.206120 -0.039335
N12   N     N_R   0.605820 0.396910 0.056790 -0.042080
N13   N     N_R   0.974360 0.028390 0.793880 -0.032178
N14   N     N_R   0.319490 0.471590 0.793840 -0.056519
N15   N     N_R   0.680510 0.471590 0.206160 -0.053278
N16   N     N_R   0.819490 0.971590 0.793840 -0.055584
N17   N     N_R   0.180510 0.971590 0.206160 -0.053755
N18   N     N_R   0.394130 0.603080 0.943110 -0.054260
N19   N     N_R   0.605870 0.603080 0.056890 -0.054886
N20   N     N_R   0.894130 0.103080 0.943110 -0.058349
N21   N     N_R   0.105870 0.103080 0.056890 -0.054671
N22   N     N_R   0.450990 0.396900 0.056840 -0.039496
N23   N     N_R   0.894180 0.896910 0.943210 -0.042265
N24   N     N_R   0.549010 0.396900 0.943160 -0.042616
N25   N     N_R   0.950990 0.896900 0.056840 -0.042141
N26   N     N_R   0.049010 0.896900 0.943160 -0.039198
N27   N     N_R   0.105820 0.896910 0.056790 -0.041579
N28   N     N_R   0.450950 0.603070 0.056740 -0.047523
N29   N     N_R   0.549050 0.603070 0.943260 -0.037921
N30   N     N_R   0.950950 0.103070 0.056740 -0.049283
N31   N     N_R   0.049050 0.103070 0.943260 -0.039516
N32   N     N_R   0.525650 0.471570 0.206150 -0.042224
Ni1   Ni    Ni4+2 0.434860 0.434850 0.869700 0.207920
Ni2   Ni    Ni4+2 0.565140 0.434850 0.130300 0.208570
Ni3   Ni    Ni4+2 0.934860 0.934850 0.869700 0.213463
Ni4   Ni    Ni4+2 0.065140 0.934850 0.130300 0.202957
Ni5   Ni    Ni4+2 0.565130 0.565140 0.130240 0.232471
Ni6   Ni    Ni4+2 0.434870 0.565140 0.869760 0.251920
Ni7   Ni    Ni4+2 0.065130 0.065140 0.130240 0.228108
Ni8   Ni    Ni4+2 0.934870 0.065140 0.869760 0.255295
O1    O     O_3   0.056549 0.415231 0.728087 -0.633922
O2    O     O_3   0.853871 0.416815 0.537189 -0.663851
O3    O     O_3   0.556605 0.906545 0.709181 -0.603805
O4    O     O_3   0.375008 0.903818 0.523965 -0.605051

loop_
_geom_bond_atom_site_label_1
_geom_bond_atom_site_label_2
_ccdc_geom_bond_type
C58   C62   A    
N11   Ni7   S    
C63   C65   S    
C50   N29   A    
C10   H75   S    
C17   C88   A    
C4    O1    S    
C12   C91   A    
C36   C42   A    
C14   C84   A    
C101  I4    S    
C19   C31   S    
C15   C94   A    
C16   C95   A    
N6    Ni5   S    
C48   C57   A    
C39   C41   A    
C6    H64   S    
N5    Ni6   S    
C3    C105  A    
N8    N17   A    
C3    C43   A    
C29   C30   A    
N28   Ni5   S    
C105  N26   A    
C11   H79   S    
C17   C26   S    
C56   H16   S    
N2    Ni1   S    
C67   C72   A    
C21   H12   S    
C53   H14   S    
C86   H42   S    
N16   Ni3   S    
C57   H17   S    
N20   Ni8   S    
C50   H32   S    
C42   H11   S    
C57   C59   A    
N3    N11   A    
C20   C25   A    
C36   H5    S    
C51   N30   A    
C59   H19   S    
C49   C54   A    
N19   N29   A    
C7    H66   S    
C7    H65   S    
C44   H13   S    
C83   N4    A    
N18   N28   A    
C5    H61   S    
C2    C90   A    
C34   C35   S    
C5    H60   S    
C3    C47   S    
N4    N13   A    
C68   H24   S    
C29   O3    S    
C34   H67   S    
C37   C63   A    
C81   N2    A    
C87   C101  A    
C32   N23   A    
C61   C66   A    
C102  N22   A    
C89   H44   S    
C101  N21   A    
C8    C9    S    
C80   H36   S    
C46   C55   A    
C41   C46   A    
C31   C33   S    
C54   C97   A    
C92   N13   A    
N8    Ni7   S    
C23   C27   A    
C41   H10   S    
C90   H46   S    
C14   C93   A    
N21   Ni7   S    
C61   H21   S    
C1    C106  A    
C15   C85   A    
C1    H1    S    
N9    Ni5   S    
C40   H9    S    
C6    O2    S    
N4    Ni3   S    
C45   C53   A    
C94   H50   S    
C12   C73   S    
C16   C86   A    
C34   H3    S    
C20   C35   S    
C21   N12   A    
N5    N14   A    
C70   C73   A    
C2    C72   S    
C93   N14   A    
C8    H69   S    
C31   H45   S    
C53   C60   A    
C38   C64   A    
C6    H63   S    
C84   H40   S    
C25   C29   A    
C40   C45   A    
C22   C34   S    
C71   C98   S    
C55   H15   S    
C71   C75   A    
C52   H35   S    
C97   N18   A    
C94   N15   A    
C49   N28   A    
C67   C68   A    
N1    N22   A    
C33   H56   S    
C51   C76   A    
C65   C99   A    
C66   C87   S    
C27   O1    S    
C78   C79   A    
C18   C19   A    
N20   N30   A    
C37   H6    S    
C54   C62   S    
C56   C58   A    
C100  N20   A    
C18   C23   A    
N32   Ni2   S    
C36   C62   A    
C14   C23   S    
C31   H80   S    
C1    N1    A    
N7    Ni8   S    
C91   H47   S    
C72   C77   A    
C80   N32   A    
C85   N6    A    
N15   Ni2   S    
C60   H20   S    
C73   C78   A    
C7    H68   S    
N14   Ni1   S    
C64   C76   S    
C12   C82   A    
C69   C74   A    
C92   H48   S    
C17   C96   A    
C93   H49   S    
C75   C77   A    
C82   N3    A    
C21   C107  A    
C9    H72   S    
C5    H62   S    
C83   H39   S    
N3    Ni4   S    
C86   N7    A    
C15   C24   S    
C77   H28   S    
C20   C22   A    
N30   Ni7   S    
C58   H18   S    
C81   H37   S    
C74   C79   A    
C49   H31   S    
C13   C92   A    
N17   Ni4   S    
N27   Ni4   S    
C39   C66   A    
C95   H51   S    
C50   C65   A    
C67   H22   S    
C82   H38   S    
N12   Ni2   S    
C78   H29   S    
N26   Ni3   S    
C104  C108  A    
N29   Ni6   S    
N31   Ni8   S    
C16   C25   S    
C4    H58   S    
N12   N24   A    
C103  H54   S    
C69   H25   S    
C96   N17   A    
N19   Ni5   S    
C96   H52   S    
N6    N15   A    
C11   H77   S    
C59   C63   A    
C51   H33   S    
C52   C87   A    
C43   N27   A    
C11   H76   S    
C24   C28   A    
C4    C5    S    
C2    C81   A    
C9    H71   S    
C99   N19   A    
C99   I2    S    
C103  C107  A    
C68   C71   A    
C6    C7    S    
C95   N16   A    
C84   N5    A    
C76   C100  A    
C89   N9    A    
C13   C83   A    
C10   O4    S    
N24   Ni1   S    
C4    H59   S    
N10   Ni6   S    
C89   C98   A    
C60   C64   A    
C88   N8    A    
C37   C44   A    
N23   N25   A    
C19   C24   A    
N1    Ni1   S    
C44   C48   A    
C32   C108  A    
C38   C40   A    
C38   H7    S    
N21   N31   A    
N26   N27   A    
C48   C108  S    
C75   H27   S    
C80   C98   A    
C35   H78   S    
C10   H74   S    
C55   C61   A    
C97   I1    S    
N7    N16   A    
C88   H43   S    
C105  H57   S    
C102  C106  A    
N23   Ni3   S    
C42   C47   A    
C69   C70   A    
N22   Ni2   S    
C18   C33   S    
C85   H41   S    
C104  N25   A    
N18   Ni6   S    
C9    H73   S    
C10   C11   S    
C46   C106  S    
N25   Ni4   S    
C100  I3    S    
C8    O3    S    
C8    H70   S    
C104  H55   S    
C79   H30   S    
C13   C74   S    
C52   N31   A    
C39   H8    S    
C22   C26   A    
C27   C28   A    
C70   H26   S    
C102  H53   S    
C43   H34   S    
N13   Ni8   S    
C33   H2    S    
N9    N32   A    
C30   O4    S    
C103  N24   A    
C32   H23   S    
C91   N11   A    
C35   H4    S    
C45   C107  S    
C28   O2    S    
C47   C56   A    
C90   N10   A    
C26   C30   A    
N2    N10   A    
