data_mof_unit_7398.cif
_audit_creation_date              2012-12-11T14:14:14-0500
_audit_creation_method            fapswitch 2.2
_symmetry_space_group_name_H-M    P1
_symmetry_Int_Tables_number       1
_space_group_crystal_system       triclinic
_cell_length_a                    17.094263
_cell_length_b                    7.236891
_cell_length_c                    17.104497
_cell_angle_alpha                 90.001631
_cell_angle_beta                  99.450615
_cell_angle_gamma                 90.020114
_cell_volume                      2087.26629658

loop_
_atom_site_label
_atom_site_type_symbol
_atom_type_description
_atom_site_fract_x
_atom_site_fract_y
_atom_site_fract_z
_atom_type_partial_charge
O1    O     O_R   0.414560 0.494370 0.416770 -0.531070
O2    O     O_R   0.585440 0.994370 0.583230 -0.530924
O3    O     O_R   0.578370 0.819590 0.429320 -0.539978
O4    O     O_R   0.421630 0.319590 0.570680 -0.539911
C1    C     C_R   0.605234 0.654830 0.414488 0.715695
C2    C     C_R   0.394748 0.154792 0.585497 0.715782
O5    O     O_R   0.414740 0.823790 0.407360 -0.542591
O6    O     O_R   0.585260 0.323790 0.592640 -0.542512
O7    O     O_R   0.420650 0.998510 0.561120 -0.541029
O8    O     O_R   0.579350 0.498510 0.438880 -0.541094
C3    C     C_R   0.386059 0.655920 0.387662 0.683943
C4    C     C_R   0.613950 0.155973 0.612323 0.683412
O9    O     O_3   0.502130 0.662240 0.550470 -0.374762
O10   O     O_3   0.497870 0.162240 0.449530 -0.375005
V1    V     V_3+5 0.499600 0.935390 0.490640 1.535807
V2    V     V_3+5 0.500400 0.435390 0.509360 1.535962
C5    C     C_2   0.788251 0.252072 0.784168 -0.294425
C6    C     C_2   0.211731 0.752145 0.215881 -0.293898
C7    C     C_2   0.809275 0.107106 0.833052 0.305541
C8    C     C_2   0.190764 0.607334 0.166868 0.305789
H1    H     H_    0.827344 0.371193 0.787140 0.173339
H2    H     H_    0.172563 0.871042 0.213044 0.173231
C9    C     C_2   0.711511 0.266257 0.729152 -0.019535
C10   C     C_2   0.288453 0.766423 0.270932 -0.020269
C11   C     C_2   0.690457 0.146513 0.667851 -0.168783
C12   C     C_2   0.309586 0.646301 0.332069 -0.168729
C13   C     C_R   0.329233 0.141130 0.634067 -0.187603
C14   C     C_R   0.670737 0.641271 0.365911 -0.187724
C15   C     C_R   0.163660 0.136048 0.858870 -0.128439
C16   C     C_R   0.836292 0.635872 0.141087 -0.128220
C17   C     C_R   0.265584 0.335993 0.819093 -0.028674
C18   C     C_R   0.734042 0.835152 0.180555 -0.028834
C19   C     C_R   0.211145 0.294918 0.868749 -0.136733
C20   C     C_R   0.788574 0.794266 0.130973 -0.136765
C21   C     C_R   0.168409 0.020613 0.793134 -0.070909
C22   C     C_R   0.831713 0.520868 0.207003 -0.070808
C23   C     C_R   0.214307 0.077073 0.734185 -0.011109
C24   C     C_R   0.785736 0.577369 0.265871 -0.011515
C25   C     C_R   0.271556 0.220851 0.752864 0.034783
C26   C     C_R   0.728235 0.720401 0.246941 0.034407
C27   C     C_R   0.331677 0.244013 0.704604 -0.103073
C28   C     C_R   0.668041 0.743277 0.295123 -0.103194
C29   C     C_R   0.263239 0.025244 0.608941 -0.176633
C30   C     C_R   0.736944 0.526307 0.391260 -0.176994
C31   C     C_R   0.203588 0.000147 0.656423 0.383691
C32   C     C_R   0.796604 0.501243 0.343781 0.383771
H3    H     H_    0.205914 0.390492 0.916361 0.174933
H4    H     H_    0.793679 0.889552 0.083225 0.174863
O11   O     O_R   0.920750 0.773600 0.061260 -0.525845
O12   O     O_R   0.079250 0.273600 0.938740 -0.525748
O13   O     O_R   0.085340 0.439850 0.092570 -0.500786
O14   O     O_R   0.914660 0.939850 0.907430 -0.500997
C33   C     C_R   0.114409 0.607223 0.111574 0.655212
C34   C     C_R   0.885595 0.107164 0.888412 0.654692
O15   O     O_R   0.921720 0.444130 0.070790 -0.549709
O16   O     O_R   0.078280 0.944130 0.929210 -0.549602
O17   O     O_R   0.914480 0.269530 0.916840 -0.557515
O18   O     O_R   0.085520 0.769530 0.083160 -0.557316
C35   C     C_R   0.896719 0.613721 0.087213 0.700923
C36   C     C_R   0.103279 0.113763 0.912788 0.702051
O19   O     O_3   0.997840 0.601520 0.949550 -0.372610
O20   O     O_3   0.002160 0.101520 0.050450 -0.372509
V3    V     V_3+5 0.000400 0.328340 0.009360 1.577978
V4    V     V_3+5 0.999600 0.828340 0.990640 1.577870
C37   C     C_1   0.134168 0.837280 0.791631 0.445021
N1    N     N_1   0.107024 0.690599 0.791105 -0.274859
C38   C     C_1   0.866181 0.337795 0.208768 0.444489
N2    N     N_1   0.893490 0.191299 0.209505 -0.274374
S1    S     S_3+6 0.745634 0.914505 0.839973 0.010719
O21   O     O_2   0.659767 0.961001 0.812970 -0.316577
O22   O     O_2   0.769783 0.760059 0.790355 -0.347385
O23   O     O_3   0.757051 0.843002 0.934577 -0.521592
H5    H     H_    0.731623 0.719630 0.932441 0.359340
S2    S     S_3+6 0.254495 0.415182 0.159657 0.010504
O24   O     O_2   0.340326 0.461761 0.186940 -0.317332
O25   O     O_2   0.230251 0.259951 0.208823 -0.346822
O26   O     O_3   0.243276 0.344867 0.064901 -0.522103
H6    H     H_    0.270323 0.223568 0.066641 0.360140
C39   C     C_1   0.660957 0.417906 0.743781 0.455507
N3    N     N_1   0.621006 0.540336 0.755557 -0.212623
C40   C     C_1   0.338870 0.918680 0.256592 0.456590
N4    N     N_1   0.378730 0.041576 0.245082 -0.212721
C41   C     C_1   0.746901 0.010900 0.648661 0.461466
N5    N     N_1   0.791856 0.903416 0.632668 -0.241779
C42   C     C_1   0.253258 0.510013 0.351007 0.461640
N6    N     N_1   0.208395 0.401984 0.366800 -0.242660
C43   C     C_1   0.400990 0.356683 0.730872 0.341409
N7    N     N_1   0.456410 0.446586 0.751733 -0.279286
C44   C     C_1   0.598360 0.854333 0.268463 0.341600
N8    N     N_1   0.542628 0.942866 0.247256 -0.279863
C45   C     C_1   0.255511 0.934990 0.532506 0.481792
N9    N     N_1   0.248954 0.863377 0.471341 -0.340747
C46   C     C_1   0.744837 0.436956 0.467898 0.481927
N10   N     N_1   0.751508 0.366093 0.529227 -0.339646
C47   C     C_1   0.306498 0.510830 0.833834 0.330649
N11   N     N_1   0.338505 0.651449 0.845976 -0.304068
C48   C     C_1   0.692870 0.009544 0.165623 0.330677
N12   N     N_1   0.660650 0.149811 0.153335 -0.303459
S3    S     S_3+6 0.109770 0.907103 0.611091 0.049290
O27   O     O_2   0.113306 0.699761 0.615615 -0.314424
O28   O     O_2   0.043776 0.976621 0.651549 -0.310677
O29   O     O_3   0.088973 0.970615 0.515277 -0.463307
H7    H     H_    0.039875 0.902536 0.493564 0.411575
S4    S     S_3+6 0.890586 0.409488 0.389239 0.049323
O30   O     O_2   0.887415 0.202080 0.385125 -0.312868
O31   O     O_2   0.956419 0.479256 0.348591 -0.311826
O32   O     O_3   0.911324 0.474096 0.484929 -0.463718
H8    H     H_    0.961130 0.408724 0.506452 0.411760

loop_
_geom_bond_atom_site_label_1
_geom_bond_atom_site_label_2
_ccdc_geom_bond_type
C43   N7    T    
C46   N10   T    
O15   C35   A    
O19   V4    S    
C47   N11   T    
O1    C3    A    
O2    C4    A    
C2    O7    A    
S4    O31   D    
C40   N4    T    
C22   C38   S    
C25   C27   A    
C42   N6    T    
O5    C3    A    
C5    C9    S    
S2    O25   D    
C41   N5    T    
C6    C10   S    
C21   C23   A    
C10   C12   D    
C21   C37   S    
C48   N12   T    
C18   C48   S    
C14   C28   A    
S1    O22   D    
C30   C46   S    
C2    C13   S    
C15   C19   A    
C30   C32   A    
S2    O26   S    
O15   V3    S    
O32   H8    S    
C17   C19   A    
C26   C28   A    
O6    V2    S    
O11   V4    S    
O12   V3    S    
S1    O21   D    
S4    O30   D    
O14   C34   A    
O17   V3    S    
O18   V4    S    
C27   C43   S    
S2    O24   D    
C16   C20   A    
C38   N2    T    
O13   V3    S    
O4    C2    A    
C31   S3    S    
C45   N9    T    
O23   H5    S    
C3    C12   S    
O26   H6    S    
C32   S4    S    
C14   C30   A    
C5    H1    S    
O16   C36   A    
O13   C33   A    
C18   C20   A    
O4    V2    S    
S1    O23   S    
C10   C40   S    
O20   V3    S    
C1    C14   S    
C13   C27   A    
S3    O27   D    
C15   C36   S    
O6    C4    A    
C16   C35   S    
S3    O29   S    
O16   V4    S    
C8    S2    S    
O1    V2    S    
O2    V1    S    
C29   C31   A    
C7    C34   S    
S3    O28   D    
O14   V4    S    
C19   H3    S    
C7    S1    S    
C20   H4    S    
C23   C31   A    
O3    V1    S    
C6    H2    S    
C8    C33   S    
O3    C1    A    
C33   O18   A    
C15   C21   A    
O11   C35   A    
C16   C22   A    
C4    C11   S    
C28   C44   S    
O12   C36   A    
C22   C24   A    
O7    V1    S    
C1    O8    A    
C23   C25   A    
O8    V2    S    
C24   C26   A    
C12   C42   S    
C17   C47   S    
O5    V1    S    
C5    C7    D    
C17   C25   A    
C6    C8    D    
C18   C26   A    
O29   H7    S    
C29   C45   S    
C24   C32   A    
C39   N3    T    
C13   C29   A    
C9    C11   D    
C37   N1    T    
O9    V2    S    
C11   C41   S    
O10   V1    S    
C9    C39   S    
C44   N8    T    
S4    O32   S    
C34   O17   A    
