data_mof_unit_33777.cif
_audit_creation_date              2012-12-10T17:33:10-0500
_audit_creation_method            fapswitch 2.2
_symmetry_space_group_name_H-M    P1
_symmetry_Int_Tables_number       1
_space_group_crystal_system       triclinic
_cell_length_a                    15.578291
_cell_length_b                    15.464823
_cell_length_c                    17.752554
_cell_angle_alpha                 91.197588
_cell_angle_beta                  110.122022
_cell_angle_gamma                 68.962732
_cell_volume                      3722.37714305

loop_
_atom_site_label
_atom_site_type_symbol
_atom_type_description
_atom_site_fract_x
_atom_site_fract_y
_atom_site_fract_z
_atom_type_partial_charge
C1    C     C_R   0.464647 0.740258 0.533033 0.500869
C2    C     C_R   0.622512 0.499078 0.083363 -0.004256
C3    C     C_R   0.687791 0.447913 0.046288 -0.128189
C4    C     C_R   0.535720 0.259222 0.469775 0.506105
C5    C     C_R   0.653730 0.434579 0.965216 0.026145
C6    C     C_R   0.552085 0.477041 0.917652 0.033989
C7    C     C_R   0.721849 0.385020 0.929726 -0.134579
C8    C     C_R   0.690648 0.380888 0.846842 -0.133191
C9    C     C_R   0.521259 0.461791 0.835504 -0.112667
C10   C     C_R   0.460768 0.945120 0.647941 0.003293
C11   C     C_R   0.454445 0.835195 0.548763 0.022693
C12   C     C_R   0.322553 0.658180 0.157360 -0.121638
C13   C     C_R   0.547965 0.139070 0.377121 -0.133822
C14   C     C_R   0.533967 0.058853 0.350080 -0.146838
C15   C     C_R   0.514784 0.002923 0.397257 -0.116250
C16   C     C_R   0.757977 0.447988 0.532904 0.498675
C17   C     C_R   0.516353 0.022447 0.476107 0.009723
C18   C     C_R   0.540934 0.099587 0.506940 0.031123
C19   C     C_R   0.493074 0.968579 0.524590 0.007250
C20   C     C_R   0.490988 0.994548 0.601680 0.022393
C21   C     C_R   0.526385 0.064028 0.633561 -0.110239
C22   C     C_R   0.559101 0.111356 0.589858 0.152815
C23   C     C_R   0.470690 0.534907 0.157996 -0.144277
C24   C     C_R   0.474320 0.887995 0.499635 -0.124892
C25   C     C_R   0.444976 0.864553 0.621112 -0.113377
C26   C     C_R   0.546792 0.162737 0.453495 0.019235
C27   C     C_R   0.023327 0.392217 0.652091 -0.137637
C28   C     C_R   0.242169 0.552790 0.469671 0.486793
C29   C     C_R   0.861383 0.430740 0.550034 0.034780
C30   C     C_R   0.069089 0.619076 0.376006 -0.126562
C31   C     C_R   0.972702 0.623443 0.349471 -0.147068
C32   C     C_R   0.942686 0.577953 0.396406 -0.121997
C33   C     C_R   0.008000 0.530145 0.473640 0.034950
C34   C     C_R   0.447872 0.563585 0.076575 -0.031054
C35   C     C_R   0.104689 0.531924 0.503092 0.030419
C36   C     C_R   0.980483 0.481314 0.522937 0.031522
C37   C     C_R   0.048440 0.439704 0.601878 0.046707
C38   C     C_R   0.139419 0.449016 0.631646 -0.145740
C39   C     C_R   0.166413 0.495794 0.583744 -0.119213
C40   C     C_R   0.561590 0.440354 0.712439 0.492508
C41   C     C_R   0.887035 0.474030 0.497617 -0.127134
C42   C     C_R   0.929863 0.388996 0.626707 -0.126048
C43   C     C_R   0.136852 0.571135 0.451393 0.021800
C44   C     C_R   0.439684 0.558665 0.286924 0.500859
C45   C     C_R   0.350493 0.624748 0.030901 0.045007
C46   C     C_R   0.410081 0.583291 0.199408 -0.012278
C47   C     C_R   0.590415 0.420413 0.799421 0.014044
C48   C     C_R   0.292069 0.680151 0.073737 0.126696
C49   C     C_3   0.207982 0.661519 0.893051 -0.241294
C50   C     C_3   0.184426 0.581451 0.848601 -0.321691
C51   C     C_3   0.076843 0.614378 0.791867 -0.453603
C52   C     C_3   0.447219 0.973944 0.726741 -0.259837
C53   C     C_3   0.356701 0.064412 0.711818 -0.292097
C54   C     C_3   0.343908 0.094507 0.790934 -0.459086
C55   C     C_3   0.636644 0.177828 0.713582 -0.288594
C56   C     C_R   0.518666 0.528562 0.039416 0.003744
C57   C     C_3   0.235836 0.839237 0.014876 -0.318404
C58   C     C_3   0.410332 0.701352 0.825212 -0.311690
C59   C     C_3   0.667020 0.537479 0.161106 -0.246400
C60   C     C_3   0.626164 0.644792 0.150391 -0.289341
C61   C     C_3   0.677070 0.682864 0.225363 -0.460014
C62   C     C_R   0.485239 0.532493 0.953986 0.023696
C63   C     C_R   0.387932 0.594870 0.907965 0.125674
C64   C     C_R   0.317356 0.630327 0.945273 0.020573
H1    H     H_    0.799984 0.354245 0.965311 0.103528
H2    H     H_    0.189734 0.420973 0.692967 0.100855
H3    H     H_    0.074690 0.360869 0.712401 0.098561
H4    H     H_    0.830487 0.505792 0.439739 0.093987
H5    H     H_    0.091643 0.650340 0.335866 0.132808
H6    H     H_    0.867601 0.582529 0.370797 0.097911
H7    H     H_    0.921688 0.660011 0.290728 0.108429
H8    H     H_    0.235555 0.505027 0.611824 0.140023
H9    H     H_    0.744993 0.349845 0.819126 0.102515
H10   H     H_    0.766630 0.422253 0.079760 0.099397
H11   H     H_    0.277635 0.700464 0.189516 0.132042
H12   H     H_    0.428812 0.822100 0.658093 0.092268
H13   H     H_    0.534853 0.473456 0.188911 0.137081
H14   H     H_    0.026962 0.642259 0.826142 0.155001
H15   H     H_    0.061395 0.669503 0.744546 0.157279
H16   H     H_    0.061797 0.554839 0.761987 0.154921
H17   H     H_    0.231665 0.551770 0.812549 0.163603
H18   H     H_    0.198839 0.524374 0.893795 0.161271
H19   H     H_    0.160090 0.681875 0.929124 0.189523
H20   H     H_    0.185908 0.723339 0.849843 0.139870
H21   H     H_    0.333868 0.039590 0.822448 0.146342
H22   H     H_    0.409438 0.107815 0.830886 0.148856
H23   H     H_    0.533843 0.077980 0.694632 0.108268
H24   H     H_    0.277766 0.159748 0.778160 0.141043
H25   H     H_    0.363678 0.121768 0.680787 0.169223
H26   H     H_    0.289514 0.053250 0.672337 0.167762
H27   H     H_    0.436273 0.918729 0.757227 0.131572
H28   H     H_    0.514953 0.980959 0.769732 0.131104
H29   H     H_    0.675841 0.156531 0.611147 0.233434
H30   H     H_    0.679029 0.224092 0.730813 0.130538
H31   H     H_    0.681049 0.109914 0.752207 0.122307
H32   H     H_    0.566213 0.212224 0.723808 0.165146
H33   H     H_    0.160382 0.786521 0.065435 0.244398
H34   H     H_    0.482467 0.859615 0.445490 0.098736
H35   H     H_    0.167535 0.900531 0.983280 0.135657
H36   H     H_    0.277637 0.817472 0.973650 0.154556
H37   H     H_    0.280943 0.860012 0.070193 0.141147
H38   H     H_    0.293963 0.656358 0.789246 0.247702
H39   H     H_    0.394240 0.724209 0.761284 0.133506
H40   H     H_    0.491667 0.669847 0.856178 0.166796
H41   H     H_    0.379493 0.763313 0.854312 0.130120
H42   H     H_    0.668637 0.657035 0.279319 0.152831
H43   H     H_    0.756466 0.661021 0.235213 0.144126
H44   H     H_    0.643575 0.760271 0.216841 0.140637
H45   H     H_    0.554285 0.185413 0.336158 0.135518
H46   H     H_    0.637532 0.670167 0.097781 0.160833
H47   H     H_    0.545969 0.673373 0.138914 0.174932
H48   H     H_    0.657944 0.510849 0.213914 0.141518
H49   H     H_    0.748373 0.513307 0.178143 0.134456
H50   H     H_    0.497841 0.945785 0.369241 0.102470
H51   H     H_    0.532674 0.042501 0.290183 0.112227
H52   H     H_    0.909387 0.357210 0.668171 0.106064
H53   H     H_    0.444376 0.485215 0.797407 0.144034
N1    N     N_2   0.617469 0.164452 0.629244 -0.487374
N2    N     N_2   0.210093 0.764527 0.036201 -0.544318
N3    N     N_2   0.366106 0.634256 0.828198 -0.544707
O1    O     O_3   0.500000 0.500000 0.500000 -0.432885
O2    O     O_R   0.596500 0.492780 0.688380 -0.540036
O3    O     O_R   0.388780 0.611210 0.325000 -0.549270
O4    O     O_R   0.499860 0.410860 0.661600 -0.542747
O5    O     O_R   0.514860 0.485140 0.325020 -0.545859
O6    O     O_R   0.707110 0.418540 0.472990 -0.540988
O7    O     O_R   0.267620 0.606720 0.435250 -0.550224
O8    O     O_R   0.540230 0.674660 0.578090 -0.536400
O9    O     O_R   0.485030 0.300080 0.513670 -0.501412
O10   O     O_R   0.403610 0.721990 0.472930 -0.540801
O11   O     O_R   0.571130 0.303270 0.435320 -0.556256
O12   O     O_R   0.717650 0.497270 0.578120 -0.541103
O13   O     O_R   0.307610 0.477470 0.513630 -0.543936
Zn1   Zn    Zn3+2 0.572030 0.427990 0.434470 0.924804
Zn2   Zn    Zn3+2 0.587090 0.540470 0.584680 0.935824
Zn3   Zn    Zn3+2 0.449010 0.423430 0.546420 0.939022
Zn4   Zn    Zn3+2 0.391880 0.608100 0.434430 0.926847

loop_
_geom_bond_atom_site_label_1
_geom_bond_atom_site_label_2
_ccdc_geom_bond_type
O5    Zn1   S    
C40   C47   S    
C21   H23   S    
C34   C56   A    
C13   C26   A    
C29   C42   A    
C9    H53   S    
C19   C20   A    
C18   C26   A    
C1    O8    A    
C12   C48   A    
O11   Zn1   S    
C10   C52   S    
C6    C9    A    
C7    C8    A    
C53   C54   S    
C62   C63   A    
C24   H34   S    
C4    O11   A    
C49   H20   S    
C36   C37   A    
C30   C31   A    
C11   C25   A    
C57   H37   S    
C14   H51   S    
C57   H35   S    
C11   C24   A    
C33   C36   A    
C22   N1    S    
O1    Zn4   S    
C3    H10   S    
C61   H44   S    
C51   H16   S    
C13   H45   S    
C59   H48   S    
C38   H2    S    
C10   C20   A    
C1    C11   S    
O13   Zn3   S    
C39   H8    S    
O1    Zn1   S    
C41   H4    S    
C35   C43   A    
C28   O7    A    
C57   N2    S    
C31   H7    S    
C59   C60   S    
C49   C64   S    
C13   C14   A    
C36   C41   A    
C55   H30   S    
C61   H43   S    
C44   C46   S    
C50   C51   S    
C48   N2    S    
C38   C39   A    
C40   O4    A    
C44   O5    A    
O4    Zn3   S    
C28   O13   A    
C27   H3    S    
C12   C46   A    
C1    O10   A    
O8    Zn2   S    
C54   H22   S    
C2    C59   S    
C17   C19   A    
C32   H6    S    
C16   C29   S    
C57   H36   S    
O1    Zn2   S    
C60   C61   S    
H33   N2    S    
C35   C39   A    
C37   C38   A    
C7    H1    S    
O9    Zn3   S    
C31   C32   A    
C59   H49   S    
C23   C34   A    
C58   N3    S    
C17   C18   A    
C15   H50   S    
C34   C45   A    
C23   H13   S    
C61   H42   S    
C28   C43   S    
C10   C25   A    
C55   H31   S    
C9    C47   A    
C53   H25   S    
C56   C62   A    
C30   C43   A    
C52   H28   S    
C58   H40   S    
H29   N1    S    
C30   H5    S    
H38   N3    S    
C52   C53   S    
C50   H18   S    
C5    C7    A    
C45   C48   A    
C42   H52   S    
C15   C17   A    
C45   C64   A    
C29   C41   A    
C18   C22   A    
C55   H32   S    
C3    C5    A    
C54   H21   S    
C4    C26   S    
C4    O9    A    
C40   O2    A    
O3    Zn4   S    
C44   O3    A    
C6    C62   A    
C58   H41   S    
C32   C33   A    
C25   H12   S    
C2    C3    A    
C51   H14   S    
C60   H47   S    
C2    C56   A    
C54   H24   S    
C63   N3    S    
C27   C42   A    
C49   H19   S    
C5    C6    A    
C27   C37   A    
O12   Zn2   S    
C8    H9    S    
C33   C35   A    
C19   C24   A    
O1    Zn3   S    
C16   O12   A    
C51   H15   S    
O2    Zn2   S    
C8    C47   A    
C60   H46   S    
C63   C64   A    
C20   C21   A    
O6    Zn1   S    
C49   C50   S    
C12   H11   S    
C53   H26   S    
C23   C46   A    
C14   C15   A    
C52   H27   S    
C58   H39   S    
O7    Zn4   S    
C21   C22   A    
O10   Zn4   S    
C16   O6    A    
C50   H17   S    
C55   N1    S    
