data_mof_unit_59490.cif
_audit_creation_date              2012-12-11T14:41:04-0500
_audit_creation_method            fapswitch 2.2
_symmetry_space_group_name_H-M    P1
_symmetry_Int_Tables_number       1
_space_group_crystal_system       triclinic
_cell_length_a                    6.969051
_cell_length_b                    20.260839
_cell_length_c                    17.087366
_cell_angle_alpha                 89.999931
_cell_angle_beta                  90.002958
_cell_angle_gamma                 89.988801
_cell_volume                      2412.71587182

loop_
_atom_site_label
_atom_site_type_symbol
_atom_type_description
_atom_site_fract_x
_atom_site_fract_y
_atom_site_fract_z
_atom_type_partial_charge
O1    O     O_R   0.377350 0.828520 0.186660 -0.531860
O2    O     O_R   0.622650 0.171480 0.813340 -0.531860
O3    O     O_R   0.122650 0.171480 0.686660 -0.531877
O4    O     O_R   0.877350 0.828520 0.313340 -0.531877
O5    O     O_R   0.877350 0.671480 0.313340 -0.531825
O6    O     O_R   0.122650 0.328520 0.686660 -0.531825
O7    O     O_R   0.622650 0.328520 0.813340 -0.531806
O8    O     O_R   0.377350 0.671480 0.186660 -0.531806
O9    O     O_R   0.707090 0.671930 0.178410 -0.532404
O10   O     O_R   0.292910 0.328070 0.821590 -0.532404
O11   O     O_R   0.792910 0.328070 0.678410 -0.532402
O12   O     O_R   0.207090 0.671930 0.321590 -0.532403
O13   O     O_R   0.207090 0.828070 0.321590 -0.532432
O14   O     O_R   0.792910 0.171930 0.678410 -0.532432
O15   O     O_R   0.292910 0.171930 0.821590 -0.532433
O16   O     O_R   0.707090 0.828070 0.178410 -0.532433
C1    C     C_R   0.539138 0.647926 0.160540 0.856924
C2    C     C_R   0.460862 0.352074 0.839460 0.856923
C3    C     C_R   0.960853 0.352075 0.660542 0.856984
C4    C     C_R   0.039147 0.647925 0.339458 0.856984
C5    C     C_R   0.039110 0.852093 0.339431 0.856890
C6    C     C_R   0.960890 0.147907 0.660569 0.856890
C7    C     C_R   0.460898 0.147906 0.839429 0.856842
C8    C     C_R   0.539102 0.852094 0.160571 0.856842
O17   O     O_3   0.543850 0.750000 0.294270 -0.386862
O18   O     O_3   0.456150 0.250000 0.705730 -0.386862
O19   O     O_3   0.956150 0.250000 0.794270 -0.386837
O20   O     O_3   0.043850 0.750000 0.205730 -0.386837
V1    V     V_3+5 0.818700 0.750000 0.241790 1.659093
V2    V     V_3+5 0.181300 0.250000 0.758210 1.659093
V3    V     V_3+5 0.681300 0.250000 0.741790 1.659117
V4    V     V_3+5 0.318700 0.750000 0.258210 1.659117
C9    C     C_R   0.967820 0.413097 0.610931 -0.264197
C10   C     C_R   0.032180 0.586903 0.389069 -0.264197
C11   C     C_R   0.532164 0.586903 0.110931 -0.264200
C12   C     C_R   0.467836 0.413097 0.889069 -0.264200
C13   C     C_R   0.468074 0.086886 0.889046 -0.264257
C14   C     C_R   0.531926 0.913114 0.110954 -0.264257
C15   C     C_R   0.031939 0.913113 0.389048 -0.264256
C16   C     C_R   0.968061 0.086887 0.610952 -0.264256
C17   C     C_R   0.038223 0.467176 0.396952 0.451574
C18   C     C_R   0.961777 0.532824 0.603048 0.451575
C19   C     C_R   0.461050 0.532814 0.897005 0.451391
C20   C     C_R   0.538950 0.467186 0.102995 0.451391
C21   C     C_R   0.538721 0.032832 0.102976 0.451315
C22   C     C_R   0.461279 0.967168 0.897024 0.451315
C23   C     C_R   0.961983 0.967159 0.603030 0.451504
C24   C     C_R   0.038017 0.032841 0.396970 0.451504
C25   C     C_R   0.048824 0.525666 0.353111 0.337727
C26   C     C_R   0.951176 0.474334 0.646888 0.337727
C27   C     C_R   0.450638 0.474345 0.853126 0.337890
C28   C     C_R   0.549362 0.525655 0.146874 0.337890
C29   C     C_R   0.549112 0.974379 0.146904 0.337897
C30   C     C_R   0.450888 0.025621 0.853096 0.337897
C31   C     C_R   0.951413 0.025634 0.646918 0.337736
C32   C     C_R   0.048586 0.974366 0.353082 0.337736
C33   C     C_R   0.006322 0.589411 0.471040 0.245890
C34   C     C_R   0.993678 0.410589 0.528960 0.245890
C35   C     C_R   0.494064 0.410595 0.971018 0.245886
C36   C     C_R   0.505936 0.589405 0.028982 0.245886
C37   C     C_R   0.505786 0.910603 0.029018 0.245970
C38   C     C_R   0.494214 0.089397 0.970982 0.245970
C39   C     C_R   0.993838 0.089403 0.528992 0.245974
C40   C     C_R   0.006162 0.910597 0.471007 0.245974
C41   C     C_R   0.991271 0.531475 0.519001 -0.164627
C42   C     C_R   0.008729 0.468525 0.480999 -0.164627
C43   C     C_R   0.509139 0.468521 0.018991 -0.164527
C44   C     C_R   0.490861 0.531479 0.981009 -0.164527
C45   C     C_R   0.490815 0.968517 0.981018 -0.164539
C46   C     C_R   0.509185 0.031483 0.018982 -0.164539
C47   C     C_R   0.008788 0.031479 0.481007 -0.164638
C48   C     C_R   0.991212 0.968521 0.518993 -0.164638
Br1   Br    Br    0.977619 0.325522 0.486863 -0.290623
Br2   Br    Br    0.022381 0.674477 0.513136 -0.290623
Br3   Br    Br    0.522246 0.674477 0.986863 -0.290528
Br4   Br    Br    0.477754 0.325523 0.013137 -0.290528
Br5   Br    Br    0.477690 0.174482 0.013057 -0.290675
Br6   Br    Br    0.522310 0.825518 0.986943 -0.290675
Br7   Br    Br    0.022403 0.825518 0.513065 -0.290753
Br8   Br    Br    0.977597 0.174482 0.486935 -0.290753
Cl1   Cl    Cl    0.913638 0.477627 0.749501 -0.478186
Cl2   Cl    Cl    0.086362 0.522373 0.250499 -0.478186
Cl3   Cl    Cl    0.586644 0.522319 0.249480 -0.478207
Cl4   Cl    Cl    0.413356 0.477681 0.750520 -0.478207
Cl5   Cl    Cl    0.414165 0.022243 0.750426 -0.478110
Cl6   Cl    Cl    0.585835 0.977757 0.249574 -0.478110
Cl7   Cl    Cl    0.085557 0.977703 0.250405 -0.478087
Cl8   Cl    Cl    0.914443 0.022297 0.749595 -0.478087
Cl9   Cl    Cl    0.077153 0.395288 0.338880 -0.266324
Cl10  Cl    Cl    0.922847 0.604712 0.661120 -0.266324
Cl11  Cl    Cl    0.420967 0.604682 0.839007 -0.266450
Cl12  Cl    Cl    0.579033 0.395318 0.160993 -0.266450
Cl13  Cl    Cl    0.579060 0.104709 0.160951 -0.266401
Cl14  Cl    Cl    0.420940 0.895291 0.839049 -0.266401
Cl15  Cl    Cl    0.922746 0.895264 0.661078 -0.266280
Cl16  Cl    Cl    0.077254 0.104736 0.338922 -0.266280

loop_
_geom_bond_atom_site_label_1
_geom_bond_atom_site_label_2
_ccdc_geom_bond_type
C25   Cl2   S    
C17   Cl9   S    
C9    C34   A    
O3    V2    S    
O13   V4    S    
O14   V3    S    
C12   C35   A    
C21   Cl13  S    
C13   C38   A    
O5    C4    A    
C15   C40   A    
O11   C3    A    
C16   C39   A    
O20   V1    S    
C38   C46   A    
C31   Cl8   S    
C22   C45   A    
C38   Br5   S    
C35   C43   A    
C34   C42   A    
C19   C44   A    
C5    C15   S    
C18   C41   A    
C8    C14   S    
C29   Cl6   S    
O4    V1    S    
C20   Cl12  S    
O9    V1    S    
C14   C37   A    
C4    C10   S    
C20   C28   A    
O17   V4    S    
O15   C7    A    
O11   V3    S    
O18   V3    S    
O16   C8    A    
O12   V4    S    
O19   V2    S    
C22   C30   A    
C17   C25   A    
O5    V1    S    
C39   Br8   S    
O17   V1    S    
O7    V3    S    
O19   V3    S    
C43   C44   A    
O8    V4    S    
O20   V4    S    
C3    C9    S    
C32   Cl7   S    
C9    C26   A    
C7    C13   S    
C34   Br1   S    
O1    V4    S    
C19   Cl11  S    
O2    V3    S    
C18   Cl10  S    
C33   Br2   S    
C28   Cl3   S    
O6    C3    A    
C10   C33   A    
O10   V2    S    
C15   C32   A    
C22   Cl14  S    
C37   Br6   S    
O7    C2    A    
C6    C16   S    
O12   C4    A    
O13   C5    A    
C12   C27   A    
C18   C26   A    
C13   C30   A    
O9    C1    A    
O6    V2    S    
C39   C47   A    
O18   V2    S    
C40   Br7   S    
C24   C47   A    
C11   C28   A    
O15   V2    S    
C23   C31   A    
C37   C45   A    
C24   C32   A    
C10   C25   A    
C24   Cl16  S    
C21   C46   A    
C33   C41   A    
C20   C43   A    
C16   C31   A    
C30   Cl5   S    
C17   C42   A    
C36   Br3   S    
O8    C1    A    
O14   C6    A    
O16   V1    S    
C47   C48   A    
O4    C5    A    
C19   C27   A    
C14   C29   A    
O10   C2    A    
C35   Br4   S    
C40   C48   A    
C45   C46   A    
C23   C48   A    
C21   C29   A    
C36   C44   A    
O1    C8    A    
C41   C42   A    
O2    C7    A    
C23   Cl15  S    
C11   C36   A    
O3    C6    A    
C1    C11   S    
C2    C12   S    
C27   Cl4   S    
C26   Cl1   S    
