data_mof_unit_8256.cif
_audit_creation_date              2012-12-10T17:49:40-0500
_audit_creation_method            fapswitch 2.2
_symmetry_space_group_name_H-M    P1
_symmetry_Int_Tables_number       1
_space_group_crystal_system       triclinic
_cell_length_a                    10.528302
_cell_length_b                    10.68986
_cell_length_c                    9.94069
_cell_angle_alpha                 89.259538
_cell_angle_beta                  90.724918
_cell_angle_gamma                 93.467993
_cell_volume                      1116.56462778

loop_
_atom_site_label
_atom_site_type_symbol
_atom_type_description
_atom_site_fract_x
_atom_site_fract_y
_atom_site_fract_z
_atom_type_partial_charge
C1    C     C_R   0.519918 0.263304 0.502034 0.900801
C2    C     C_R   0.531138 0.064950 0.630377 0.043919
C3    C     C_R   0.551004 0.133247 0.509045 -0.230309
C4    C     C_R   0.257903 0.502147 0.499083 0.936253
C5    C     C_R   0.576322 0.071330 0.389967 0.325432
C6    C     C_R   0.554642 0.942236 0.385227 0.049811
C7    C     C_R   0.503648 0.876649 0.499318 -0.172135
C8    C     C_R   0.321620 0.322753 0.127404 0.130885
C9    C     C_R   0.243589 0.243497 0.045744 -0.248813
C10   C     C_R   0.249765 0.249158 0.908215 0.109631
C11   C     C_R   0.335010 0.335233 0.850144 -0.135960
C12   C     C_3   0.961107 0.609285 0.449452 0.298126
C13   C     C_R   0.417191 0.417320 0.924997 0.078960
C14   C     C_R   0.414559 0.414984 0.070022 0.179805
C15   C     C_R   0.579254 0.578836 0.071491 -0.083106
C16   C     C_R   0.496514 0.740845 0.499294 0.939492
C17   C     C_R   0.579059 0.578855 0.928818 -0.048624
C18   C     C_R   0.742076 0.498933 0.500996 0.975636
C19   C     C_3   0.038652 0.391723 0.551235 -0.284805
C20   C     C_3   0.950891 0.403817 0.425300 -0.234862
C21   C     C_3   0.876523 0.498724 0.502870 -0.228917
C22   C     C_3   0.962072 0.486367 0.627563 0.405160
C23   C     C_3   0.036723 0.515221 0.374532 0.051154
C24   C     C_3   0.047807 0.596742 0.574025 0.323401
C25   C     C_3   0.123279 0.503091 0.497480 -0.198359
C26   C     C_R   0.552390 0.117185 0.759792 -0.084992
C27   C     C_R   0.503610 0.055899 0.874115 -0.150947
C28   C     C_R   0.433096 0.942674 0.861034 -0.175800
C29   C     C_R   0.422645 0.885406 0.735833 -0.080264
C30   C     C_R   0.484234 0.940651 0.621282 0.043255
Cl1   Cl    Cl    0.914113 0.465182 0.798236 -0.549138
Cl2   Cl    Cl    0.111095 0.724552 0.672002 -0.580133
Cl3   Cl    Cl    0.906378 0.751757 0.381267 -0.593187
Cl4   Cl    Cl    0.644017 0.152371 0.248518 -0.649372
H1    H     H_    0.907972 0.325995 0.363630 0.220042
H2    H     H_    0.516856 0.098336 0.971934 0.191677
H3    H     H_    0.531127 0.913293 0.184446 0.199690
H4    H     H_    0.681030 0.894540 0.244405 0.264624
H5    H     H_    0.312517 0.208426 0.289357 0.180467
H6    H     H_    0.202112 0.314415 0.283755 0.198431
H7    H     H_    0.108735 0.109708 0.883918 0.223577
H8    H     H_    0.226880 0.110789 0.772290 0.202951
H9    H     H_    0.998828 0.536750 0.175070 0.245916
H10   H     H_    0.130528 0.618088 0.229308 0.224233
H11   H     H_    0.388871 0.897734 0.948271 0.156846
H12   H     H_    0.365399 0.798530 0.730828 0.211442
H13   H     H_    0.644350 0.643342 0.124897 0.173782
H14   H     H_    0.175939 0.175980 0.091989 0.162074
H15   H     H_    0.333680 0.333387 0.744359 0.221034
H16   H     H_    0.643938 0.643632 0.875408 0.176831
H17   H     H_    0.074074 0.303433 0.593162 0.200058
H18   H     H_    0.607916 0.204609 0.773961 0.190398
N1    N     N_R   0.498800 0.498800 0.142780 -0.106390
N2    N     N_R   0.498760 0.498720 0.857170 -0.122172
N3    N     N_3   0.584187 0.877984 0.264454 -0.402169
N4    N     N_3   0.298451 0.302550 0.266242 -0.352829
N5    N     N_3   0.168760 0.168715 0.824856 -0.427177
N6    N     N_3   0.079755 0.531218 0.236299 -0.402029
O1    O     O_R   0.500000 0.316780 0.614690 -0.679173
O2    O     O_R   0.499990 0.316750 0.385360 -0.555783
O3    O     O_R   0.313960 0.499980 0.614650 -0.625334
O4    O     O_R   0.313940 0.499960 0.385310 -0.608843
O5    O     O_R   0.500010 0.683250 0.614640 -0.636026
O6    O     O_R   0.500000 0.683220 0.385310 -0.593777
O7    O     O_R   0.686060 0.500040 0.614690 -0.589213
O8    O     O_R   0.686040 0.500020 0.385350 -0.589456
Zn1   Zn    Zn3+2 0.500010 0.500020 0.653130 0.971188
Zn2   Zn    Zn3+2 0.499990 0.499980 0.346870 1.013111

loop_
_geom_bond_atom_site_label_1
_geom_bond_atom_site_label_2
_ccdc_geom_bond_type
C17   H16   S    
C23   N6    S    
O8    Zn2   S    
C24   Cl2   S    
C4    O3    A    
C6    C7    A    
C11   H15   S    
C16   O5    A    
C26   H18   S    
C27   H2    S    
C18   O8    A    
C18   C21   S    
C13   N2    A    
C9    C10   A    
O3    Zn1   S    
H5    N4    S    
C20   C23   S    
C15   H13   S    
C29   H12   S    
C2    C30   A    
O1    Zn1   S    
C5    Cl4   S    
C8    N4    S    
C23   C25   S    
C2    C3    A    
C3    C5    A    
H7    N5    S    
C2    C26   A    
C7    C30   A    
H6    N4    S    
C21   C22   S    
C24   C25   S    
C18   O7    A    
C11   C13   A    
C12   C23   S    
O2    Zn2   S    
C26   C27   A    
C29   C30   A    
C6    N3    S    
C15   N1    A    
H8    N5    S    
C28   C29   A    
C4    C25   S    
C19   H17   S    
C22   C24   S    
O4    Zn2   S    
C1    O1    A    
C5    C6    A    
C19   C25   S    
O5    Zn1   S    
C28   H11   S    
C10   C11   A    
H3    N3    S    
O6    Zn2   S    
C4    O4    A    
C14   N1    A    
C20   C21   S    
C10   N5    S    
C9    H14   S    
C19   C22   S    
C22   Cl1   S    
C1    O2    A    
C27   C28   A    
C15   C17   A    
N1    Zn2   S    
C12   C24   S    
C7    C16   S    
C8    C14   A    
N2    Zn1   S    
C16   O6    A    
H9    N6    S    
O7    Zn1   S    
C12   Cl3   S    
C13   C14   A    
C20   H1    S    
C12   C21   S    
C17   N2    A    
H4    N3    S    
C19   C20   S    
H10   N6    S    
C8    C9    A    
C1    C3    S    
