data_mof_unit_14132.cif
_audit_creation_date              2012-12-10T18:51:34-0500
_audit_creation_method            fapswitch 2.2
_symmetry_space_group_name_H-M    P1
_symmetry_Int_Tables_number       1
_space_group_crystal_system       triclinic
_cell_length_a                    10.719054
_cell_length_b                    9.911156
_cell_length_c                    10.500001
_cell_angle_alpha                 89.620499
_cell_angle_beta                  91.199862
_cell_angle_gamma                 90.054378
_cell_volume                      1115.23195629

loop_
_atom_site_label
_atom_site_type_symbol
_atom_type_description
_atom_site_fract_x
_atom_site_fract_y
_atom_site_fract_z
_atom_type_partial_charge
C1    C     C_R   0.872490 0.500059 0.499872 -0.039525
C2    C     C_3   0.398753 0.432424 0.040699 -0.230427
C3    C     C_3   0.396805 0.559167 0.955306 0.436715
C4    C     C_3   0.603195 0.440833 0.044694 0.436715
C5    C     C_3   0.500567 0.498294 0.877319 -0.169275
C6    C     C_3   0.499433 0.501706 0.122681 -0.169275
C7    C     C_R   0.577752 0.071351 0.580728 0.312426
C8    C     C_R   0.422247 0.928648 0.419272 0.312426
C9    C     C_R   0.422235 0.072215 0.419270 0.325615
C10   C     C_R   0.577765 0.927785 0.580730 0.325616
C11   C     C_R   0.063554 0.377252 0.491539 -0.130246
C12   C     C_R   0.127510 0.499941 0.500128 -0.039525
C13   C     C_R   0.936445 0.622748 0.508461 -0.130246
C14   C     C_R   0.935805 0.377314 0.491308 -0.093190
C15   C     C_R   0.064195 0.622686 0.508692 -0.093190
C16   C     C_R   0.260078 0.499959 0.500001 0.904861
C17   C     C_R   0.739922 0.500041 0.499999 0.904860
C18   C     C_R   0.499466 0.500537 0.257557 0.965713
C19   C     C_R   0.500533 0.499463 0.742443 0.965713
C20   C     C_3   0.496139 0.629391 0.039336 -0.172645
C21   C     C_3   0.503861 0.370609 0.960664 -0.172645
C22   C     C_3   0.601246 0.567576 0.959301 -0.230427
Cl1   Cl    Cl    0.679023 0.157963 0.685922 -0.487437
Cl2   Cl    Cl    0.320977 0.842037 0.314078 -0.487437
Cl3   Cl    Cl    0.320846 0.159793 0.314017 -0.507498
Cl4   Cl    Cl    0.679154 0.840207 0.685983 -0.507498
Cl5   Cl    Cl    0.259458 0.636994 0.890863 -0.522509
Cl6   Cl    Cl    0.740542 0.363006 0.109137 -0.522509
H1    H     H_    0.491946 0.734635 0.074656 0.229405
H2    H     H_    0.508054 0.265365 0.925344 0.229405
H3    H     H_    0.683913 0.621213 0.922039 0.228475
H4    H     H_    0.316087 0.378787 0.077961 0.228475
H5    H     H_    0.111659 0.281531 0.484791 0.205536
H6    H     H_    0.888341 0.718469 0.515209 0.205536
H7    H     H_    0.887164 0.281638 0.484192 0.202536
H8    H     H_    0.112836 0.718362 0.515808 0.202536
N1    N     N_R   0.500000 0.857200 0.500000 -0.193201
N2    N     N_R   0.500000 0.142800 0.500000 -0.193200
O1    O     O_R   0.316770 0.614620 0.499990 -0.585478
O2    O     O_R   0.683230 0.385380 0.500010 -0.585478
O3    O     O_R   0.683230 0.614620 0.500010 -0.601245
O4    O     O_R   0.316770 0.385380 0.499990 -0.601245
O5    O     O_R   0.499970 0.614650 0.313950 -0.592572
O6    O     O_R   0.500030 0.385350 0.686050 -0.592572
O7    O     O_R   0.500030 0.614650 0.686050 -0.561478
O8    O     O_R   0.499970 0.385350 0.313950 -0.561478
Zn1   Zn    Zn3+2 0.500000 0.653120 0.500000 1.075444
Zn2   Zn    Zn3+2 0.500000 0.346880 0.500000 1.075444

loop_
_geom_bond_atom_site_label_1
_geom_bond_atom_site_label_2
_ccdc_geom_bond_type
C7    C10   A    
C11   C12   A    
C19   O7    A    
C5    C19   S    
N1    Zn1   S    
C4    C22   S    
C21   H2    S    
C1    C17   S    
C12   C15   A    
C10   Cl4   S    
C2    C21   S    
C3    Cl5   S    
C2    C3    S    
O3    Zn1   S    
C9    Cl3   S    
C3    C20   S    
O4    Zn2   S    
C18   O5    A    
C4    C21   S    
C2    C6    S    
O5    Zn1   S    
C10   N1    A    
C7    Cl1   S    
C18   O8    A    
C4    C6    S    
C9    N2    A    
C8    Cl2   S    
C7    N2    A    
C20   C22   S    
C17   O3    A    
C20   H1    S    
O7    Zn1   S    
C13   C15   A    
C12   C16   S    
C6    C18   S    
C11   C14   A    
O8    Zn2   S    
C1    C13   A    
C8    N1    A    
C16   O1    A    
C16   O4    A    
C15   H8    S    
C11   H5    S    
C6    C20   S    
C19   O6    A    
C2    H4    S    
C22   H3    S    
C14   H7    S    
O2    Zn2   S    
C13   H6    S    
C1    C14   A    
C4    Cl6   S    
O1    Zn1   S    
N2    Zn2   S    
C17   O2    A    
C5    C22   S    
O6    Zn2   S    
C8    C9    A    
C3    C5    S    
C5    C21   S    
