data_mof_unit_10686.cif
_audit_creation_date              2012-10-26T18:29:00-0400
_audit_creation_method            fapswitch 2.2
_symmetry_space_group_name_H-M    P1
_symmetry_Int_Tables_number       1
_space_group_crystal_system       triclinic
_cell_length_a                    11.76114
_cell_length_b                    12.986493
_cell_length_c                    15.792854
_cell_angle_alpha                 93.883742
_cell_angle_beta                  73.862965
_cell_angle_gamma                 100.067151
_cell_volume                      2280.95518415

loop_
_atom_site_label
_atom_site_type_symbol
_atom_type_description
_atom_site_fract_x
_atom_site_fract_y
_atom_site_fract_z
_atom_type_partial_charge
C1    C     C_R   0.520222 0.700059 0.502368 0.564394
C2    C     C_R   0.436439 0.025882 0.410926 0.272046
C3    C     C_R   0.549809 0.861866 0.586317 -0.194618
C4    C     C_R   0.432453 0.132243 0.425438 -0.194012
C5    C     C_R   0.494809 0.866200 0.449424 0.257195
C6    C     C_R   0.515237 0.134452 0.550605 0.274355
C7    C     C_R   0.482070 0.972122 0.466044 -0.033094
C8    C     C_R   0.513896 0.025196 0.540562 -0.030164
C9    C     C_R   0.952140 0.614278 0.566648 0.237773
C10   C     C_R   0.049784 0.389236 0.429187 0.240709
C11   C     C_R   0.829812 0.599021 0.566543 0.169595
C12   C     C_R   0.479175 0.299474 0.499328 0.581822
C13   C     C_R   0.170832 0.401701 0.432545 0.165549
C14   C     C_R   0.856283 0.452178 0.469414 0.014836
C15   C     C_R   0.144926 0.549815 0.528279 0.033436
C16   C     C_R   0.426502 0.495524 0.668471 0.562158
C17   C     C_R   0.573604 0.507031 0.331766 0.548045
C18   C     C_R   0.976861 0.460844 0.473477 -0.044659
C19   C     C_R   0.024992 0.542148 0.523041 -0.046290
C20   C     C_R   0.380645 0.493208 0.765791 -0.003209
C21   C     C_R   0.619158 0.523570 0.235761 -0.018221
C22   C     C_R   0.219429 0.456240 0.901412 0.012825
C23   C     C_R   0.354005 0.487590 0.090925 -0.131709
C24   C     C_R   0.771328 0.600762 0.106962 0.004817
C25   C     C_R   0.256980 0.470151 0.809249 0.284328
C26   C     C_R   0.738868 0.568261 0.195346 0.265339
C27   C     C_R   0.463711 0.513507 0.815458 -0.190673
C28   C     C_R   0.536648 0.502581 0.185923 -0.187870
C29   C     C_R   0.428137 0.512197 0.907927 0.007038
C30   C     C_R   0.565268 0.533840 0.098233 0.005950
C31   C     C_R   0.305066 0.479088 0.950960 0.023287
C32   C     C_R   0.684896 0.581291 0.057781 0.017878
C33   C     C_R   0.513265 0.538557 0.958237 0.047174
C34   C     C_R   0.632265 0.587170 0.920240 -0.133215
C35   C     C_R   0.477353 0.518683 0.049915 0.047221
C36   C     C_3   0.242201 0.320367 0.381759 -0.313098
C37   C     C_3   0.757355 0.676851 0.622562 -0.305371
C38   C     C_3   0.054343 0.780521 0.557839 -0.148690
C39   C     C_3   0.963963 0.216903 0.427926 -0.154850
C40   C     C_3   0.883177 0.500942 0.232783 -0.099187
C41   C     C_3   0.127673 0.547372 0.762072 -0.104361
C42   C     C_3   0.089098 0.414522 0.945834 -0.386261
C43   C     C_3   0.896236 0.659471 0.066794 -0.390619
C44   C     C_3   0.683597 0.213032 0.588925 -0.059276
C45   C     C_R   0.270171 0.469455 0.042784 -0.128601
C46   C     C_3   0.575237 0.809846 0.309712 -0.065565
C47   C     C_3   0.638146 0.982608 0.716473 -0.116905
C48   C     C_3   0.276645 0.962878 0.357165 -0.083946
C49   C     C_R   0.715342 0.608924 0.969028 -0.130480
C50   C     C_R   0.471548 0.186247 0.493888 -0.041885
C51   C     C_R   0.527432 0.812389 0.510471 -0.045466
C52   C     C_R   0.544087 0.968510 0.602811 0.275406
Cu1   Cu    Cu3+1 0.386820 0.492450 0.493500 0.967958
Cu2   Cu    Cu3+1 0.613180 0.507550 0.506500 0.944470
H1    H     H_    0.177308 0.447027 0.079111 0.111291
H2    H     H_    0.820197 0.391915 0.428878 0.159198
H3    H     H_    0.215040 0.294873 0.320694 0.129551
H4    H     H_    0.338473 0.346694 0.357614 0.159907
H5    H     H_    0.225481 0.251058 0.423495 0.110503
H6    H     H_    0.776993 0.687838 0.687747 0.118942
H7    H     H_    0.781834 0.753470 0.589584 0.110006
H8    H     H_    0.660375 0.654895 0.638685 0.160944
H9    H     H_    0.132890 0.759568 0.505901 0.131169
H10   H     H_    0.087928 0.847193 0.596928 0.145296
H11   H     H_    0.991040 0.807546 0.526715 0.107610
H12   H     H_    0.804487 0.646815 0.935333 0.115099
H13   H     H_    0.885699 0.172189 0.408141 0.128517
H14   H     H_    0.935268 0.230549 0.500706 0.090528
H15   H     H_    0.034857 0.166947 0.411821 0.121202
H16   H     H_    0.820617 0.427693 0.256799 0.128737
H17   H     H_    0.949224 0.515617 0.272298 0.153563
H18   H     H_    0.933676 0.490175 0.162769 0.097332
H19   H     H_    0.059043 0.533868 0.724779 0.160617
H20   H     H_    0.199545 0.611287 0.729486 0.124714
H21   H     H_    0.082979 0.572387 0.830240 0.101215
H22   H     H_    0.033327 0.395332 0.898938 0.180847
H23   H     H_    0.449646 0.460035 0.217531 0.124024
H24   H     H_    0.082958 0.341271 0.980417 0.129617
H25   H     H_    0.049621 0.473295 0.994146 0.099875
H26   H     H_    0.953078 0.672597 0.113189 0.177992
H27   H     H_    0.942707 0.615234 0.008724 0.105400
H28   H     H_    0.889940 0.737732 0.045883 0.124092
H29   H     H_    0.715296 0.275075 0.632767 0.144883
H30   H     H_    0.718666 0.241333 0.520292 0.100243
H31   H     H_    0.723434 0.143090 0.593595 0.112990
H32   H     H_    0.553056 0.769127 0.250875 0.150090
H33   H     H_    0.635794 0.765319 0.329852 0.118560
H34   H     H_    0.557314 0.527289 0.780136 0.131565
H35   H     H_    0.622502 0.890188 0.289985 0.128115
H36   H     H_    0.720741 0.972264 0.663390 0.082836
H37   H     H_    0.600223 0.909711 0.754332 0.116628
H38   H     H_    0.665092 0.043823 0.762825 0.149226
H39   H     H_    0.245328 0.038821 0.356947 0.087589
H40   H     H_    0.231518 0.923076 0.420889 0.106296
H41   H     H_    0.249257 0.912318 0.304406 0.148738
H42   H     H_    0.317738 0.480403 0.161236 0.111516
H43   H     H_    0.663232 0.613627 0.853224 0.097427
H44   H     H_    0.404731 0.173974 0.379578 0.118187
H45   H     H_    0.564896 0.814933 0.634966 0.100839
H46   H     H_    0.181414 0.610584 0.568194 0.160969
N1    N     N_R   0.216750 0.481110 0.483710 -0.250629
N2    N     N_R   0.783250 0.518890 0.516290 -0.256180
O1    O     O_R   0.419950 0.645670 0.495380 -0.473477
O2    O     O_3   0.004052 0.309609 0.378754 -0.603226
O3    O     O_3   0.822035 0.587415 0.243977 -0.561548
O4    O     O_3   0.173239 0.453517 0.761093 -0.553206
O5    O     O_3   0.556802 0.191791 0.616403 -0.491240
O6    O     O_3   0.467601 0.812485 0.376838 -0.510399
O7    O     O_3   0.550123 0.015516 0.683902 -0.504667
O8    O     O_3   0.402704 0.976528 0.339141 -0.517498
O9    O     O_R   0.580050 0.354330 0.504620 -0.494030
O10   O     O_R   0.611110 0.658410 0.506370 -0.523208
O11   O     O_R   0.388890 0.341590 0.493630 -0.514755
O12   O     O_R   0.350820 0.490050 0.621260 -0.451103
O13   O     O_R   0.649180 0.509950 0.378740 -0.457529
O14   O     O_R   0.541970 0.502800 0.632250 -0.525282
O15   O     O_R   0.458030 0.497200 0.367750 -0.522454
O16   O     O_3   0.997390 0.696545 0.614934 -0.607367

loop_
_geom_bond_atom_site_label_1
_geom_bond_atom_site_label_2
_ccdc_geom_bond_type
C48   O8    S    
C21   C26   A    
C23   C45   A    
C48   H41   S    
C4    H44   S    
C27   C29   A    
C39   H14   S    
C14   C18   A    
C14   H2    S    
C2    C7    A    
C15   H46   S    
C44   H29   S    
C37   H8    S    
C39   O2    S    
C46   H35   S    
Cu1   Cu2   S    
C15   C19   A    
C40   H16   S    
C30   C35   A    
C40   H17   S    
C24   C26   A    
C38   H9    S    
C36   H4    S    
C1    O10   A    
Cu1   O15   S    
C14   N2    A    
C20   C25   A    
C29   C33   A    
C34   H43   S    
C23   H42   S    
C18   C19   A    
C47   H38   S    
C11   C37   S    
C41   H20   S    
C9    C19   A    
Cu1   N1    S    
C22   C25   A    
Cu2   O14   S    
C6    O5    S    
C1    O1    A    
C17   O15   A    
C36   H5    S    
C42   H25   S    
Cu1   O1    S    
C9    O16   S    
C39   H13   S    
C16   O14   A    
C26   O3    S    
Cu1   O11   S    
C25   O4    S    
C38   H10   S    
C32   C49   A    
C22   C31   A    
C7    C8    A    
C13   C36   S    
C36   H3    S    
C41   O4    S    
C5    C7    A    
C3    C51   A    
C6    C8    A    
C43   H26   S    
C47   O7    S    
C6    C50   A    
C46   O6    S    
C49   H12   S    
C2    C4    A    
C24   C32   A    
C41   H21   S    
C9    C11   A    
C12   C50   S    
C38   H11   S    
C16   C20   S    
Cu2   O13   S    
C33   C34   A    
C39   H15   S    
Cu2   O10   S    
C15   N1    A    
C28   H23   S    
C1    C51   S    
C48   H40   S    
C21   C28   A    
C42   H24   S    
C23   C35   A    
C43   H27   S    
C47   H36   S    
C13   N1    A    
C44   H31   S    
Cu1   O12   S    
C17   O13   A    
C46   H33   S    
C44   O5    S    
C24   C43   S    
C8    C52   A    
C2    O8    S    
C34   C49   A    
C40   H18   S    
C47   H37   S    
Cu2   N2    S    
C44   H30   S    
C10   C13   A    
C16   O12   A    
C37   H7    S    
C3    C52   A    
C20   C27   A    
C42   H22   S    
C10   O2    S    
C29   C31   A    
C30   C32   A    
C22   C42   S    
C52   O7    S    
C10   C18   A    
C28   C30   A    
C33   C35   A    
Cu2   O9    S    
C12   O11   A    
C11   N2    A    
C27   H34   S    
C17   C21   S    
C48   H39   S    
C37   H6    S    
C41   H19   S    
C38   O16   S    
C3    H45   S    
C45   H1    S    
C31   C45   A    
C4    C50   A    
C43   H28   S    
C5    C51   A    
C12   O9    A    
C40   O3    S    
C46   H32   S    
C5    O6    S    
