data_mof_unit_62368.cif
_audit_creation_date              2012-12-10T19:07:15-0500
_audit_creation_method            fapswitch 2.2
_symmetry_space_group_name_H-M    P1
_symmetry_Int_Tables_number       1
_space_group_crystal_system       triclinic
_cell_length_a                    13.048023
_cell_length_b                    13.625938
_cell_length_c                    19.166631
_cell_angle_alpha                 89.927956
_cell_angle_beta                  92.382455
_cell_angle_gamma                 85.836165
_cell_volume                      3395.70152183

loop_
_atom_site_label
_atom_site_type_symbol
_atom_type_description
_atom_site_fract_x
_atom_site_fract_y
_atom_site_fract_z
_atom_type_partial_charge
C1    C     C_R   0.481279 0.685150 0.499343 0.885803
C2    C     C_2   0.967186 0.525578 0.521205 0.029911
C3    C     C_1   0.854690 0.519109 0.514868 0.140385
C4    C     C_1   0.145308 0.480909 0.485128 0.140491
C5    C     C_R   0.498462 0.503566 0.634544 0.841203
C6    C     C_R   0.501381 0.497655 0.365390 0.841803
C7    C     C_R   0.413554 0.574780 0.740142 -0.058401
C8    C     C_R   0.586353 0.443812 0.255393 -0.057082
C9    C     C_R   0.415789 0.587859 0.813555 -0.029758
C10   C     C_R   0.585447 0.444596 0.181418 -0.027023
C11   C     C_R   0.497635 0.539427 0.854016 -0.016064
C12   C     C_R   0.518719 0.314849 0.500670 0.889583
C13   C     C_R   0.503947 0.499435 0.144594 -0.014785
C14   C     C_R   0.577861 0.485177 0.822457 -0.135174
C15   C     C_R   0.422918 0.546666 0.179748 -0.137754
C16   C     C_R   0.576778 0.474644 0.751013 -0.180066
C17   C     C_R   0.422609 0.543511 0.251524 -0.178507
C18   C     C_R   0.494807 0.517108 0.709753 -0.133963
C19   C     C_R   0.504083 0.494246 0.289618 -0.136612
C20   C     C_R   0.502193 0.511654 0.069189 0.255454
C21   C     C_R   0.497773 0.536554 0.929823 0.253332
C22   C     C_2   0.332586 0.626259 0.694174 0.549998
C23   C     C_1   0.533529 0.211718 0.501023 -0.175014
C24   C     C_2   0.666744 0.385010 0.297502 0.538394
C25   C     C_2   0.340743 0.657535 0.848800 0.423260
C26   C     C_2   0.661091 0.381955 0.141394 0.424110
C27   C     C_1   0.466456 0.788275 0.499102 -0.175415
C28   C     C_2   0.544536 0.020584 0.501204 -0.154645
C29   C     C_2   0.455430 0.979406 0.499118 -0.154707
C30   C     C_1   0.457565 0.875672 0.499023 0.019716
C31   C     C_1   0.542407 0.124320 0.501205 0.019578
C32   C     C_2   0.032811 0.474458 0.478786 0.030828
H1    H     H_    0.640381 0.448039 0.853525 0.160956
H2    H     H_    0.639062 0.355642 0.089907 0.067506
H3    H     H_    0.984136 0.564096 0.622388 0.212187
H4    H     H_    0.974308 0.659238 0.565517 0.193193
H5    H     H_    0.015857 0.435966 0.377599 0.213017
H6    H     H_    0.025692 0.340809 0.434458 0.191950
H7    H     H_    0.360432 0.588256 0.151467 0.160824
H8    H     H_    0.639305 0.431063 0.727888 0.162009
H9    H     H_    0.359644 0.582252 0.277591 0.163060
H10   H     H_    0.382069 0.022822 0.497469 0.165030
H11   H     H_    0.617896 0.977166 0.502839 0.165113
H12   H     H_    0.353702 0.678528 0.655457 0.012711
H13   H     H_    0.644813 0.327584 0.331990 0.010943
H14   H     H_    0.361446 0.688019 0.899277 0.069698
N1    N     N_R   0.586510 0.543960 0.968088 -0.156841
N2    N     N_R   0.413271 0.505152 0.031007 -0.156264
N3    N     N_R   0.588485 0.532457 0.036883 -0.155288
N4    N     N_R   0.411286 0.516704 0.962239 -0.155212
N5    N     N_1   0.234540 0.484780 0.488910 -0.085202
N6    N     N_1   0.765460 0.515220 0.511090 -0.084967
N7    N     N_3   0.007778 0.587980 0.574162 -0.418478
N8    N     N_3   0.992218 0.412068 0.425822 -0.420379
O1    O     O_R   0.402510 0.634760 0.495940 -0.608986
O2    O     O_2   0.756453 0.404962 0.297670 -0.492333
O3    O     O_2   0.255454 0.681400 0.823186 -0.505600
O4    O     O_2   0.748494 0.360127 0.164045 -0.500103
O5    O     O_R   0.597490 0.365240 0.504060 -0.606932
O6    O     O_R   0.572960 0.644530 0.503060 -0.601130
O7    O     O_R   0.427040 0.355470 0.496940 -0.601497
O8    O     O_R   0.414750 0.495120 0.598300 -0.599707
O9    O     O_R   0.585250 0.504880 0.401700 -0.597514
O10   O     O_R   0.585190 0.504900 0.605420 -0.610934
O11   O     O_R   0.414810 0.495100 0.394580 -0.611292
O12   O     O_2   0.243230 0.605728 0.696187 -0.495331
Zn1   Zn    Zn3+2 0.386190 0.493480 0.495250 0.997742
Zn2   Zn    Zn3+2 0.613810 0.506520 0.504750 0.999173

loop_
_geom_bond_atom_site_label_1
_geom_bond_atom_site_label_2
_ccdc_geom_bond_type
C6    O9    A    
O1    Zn1   S    
C3    N6    T    
C8    C10   A    
C15   C17   A    
C20   N3    A    
C6    C19   S    
O5    Zn2   S    
H3    N7    S    
C7    C22   S    
C9    C11   A    
O7    Zn1   S    
C28   H11   S    
H6    N8    S    
C7    C18   A    
C1    C27   S    
C10   C26   S    
C14   H1    S    
N2    N4    A    
C2    C3    S    
C1    O1    A    
C9    C25   S    
N1    N3    A    
C20   N2    A    
C21   N1    A    
C27   C30   T    
C12   O7    A    
C26   O4    D    
C12   C23   S    
C15   H7    S    
C4    C32   S    
C25   O3    D    
O8    Zn1   S    
C16   H8    S    
H5    N8    S    
O10   Zn2   S    
C2    C32   D    
C28   C29   D    
C17   C19   A    
C11   C21   S    
C5    O8    A    
C14   C16   A    
C13   C15   A    
C5    C18   S    
C29   H10   S    
C11   C14   A    
C17   H9    S    
C8    C19   A    
C24   O2    D    
C24   H13   S    
C4    N5    T    
C29   C30   S    
C2    N7    S    
C6    O11   A    
O6    Zn2   S    
C16   C18   A    
C1    O6    A    
C32   N8    S    
C7    C9    A    
O9    Zn2   S    
C22   O12   D    
N5    Zn1   S    
H4    N7    S    
C21   N4    A    
C13   C20   S    
C8    C24   S    
N6    Zn2   S    
C12   O5    A    
C25   H14   S    
C26   H2    S    
C28   C31   S    
C22   H12   S    
C5    O10   A    
O11   Zn1   S    
C10   C13   A    
C23   C31   T    
