data_mof_unit_29316.cif
_audit_creation_date              2012-10-26T21:13:42-0400
_audit_creation_method            fapswitch 2.2
_symmetry_space_group_name_H-M    P1
_symmetry_Int_Tables_number       1
_space_group_crystal_system       triclinic
_cell_length_a                    9.053032
_cell_length_b                    10.783593
_cell_length_c                    9.607467
_cell_angle_alpha                 90.798545
_cell_angle_beta                  89.974227
_cell_angle_gamma                 91.12513
_cell_volume                      937.64947541

loop_
_atom_site_label
_atom_site_type_symbol
_atom_type_description
_atom_site_fract_x
_atom_site_fract_y
_atom_site_fract_z
_atom_type_partial_charge
C1    C     C_R   0.504868 0.262919 0.498966 0.548932
C2    C     C_R   0.543904 0.603002 0.927907 0.182428
C3    C     C_3   0.679703 0.681493 0.913492 0.131966
C4    C     C_R   0.220878 0.497699 0.499968 0.532054
C5    C     C_3   0.698814 0.670821 0.072520 -0.114770
C6    C     C_R   0.496904 0.737213 0.500597 0.537105
C7    C     C_R   0.779081 0.499626 0.500098 0.545571
C8    C     C_1   0.065590 0.497160 0.500262 -0.093062
C9    C     C_1   0.934324 0.497905 0.500421 -0.092530
C10   C     C_R   0.390671 0.065533 0.560595 -0.039368
C11   C     C_R   0.505553 0.129445 0.494901 0.007183
C12   C     C_R   0.603141 0.932341 0.418090 -0.138833
C13   C     C_R   0.610255 0.062291 0.415730 -0.014596
C14   C     C_3   0.739272 0.124223 0.341799 -0.275151
C15   C     C_3   0.859163 0.165084 0.445321 -0.429926
C16   C     C_3   0.771777 0.873345 0.850845 -0.010730
C17   C     C_3   0.731944 0.006936 0.822646 -0.371645
C18   C     C_3   0.838693 0.597726 0.109354 -0.296617
C19   C     C_3   0.938553 0.673343 0.208086 -0.436668
C20   C     C_3   0.149024 0.770753 0.702365 -0.005212
C21   C     C_3   0.155382 0.716055 0.847882 -0.373290
C22   C     C_3   0.313770 0.317429 0.131810 -0.250968
C23   C     C_R   0.496234 0.870490 0.498582 -0.019552
C24   C     C_3   0.156495 0.333947 0.077146 -0.469022
C25   C     C_R   0.382593 0.938009 0.559977 0.023606
C26   C     C_3   0.318297 0.936340 0.704512 0.143581
C27   C     C_3   0.333002 0.077137 0.705385 -0.213355
C28   C     C_R   0.554209 0.599070 0.072555 0.126674
C29   C     C_R   0.421536 0.411420 0.070240 0.108299
C30   C     C_R   0.432391 0.407859 0.922179 -0.002425
Cu1   Cu    Cu3+1 0.499990 0.499980 0.640670 0.918551
Cu2   Cu    Cu3+1 0.500010 0.500020 0.359330 0.905614
H1    H     H_    0.688159 0.761263 0.128615 0.156930
H2    H     H_    0.902925 0.083190 0.499507 0.164736
H3    H     H_    0.789036 0.058838 0.265356 0.128032
H4    H     H_    0.702926 0.204424 0.280560 0.175233
H5    H     H_    0.831140 0.836755 0.758276 0.152967
H6    H     H_    0.845615 0.873249 0.943508 0.129510
H7    H     H_    0.668511 0.045686 0.911597 0.143671
H8    H     H_    0.834218 0.063827 0.807984 0.117654
H9    H     H_    0.664540 0.011169 0.726671 0.159477
H10   H     H_    0.974732 0.761116 0.158242 0.131432
H11   H     H_    0.879102 0.696482 0.305791 0.163947
H12   H     H_    0.686564 0.879255 0.364051 0.111083
H13   H     H_    0.038121 0.619681 0.233313 0.162484
H14   H     H_    0.810000 0.506554 0.154341 0.195164
H15   H     H_    0.905417 0.575962 0.015459 0.110611
H16   H     H_    0.229395 0.726217 0.632271 0.169145
H17   H     H_    0.038837 0.748126 0.657319 0.128387
H18   H     H_    0.075525 0.762957 0.917270 0.134926
H19   H     H_    0.126756 0.615506 0.842503 0.119299
H20   H     H_    0.267725 0.727379 0.892630 0.157852
H21   H     H_    0.121611 0.431095 0.094404 0.159706
H22   H     H_    0.148546 0.310407 0.964559 0.136640
H23   H     H_    0.388341 0.892176 0.784144 0.171280
H24   H     H_    0.078869 0.271408 0.133624 0.135085
H25   H     H_    0.350750 0.222217 0.105650 0.115536
H26   H     H_    0.303374 0.323720 0.244338 0.223336
H27   H     H_    0.225930 0.125944 0.709209 0.157985
H28   H     H_    0.417700 0.113327 0.780020 0.092307
H29   H     H_    0.380222 0.333065 0.863123 0.125993
H30   H     H_    0.762588 0.636392 0.844610 0.121799
H31   H     H_    0.951365 0.211861 0.389168 0.135639
H32   H     H_    0.814722 0.230706 0.524052 0.159746
N1    N     N_R   0.500920 0.500930 0.147930 -0.240095
N2    N     N_R   0.500930 0.500890 0.852020 -0.271162
O1    O     O_R   0.500000 0.319640 0.618810 -0.510290
O2    O     O_3   0.166789 0.901024 0.706754 -0.579607
O3    O     O_R   0.500020 0.319680 0.381230 -0.529631
O4    O     O_R   0.288380 0.499980 0.618770 -0.509582
O5    O     O_R   0.288400 0.500020 0.381190 -0.508647
O6    O     O_R   0.499980 0.680320 0.618770 -0.480621
O7    O     O_R   0.500000 0.680360 0.381190 -0.497756
O8    O     O_R   0.711600 0.499980 0.618810 -0.502647
O9    O     O_R   0.711620 0.500020 0.381230 -0.500388
O10   O     O_3   0.641695 0.802521 0.874112 -0.581012

loop_
_geom_bond_atom_site_label_1
_geom_bond_atom_site_label_2
_ccdc_geom_bond_type
C10   C27   S    
Cu1   N2    S    
C22   C29   S    
C1    C11   S    
C4    C8    S    
C26   H23   S    
Cu2   O9    S    
C4    O4    A    
C6    O6    A    
C12   C23   A    
C26   C27   S    
C29   C30   A    
C27   H28   S    
C14   H4    S    
C24   H22   S    
C18   C19   S    
C17   H7    S    
Cu1   O4    S    
C8    C9    T    
C5    H1    S    
C15   H32   S    
C7    O8    A    
C15   H2    S    
C19   H10   S    
C16   H5    S    
C23   C25   A    
C13   C14   S    
C18   H15   S    
C22   H25   S    
C18   H14   S    
C21   H18   S    
C19   H11   S    
Cu2   O5    S    
Cu2   O7    S    
C16   C17   S    
Cu1   O8    S    
C7    O9    A    
C5    C18   S    
C3    C5    S    
C24   H21   S    
C14   H3    S    
C1    O3    A    
C17   H8    S    
Cu1   O1    S    
C20   H17   S    
C5    C28   S    
Cu1   Cu2   S    
C20   H16   S    
C12   C13   A    
C3    O10   S    
C30   N2    A    
C29   N1    A    
C10   C25   A    
Cu1   O6    S    
C22   C24   S    
C21   H19   S    
C6    O7    A    
C3    H30   S    
C7    C9    S    
C16   O10   S    
C20   O2    S    
C2    N2    A    
C22   H26   S    
C19   H13   S    
Cu2   O3    S    
C24   H24   S    
C26   O2    S    
C2    C3    S    
C25   C26   S    
C12   H12   S    
C27   H27   S    
C11   C13   A    
C6    C23   S    
C1    O1    A    
C28   N1    A    
C4    O5    A    
C17   H9    S    
C10   C11   A    
C20   C21   S    
C30   H29   S    
C15   H31   S    
C14   C15   S    
C2    C28   A    
C21   H20   S    
C16   H6    S    
Cu2   N1    S    
