data_mof_unit_28102.cif
_audit_creation_date              2012-12-11T14:21:01-0500
_audit_creation_method            fapswitch 2.2
_symmetry_space_group_name_H-M    P1
_symmetry_Int_Tables_number       1
_space_group_crystal_system       triclinic
_cell_length_a                    22.043029
_cell_length_b                    7.200285
_cell_length_c                    14.923914
_cell_angle_alpha                 89.948634
_cell_angle_beta                  106.827598
_cell_angle_gamma                 89.999332
_cell_volume                      2267.23843859

loop_
_atom_site_label
_atom_site_type_symbol
_atom_type_description
_atom_site_fract_x
_atom_site_fract_y
_atom_site_fract_z
_atom_type_partial_charge
O1    O     O_R   0.584770 0.505770 0.002090 -0.523309
O2    O     O_R   0.415230 0.005770 0.997910 -0.505764
O3    O     O_R   0.467060 0.173340 0.861950 -0.542721
O4    O     O_R   0.532940 0.673340 0.138050 -0.546186
C1    C     C_R   0.454705 0.344333 0.826130 0.725250
C2    C     C_R   0.545322 0.843841 0.173926 0.661087
O5    O     O_R   0.587510 0.175890 0.993210 -0.531488
O6    O     O_R   0.412490 0.675890 0.006790 -0.533942
O7    O     O_R   0.536540 0.008150 0.130100 -0.531328
O8    O     O_R   0.463460 0.508150 0.869900 -0.533688
C3    C     C_R   0.611836 0.345840 0.992921 0.689556
C4    C     C_R   0.388144 0.845777 0.007098 0.688732
O9    O     O_3   0.483140 0.340040 0.044760 -0.364169
O10   O     O_3   0.516860 0.840040 0.955240 -0.370887
V1    V     V_3+5 0.503130 0.064190 0.991700 1.558903
V2    V     V_3+5 0.496870 0.564190 0.008300 1.536845
C5    C     C_2   0.218594 0.732132 0.017544 0.058345
C6    C     C_2   0.781555 0.232658 0.983840 0.055045
C7    C     C_2   0.179272 0.881378 0.992483 -0.341097
C8    C     C_2   0.820891 0.381803 0.008322 -0.329989
C9    C     C_2   0.281327 0.729682 0.998509 -0.268267
C10   C     C_2   0.718818 0.230699 0.002624 -0.235832
C11   C     C_2   0.326227 0.862455 0.027704 -0.170195
C12   C     C_2   0.673794 0.362781 0.972572 -0.178687
H1    H     H_    0.291673 0.609416 0.961466 0.199068
H2    H     H_    0.708444 0.110734 0.039774 0.219128
C13   C     C_R   0.927608 0.884284 0.724286 -0.029011
C14   C     C_R   0.072321 0.389374 0.275892 -0.033031
C15   C     C_R   0.576032 0.846981 0.275027 -0.088105
C16   C     C_R   0.423484 0.353288 0.725343 -0.094330
C17   C     C_R   0.938996 0.855419 0.568965 -0.153201
C18   C     C_R   0.063184 0.450686 0.430396 -0.154577
C19   C     C_R   0.966227 0.874300 0.665100 -0.181354
C20   C     C_R   0.035351 0.435734 0.334311 -0.178205
C21   C     C_R   0.861746 0.876534 0.687532 -0.180551
C22   C     C_R   0.137377 0.358374 0.313457 -0.166157
C23   C     C_R   0.832713 0.858258 0.590245 0.074645
C24   C     C_R   0.167469 0.382360 0.410248 0.074756
C25   C     C_R   0.872818 0.847043 0.531195 0.133742
C26   C     C_R   0.128784 0.426245 0.468672 0.134579
C27   C     C_R   0.765485 0.849404 0.549866 0.055016
C28   C     C_R   0.234612 0.369909 0.450444 0.052743
C29   C     C_R   0.739496 0.844155 0.450345 0.058880
C30   C     C_R   0.261073 0.381595 0.549691 0.074899
C31   C     C_R   0.781519 0.815732 0.395977 -0.131351
C32   C     C_R   0.220957 0.434852 0.603706 -0.132036
C33   C     C_R   0.846737 0.821170 0.435321 -0.187110
C34   C     C_R   0.156100 0.454011 0.564189 -0.193807
C35   C     C_R   0.723550 0.837466 0.605504 -0.150083
C36   C     C_R   0.276433 0.359212 0.394589 -0.149043
C37   C     C_R   0.658837 0.817268 0.565279 -0.178377
C38   C     C_R   0.341625 0.366283 0.434433 -0.176082
C39   C     C_R   0.632738 0.821866 0.468429 0.133580
C40   C     C_R   0.367760 0.368777 0.531387 0.126132
C41   C     C_R   0.672064 0.850587 0.409170 0.051418
C42   C     C_R   0.327928 0.358628 0.590866 0.032141
C43   C     C_R   0.567305 0.796812 0.430639 -0.155406
C44   C     C_R   0.433616 0.382297 0.569191 -0.149812
C45   C     C_R   0.539756 0.801318 0.334508 -0.157329
C46   C     C_R   0.460889 0.382753 0.665529 -0.190262
C47   C     C_R   0.641694 0.882310 0.311748 -0.156939
C48   C     C_R   0.357131 0.328927 0.688639 -0.078332
H3    H     H_    0.489450 0.774121 0.306377 0.115036
H4    H     H_    0.511785 0.398492 0.693551 0.118190
H5    H     H_    0.969721 0.845763 0.524073 0.117107
H6    H     H_    0.033660 0.486854 0.474597 0.117270
H7    H     H_    0.739297 0.833239 0.680812 0.146486
H8    H     H_    0.260372 0.358049 0.319216 0.149667
O11   O     O_R   0.036450 0.233070 0.130130 -0.545895
O12   O     O_R   0.963550 0.733070 0.869870 -0.544116
O13   O     O_R   0.912470 0.560570 0.006790 -0.545248
O14   O     O_R   0.087530 0.060570 0.993210 -0.545076
C49   C     C_R   0.886904 0.391369 0.001937 0.745236
C50   C     C_R   0.113149 0.891315 0.998341 0.744239
O15   O     O_R   0.032920 0.562940 0.138050 -0.528817
O16   O     O_R   0.967080 0.062940 0.861950 -0.529496
O17   O     O_R   0.084790 0.730500 0.002090 -0.527102
O18   O     O_R   0.915210 0.230500 0.997910 -0.525739
C51   C     C_R   0.044693 0.394515 0.174456 0.708620
C52   C     C_R   0.955518 0.894270 0.825537 0.704689
O19   O     O_3   0.016820 0.396170 0.955260 -0.381070
O20   O     O_3   0.983180 0.896170 0.044740 -0.380336
V3    V     V_3+5 0.996880 0.672090 0.008300 1.493710
V4    V     V_3+5 0.003120 0.172090 0.991700 1.493387
C53   C     C_2   0.203067 0.566769 0.065884 0.797071
O21   O     O_2   0.182833 0.585650 0.133484 -0.563365
O22   O     O_R   0.214249 0.389253 0.036494 -0.667794
H9    H     H_    0.202358 0.287907 0.075505 0.298787
C54   C     C_2   0.796889 0.067285 0.935690 0.794258
O23   O     O_2   0.817093 0.086321 0.868124 -0.567869
O24   O     O_R   0.785505 0.889795 0.965025 -0.665712
H10   H     H_    0.797283 0.788472 0.925971 0.298949
H11   H     H_    0.017347 0.878732 0.693467 0.106500
H12   H     H_    0.985072 0.462195 0.305297 0.110213
H13   H     H_    0.834767 0.885553 0.736905 0.145814
H14   H     H_    0.163165 0.319489 0.265030 0.128475
H15   H     H_    0.765099 0.778857 0.323026 0.139506
H16   H     H_    0.239320 0.473330 0.676378 0.136744
H17   H     H_    0.537513 0.769293 0.475595 0.117749
H18   H     H_    0.464049 0.395894 0.524037 0.119947
H19   H     H_    0.195798 0.000978 0.961726 0.152681
H20   H     H_    0.804437 0.501739 0.038840 0.154736
C55   C     C_2   0.318506 0.018891 0.089435 0.782188
O25   O     O_2   0.291221 0.993708 0.149084 -0.562004
O26   O     O_R   0.344660 0.193127 0.081865 -0.629564
H21   H     H_    0.337913 0.285646 0.129269 0.298067
C56   C     C_2   0.681505 0.518733 0.910438 0.769023
O27   O     O_2   0.709106 0.493278 0.851208 -0.561701
O28   O     O_R   0.654991 0.692796 0.917152 -0.636567
H22   H     H_    0.661866 0.785046 0.869647 0.298169
H23   H     H_    0.877046 0.802125 0.390335 0.127116
H24   H     H_    0.127231 0.494964 0.608602 0.125098
C57   C     C_2   0.674705 0.976408 0.250235 0.765949
O29   O     O_2   0.698869 0.128381 0.272620 -0.527851
O30   O     O_R   0.679262 0.893786 0.167647 -0.648496
H25   H     H_    0.662869 0.761590 0.159644 0.262472
C58   C     C_2   0.321412 0.244497 0.749386 0.717096
O31   O     O_2   0.328290 0.302757 0.828690 -0.555792
O32   O     O_R   0.279503 0.098023 0.714954 -0.656216
H26   H     H_    0.257924 0.052043 0.762255 0.295343
H27   H     H_    0.628766 0.799309 0.610730 0.129822
H28   H     H_    0.371943 0.369011 0.388735 0.127968

loop_
_geom_bond_atom_site_label_1
_geom_bond_atom_site_label_2
_ccdc_geom_bond_type
O22   H9    S    
C27   C29   A    
O1    C3    A    
O2    C4    A    
O16   V4    S    
C2    O7    A    
C53   O21   D    
C13   C19   A    
O5    C3    A    
C4    C11   S    
C5    C53   S    
C10   C12   D    
C25   C33   A    
C21   C23   A    
C24   C28   A    
C58   O32   S    
C43   C45   A    
C8    H20   S    
O17   V3    S    
C44   C46   A    
O30   H25   S    
C43   H17   S    
C3    C12   S    
C17   H5    S    
C14   C51   S    
C22   H14   S    
C48   C58   S    
C38   H28   S    
C11   C55   S    
C15   C45   A    
C38   C40   A    
C35   C37   A    
C50   O17   A    
C16   C46   A    
C36   C38   A    
C49   O18   A    
C17   C19   A    
C54   O24   S    
C31   C33   A    
C32   H16   S    
C14   C20   A    
O6    V2    S    
C15   C47   A    
C56   O28   S    
C28   C30   A    
C27   C35   A    
C30   C32   A    
O13   V3    S    
C39   C41   A    
C40   C42   A    
C53   O22   S    
O12   C52   A    
O16   C52   A    
C44   H18   S    
O14   C50   A    
C13   C52   S    
O24   H10   S    
O1    V2    S    
C39   C43   A    
O5    V1    S    
C13   C21   A    
C5    C9    S    
C37   C39   A    
C18   C20   A    
O4    V2    S    
O2    V1    S    
C30   C42   A    
O6    C4    A    
C55   O26   S    
C12   C56   S    
O12   V3    S    
C29   C31   A    
O14   V4    S    
C28   C36   A    
O4    C2    A    
C34   H24   S    
C16   C48   A    
C47   C57   S    
C37   H27   S    
C42   C48   A    
O11   C51   A    
C56   O27   D    
O19   V4    S    
O3    V1    S    
C18   H6    S    
C57   O29   D    
C40   C44   A    
C29   C41   A    
C26   C34   A    
C9    H1    S    
C35   H7    S    
C6    C10   S    
C6    C54   S    
C7    C50   S    
C20   H12   S    
O3    C1    A    
C19   H11   S    
O32   H26   S    
C21   H13   S    
O26   H21   S    
C45   H3    S    
C46   H4    S    
C9    C11   D    
O7    V1    S    
C1    O8    A    
C23   C25   A    
O11   V4    S    
C31   H15   S    
C58   O31   D    
C24   C26   A    
C7    H19   S    
O15   V3    S    
O15   C51   A    
C33   H23   S    
C41   C47   A    
C22   C24   A    
C5    C7    D    
C17   C25   A    
C8    C49   S    
C6    C8    D    
C18   C26   A    
C23   C27   A    
C10   H2    S    
C32   C34   A    
O18   V4    S    
C2    C15   S    
C14   C22   A    
O20   V3    S    
C1    C16   S    
O9    V2    S    
O13   C49   A    
C55   O25   D    
O10   V1    S    
O8    V2    S    
C54   O23   D    
O28   H22   S    
C36   H8    S    
C57   O30   S    
