data_mof_unit_42579.cif
_audit_creation_date              2012-12-11T15:16:45-0500
_audit_creation_method            fapswitch 2.2
_symmetry_space_group_name_H-M    P1
_symmetry_Int_Tables_number       1
_space_group_crystal_system       triclinic
_cell_length_a                    25.119319
_cell_length_b                    7.233036
_cell_length_c                    21.920146
_cell_angle_alpha                 90.015415
_cell_angle_beta                  110.228117
_cell_angle_gamma                 89.99943
_cell_volume                      3737.01195931

loop_
_atom_site_label
_atom_site_type_symbol
_atom_type_description
_atom_site_fract_x
_atom_site_fract_y
_atom_site_fract_z
_atom_type_partial_charge
O1    O     O_R   0.554350 0.505270 0.581390 -0.531559
O2    O     O_R   0.445650 0.005270 0.418610 -0.530434
O3    O     O_R   0.553380 0.177580 0.454800 -0.540846
O4    O     O_R   0.446620 0.677580 0.545200 -0.540946
C1    C     C_R   0.565857 0.344548 0.438283 0.677003
C2    C     C_R   0.434147 0.844569 0.561721 0.676783
O5    O     O_R   0.560970 0.175640 0.583140 -0.532289
O6    O     O_R   0.439030 0.675640 0.416860 -0.533215
O7    O     O_R   0.453290 0.004120 0.547860 -0.538948
O8    O     O_R   0.546710 0.504120 0.452140 -0.539053
C3    C     C_R   0.576076 0.343914 0.607563 0.690834
C4    C     C_R   0.423930 0.843870 0.392433 0.690341
O9    O     O_3   0.464660 0.338800 0.488280 -0.373560
O10   O     O_3   0.535340 0.838800 0.511720 -0.373374
V1    V     V_3+5 0.506560 0.064420 0.502170 1.415479
V2    V     V_3+5 0.493440 0.564420 0.497830 1.413134
C5    C     C_R   0.148540 0.983559 0.288788 -0.157037
C6    C     C_R   0.851487 0.483622 0.711214 -0.157530
H1    H     H_    0.063201 0.011205 0.222476 0.109377
H2    H     H_    0.936826 0.511076 0.777554 0.109533
H3    H     H_    0.234112 0.981700 0.400950 0.129407
H4    H     H_    0.765886 0.482313 0.599045 0.128727
H5    H     H_    0.136261 0.013590 0.330534 0.119808
H6    H     H_    0.863774 0.513785 0.669486 0.119756
C7    C     C_R   0.120849 0.942637 0.172393 -0.037105
C8    C     C_R   0.879155 0.442497 0.827602 -0.036390
C9    C     C_R   0.396841 0.812152 0.273925 -0.159261
C10   C     C_R   0.603182 0.312059 0.726088 -0.195358
C11   C     C_R   0.357734 0.808098 0.210742 0.258864
C12   C     C_R   0.642531 0.308603 0.789427 0.259349
C13   C     C_R   0.300114 0.841194 0.199748 -0.196720
C14   C     C_R   0.699954 0.340806 0.800171 -0.158719
C15   C     C_R   0.280455 0.878386 0.251706 0.042092
C16   C     C_R   0.719577 0.378386 0.748241 0.025493
C17   C     C_R   0.321384 0.883537 0.316269 0.064769
C18   C     C_R   0.678620 0.383837 0.683708 0.064861
C19   C     C_R   0.221545 0.910401 0.241699 0.088123
C20   C     C_R   0.778474 0.410376 0.758258 0.088008
C21   C     C_R   0.205514 0.948735 0.296585 0.135547
C22   C     C_R   0.794505 0.448875 0.703392 0.138105
C23   C     C_R   0.246322 0.952939 0.359057 -0.198498
C24   C     C_R   0.753682 0.453369 0.640926 -0.196972
C25   C     C_R   0.303204 0.920491 0.368848 -0.174885
C26   C     C_R   0.696788 0.421022 0.631134 -0.174726
C27   C     C_R   0.177755 0.906599 0.179406 -0.211636
C28   C     C_R   0.822239 0.406510 0.820558 -0.210960
C29   C     C_R   0.106768 0.981782 0.227294 -0.163413
C30   C     C_R   0.893253 0.481672 0.772715 -0.163414
C31   C     C_R   0.379721 0.849762 0.326879 -0.132390
C32   C     C_R   0.620288 0.349920 0.673123 -0.113978
H7    H     H_    0.186292 0.878574 0.135401 0.096340
H8    H     H_    0.813637 0.378569 0.864532 0.096579
H9    H     H_    0.441201 0.785297 0.281801 0.121708
H10   H     H_    0.558787 0.284909 0.717869 0.105694
H11   H     H_    0.271723 0.836596 0.150083 0.109566
H12   H     H_    0.728130 0.335122 0.849964 0.126684
H13   H     H_    0.332978 0.925015 0.418240 0.110644
H14   H     H_    0.667001 0.425774 0.581754 0.109624
C33   C     C_R   0.120742 0.765293 0.881612 -0.161129
C34   C     C_R   0.879262 0.265349 0.118375 -0.158383
H15   H     H_    0.105450 0.637287 0.895190 0.123750
H16   H     H_    0.894544 0.137340 0.104769 0.123916
C35   C     C_R   0.156571 0.755452 0.844935 -0.138163
C36   C     C_R   0.843443 0.255508 0.155062 -0.135381
H17   H     H_    0.167661 0.620478 0.831579 0.134677
H18   H     H_    0.832353 0.120533 0.168397 0.134802
C37   C     C_R   0.177553 0.917137 0.825620 0.020499
C38   C     C_R   0.822473 0.417188 0.174413 0.020131
C39   C     C_R   0.161876 0.089106 0.844358 -0.134181
C40   C     C_R   0.838153 0.589160 0.155703 -0.132894
H19   H     H_    0.177161 0.216709 0.830488 0.138793
H20   H     H_    0.822877 0.716760 0.169601 0.139253
C41   C     C_R   0.126025 0.099051 0.881109 -0.159634
C42   C     C_R   0.873995 0.599106 0.118940 -0.158267
H21   H     H_    0.114805 0.234094 0.894258 0.121648
H22   H     H_    0.885220 0.734145 0.105812 0.122119
C43   C     C_R   0.104784 0.937230 0.900178 -0.047023
C44   C     C_R   0.895224 0.437284 0.099834 -0.047361
N1    N     N_R   0.235467 0.061967 0.766974 -0.279508
N2    N     N_R   0.764580 0.561986 0.233113 -0.278834
N3    N     N_R   0.269105 0.051958 0.731473 -0.283282
N4    N     N_R   0.730943 0.551952 0.268615 -0.282408
C45   C     C_R   0.284131 0.885716 0.713350 0.514337
C46   C     C_R   0.715907 0.385698 0.286694 0.515259
N5    N     N_R   0.263954 0.729913 0.732418 -0.279690
N6    N     N_R   0.736070 0.229909 0.267582 -0.278832
N7    N     N_R   0.230316 0.739922 0.767917 -0.283301
N8    N     N_R   0.769707 0.239942 0.232081 -0.282460
C47   C     C_R   0.215293 0.906159 0.786045 0.514647
C48   C     C_R   0.784739 0.406191 0.213996 0.515301
C49   C     C_R   0.337704 0.702661 0.655258 -0.134472
C50   C     C_R   0.662304 0.202617 0.344728 -0.132140
H23   H     H_    0.322424 0.575085 0.669150 0.138659
H24   H     H_    0.677570 0.075044 0.330798 0.139056
C51   C     C_R   0.373683 0.692627 0.618668 -0.158599
C52   C     C_R   0.626316 0.192579 0.381308 -0.155916
H25   H     H_    0.385009 0.557581 0.605638 0.121265
H26   H     H_    0.614967 0.057534 0.394293 0.121616
C53   C     C_R   0.394952 0.854405 0.599632 -0.047451
C54   C     C_R   0.605065 0.354355 0.400387 -0.048289
C55   C     C_R   0.378849 0.026402 0.617961 -0.161820
C56   C     C_R   0.621199 0.526353 0.382118 -0.160012
H27   H     H_    0.394148 0.154322 0.604328 0.123438
H28   H     H_    0.605919 0.654276 0.395790 0.123889
C57   C     C_R   0.342892 0.036347 0.654482 -0.138060
C58   C     C_R   0.657164 0.536302 0.345609 -0.135374
H29   H     H_    0.331708 0.171357 0.667701 0.134641
H30   H     H_    0.668369 0.671315 0.332435 0.135208
C59   C     C_R   0.321925 0.874690 0.673841 0.020307
C60   C     C_R   0.678110 0.374651 0.326200 0.019509
O11   O     O_R   0.953220 0.285790 0.047790 -0.537657
O12   O     O_R   0.046780 0.785790 0.952210 -0.537892
O13   O     O_R   0.939020 0.617570 0.916840 -0.533429
O14   O     O_R   0.060980 0.117570 0.083160 -0.533765
C61   C     C_R   0.923957 0.448716 0.892457 0.683623
C62   C     C_R   0.076037 0.948759 0.107547 0.682534
O15   O     O_R   0.946600 0.615450 0.045180 -0.540922
O16   O     O_R   0.053400 0.115450 0.954820 -0.541113
O17   O     O_R   0.054370 0.786770 0.081410 -0.531521
O18   O     O_R   0.945630 0.286770 0.918590 -0.531171
C63   C     C_R   0.934259 0.446973 0.061676 0.677094
C64   C     C_R   0.065743 0.946950 0.938327 0.676153
O19   O     O_3   0.035300 0.454160 0.011680 -0.373653
O20   O     O_3   0.964700 0.954160 0.988320 -0.372779
V3    V     V_3+5 0.993450 0.728620 0.997830 1.412957
V4    V     V_3+5 0.006550 0.228620 0.002170 1.412313
N9    N     N_3   0.377493 0.770558 0.157860 -0.651846
H31   H     H_    0.392266 0.634281 0.162964 0.231640
H32   H     H_    0.343988 0.777376 0.113401 0.228751
N10   N     N_3   0.625011 0.269650 0.843876 -0.654335
H33   H     H_    0.581420 0.243119 0.828182 0.230659
H34   H     H_    0.631872 0.389159 0.872408 0.231484

loop_
_geom_bond_atom_site_label_1
_geom_bond_atom_site_label_2
_ccdc_geom_bond_type
C20   C22   A    
C35   H17   S    
C9    C11   A    
C23   C25   A    
O1    C3    A    
C37   C47   S    
O2    C4    A    
C33   C43   A    
C2    O7    A    
C4    C31   S    
O3    V1    S    
C21   C23   A    
O12   C64   A    
C57   H29   S    
C34   C44   A    
C5    H5    S    
C42   H22   S    
C6    H6    S    
C36   C38   A    
C46   N6    A    
O16   C64   A    
O14   V4    S    
H1    C29   S    
O11   C63   A    
C27   H7    S    
C51   C53   A    
C28   H8    S    
C50   C52   A    
C34   H16   S    
C5    C21   A    
C39   H19   S    
C44   C63   S    
O15   C63   A    
C8    C61   S    
C6    C22   A    
C43   C64   S    
C10   C32   A    
C26   H14   S    
C52   H26   S    
C17   C31   A    
C38   C48   S    
C13   C15   A    
C39   C41   A    
C17   C25   A    
C7    C29   A    
C16   C18   A    
C8    C30   A    
C22   C24   A    
C55   H27   S    
C9    H9    S    
C11   C13   A    
C41   H21   S    
C24   C26   A    
C54   C56   A    
N3    C45   A    
O5    C3    A    
N5    N7    A    
C55   C57   A    
C35   C37   A    
C33   H15   S    
N1    C47   A    
N6    N8    A    
N2    N4    A    
C7    C62   S    
N1    N3    A    
C10   H10   S    
O19   V4    S    
O5    V1    S    
C12   N10   S    
C15   C19   A    
C37   C39   A    
C36   H18   S    
O4    V2    S    
N10   H34   S    
N9    H32   S    
C40   C42   A    
C49   H23   S    
C1    C54   S    
O6    C4    A    
O11   V4    S    
C50   H24   S    
C25   H13   S    
O1    V2    S    
C56   H28   S    
O2    V1    S    
O12   V3    S    
H2    C30   S    
H3    C23   S    
O17   V3    S    
O4    C2    A    
C53   C55   A    
N8    C48   A    
N4    C46   A    
C11   N9    S    
C18   C26   A    
C19   C27   A    
N9    H31   S    
C7    C27   A    
C18   C32   A    
C58   C60   A    
C57   C59   A    
C45   N5    A    
C16   C20   A    
C5    C29   A    
O3    C1    A    
C6    C30   A    
O14   C62   A    
C51   H25   S    
C45   C59   S    
C33   C35   A    
C62   O17   A    
C34   C36   A    
C2    C53   S    
C49   C59   A    
N7    C47   A    
N10   H33   S    
O7    V1    S    
C1    O8    A    
C19   C21   A    
C3    C32   S    
O8    V2    S    
C12   C14   A    
C50   C60   A    
H4    C24   S    
C58   H30   S    
C52   C54   A    
C10   C12   A    
C15   C17   A    
C56   C58   A    
O18   V4    S    
N2    C48   A    
C46   C60   S    
C20   C28   A    
C8    C28   A    
C49   C51   A    
O13   V3    S    
O6    V2    S    
C61   O18   A    
C42   C44   A    
O9    V2    S    
C38   C40   A    
C41   C43   A    
O10   V1    S    
C40   H20   S    
O16   V4    S    
C13   H11   S    
O15   V3    S    
C14   H12   S    
C9    C31   A    
C14   C16   A    
O20   V3    S    
O13   C61   A    
