data_mof_unit_63596.cif
_audit_creation_date              2012-12-11T14:48:07-0500
_audit_creation_method            fapswitch 2.2
_symmetry_space_group_name_H-M    P1
_symmetry_Int_Tables_number       1
_space_group_crystal_system       triclinic
_cell_length_a                    8.433166
_cell_length_b                    15.136717
_cell_length_c                    22.879093
_cell_angle_alpha                 97.858678
_cell_angle_beta                  89.950618
_cell_angle_gamma                 99.640605
_cell_volume                      2851.51420664

loop_
_atom_site_label
_atom_site_type_symbol
_atom_type_description
_atom_site_fract_x
_atom_site_fract_y
_atom_site_fract_z
_atom_type_partial_charge
Ba1   Ba    Ba6+2 0.857590 0.542650 0.472590 1.706781
Ba2   Ba    Ba6+2 0.332250 0.457420 0.527420 1.699433
C1    C     C_3   0.710528 0.872170 0.328287 0.190471
C2    C     C_R   0.184819 0.535031 0.931140 -0.041594
C3    C     C_R   0.143011 0.519909 0.870189 0.615475
C4    C     C_3   0.180382 0.735945 0.315245 0.335310
C5    C     C_R   0.864053 0.497814 0.894027 0.632104
C6    C     C_R   0.903116 0.490090 0.953382 -0.032801
C7    C     C_R   0.065217 0.513960 0.972335 -0.084925
C8    C     C_R   0.343534 0.568821 0.951965 -0.035270
C9    C     C_R   0.380775 0.583051 0.012609 -0.060710
C10   C     C_R   0.264156 0.555459 0.053575 -0.019044
C11   C     C_R   0.108410 0.517219 0.032769 -0.051515
C12   C     C_3   0.686493 0.777650 0.346551 0.354985
C13   C     C_R   0.786381 0.459949 0.994424 0.148789
C14   C     C_R   0.835231 0.453226 0.052459 -0.079383
C15   C     C_R   0.995918 0.482601 0.072302 -0.040273
C16   C     C_3   0.199253 0.765730 0.253906 -0.102000
C17   C     C_R   0.047753 0.474865 0.130174 0.604467
C18   C     C_R   0.298644 0.567478 0.115009 0.582135
C19   C     C_2   0.814829 0.421016 0.765416 0.086230
C20   C     C_3   0.770010 0.405169 0.699937 -0.049849
C21   C     C_1   0.002257 0.523610 0.686341 -0.006674
C22   C     C_2   0.028447 0.545732 0.744914 0.097371
C23   C     C_3   0.499851 0.291830 0.332751 0.639548
C24   C     C_2   0.937548 0.488366 0.787778 0.273950
C25   C     C_R   0.415898 0.540917 0.234024 -0.124701
C26   C     C_R   0.465211 0.544023 0.292770 -0.027901
C27   C     C_R   0.193762 0.484056 0.318355 0.078417
C28   C     C_3   0.237727 0.731783 0.597050 0.291139
C29   C     C_R   0.141330 0.492224 0.260867 -0.179488
C30   C     C_R   0.250855 0.517792 0.215742 0.174921
C31   C     C_2   0.877122 0.464275 0.663053 -0.266259
C32   C     C_R   0.736982 0.235917 0.531421 -0.146522
C33   C     C_R   0.829287 0.176956 0.552282 0.031307
C34   C     C_3   0.551930 0.250448 0.270886 -0.151417
C35   C     C_R   0.771976 0.083287 0.542604 -0.118233
C36   C     C_R   0.626358 0.046946 0.509923 0.023976
C37   C     C_R   0.547104 0.108709 0.484599 -0.120876
C38   C     C_R   0.601723 0.201770 0.494621 0.056395
C39   C     C_R   0.411508 0.912160 0.469037 -0.168807
C40   C     C_3   0.277278 0.833669 0.614334 -0.399827
C41   C     C_R   0.353392 0.819385 0.456930 -0.042872
C42   C     C_R   0.585009 0.788214 0.507939 0.064447
C43   C     C_R   0.644415 0.881486 0.519590 -0.201516
C44   C     C_R   0.562063 0.945915 0.498633 0.000115
C45   C     C_3   0.998820 0.224957 0.690854 0.418810
C46   C     C_R   0.446238 0.757444 0.473049 0.133759
C47   C     C_3   0.975149 0.238940 0.378314 0.489900
C48   C     C_3   0.066943 0.155315 0.365170 0.140930
C49   C     C_3   0.733555 0.678901 0.654722 0.727541
C50   C     C_3   0.740979 0.720161 0.719992 -0.080978
C51   C     C_3   0.911549 0.136700 0.710119 -0.349844
C52   C     C_3   0.459964 0.214976 0.662600 0.641148
C53   C     C_3   0.388542 0.127762 0.688103 -0.093026
C54   C     C_R   0.358538 0.507129 0.333477 -0.034123
H1    H     H_    0.772505 0.778746 0.383514 0.040804
H2    H     H_    0.561706 0.762078 0.361880 -0.053296
H3    H     H_    0.589051 0.352353 0.348493 0.022932
H4    H     H_    0.586802 0.183400 0.271838 0.098167
H5    H     H_    0.449700 0.236184 0.238373 0.105709
H6    H     H_    0.836937 0.892657 0.315072 0.064827
H7    H     H_    0.274404 0.722738 0.226919 0.123835
H8    H     H_    0.911712 0.263895 0.675587 0.028426
H9    H     H_    0.998714 0.095440 0.723425 0.112064
H10   H     H_    0.834317 0.150803 0.748359 0.077162
H11   H     H_    0.835524 0.096128 0.673115 0.104608
H12   H     H_    0.373230 0.850561 0.649239 0.140082
H13   H     H_    0.400842 0.215617 0.619377 0.111794
H14   H     H_    0.266585 0.130211 0.704443 0.122939
H15   H     H_    0.097784 0.670033 0.312172 0.047435
H16   H     H_    0.461589 0.120367 0.727033 0.080770
H17   H     H_    0.746183 0.426655 0.082579 0.114535
H18   H     H_    0.502978 0.611983 0.027115 0.127884
H19   H     H_    0.511277 0.556646 0.203990 0.151432
H20   H     H_    0.438207 0.586982 0.921598 0.151569
H21   H     H_    0.014149 0.476479 0.252960 0.184003
H22   H     H_    0.301242 0.726596 0.329814 -0.089973
H23   H     H_    0.319255 0.867074 0.575899 0.069632
H24   H     H_    0.857790 0.448638 0.615656 0.070558
H25   H     H_    0.332391 0.955935 0.457066 0.097237
H26   H     H_    0.847090 0.040541 0.558727 0.059710
H27   H     H_    0.752545 0.901683 0.546461 0.089997
H28   H     H_    0.446867 0.086582 0.454067 0.081951
H29   H     H_    0.782550 0.307820 0.537351 0.054922
H30   H     H_    0.262820 0.836868 0.257835 0.171926
H31   H     H_    0.348801 0.705558 0.583336 0.050516
H32   H     H_    0.148202 0.716692 0.559967 0.081096
H33   H     H_    0.799866 0.179338 0.318649 0.161488
H34   H     H_    0.168299 0.860184 0.631144 0.136623
H35   H     H_    0.763947 0.267655 0.365874 0.165885
H36   H     H_    0.964027 0.220030 0.462739 0.110786
H37   H     H_    0.098432 0.306912 0.452206 0.245317
H38   H     H_    0.058348 0.168200 0.275170 0.178980
H39   H     H_    0.957474 0.070398 0.292201 0.201696
H40   H     H_    0.882895 0.074915 0.404908 0.176839
H41   H     H_    0.065336 0.090583 0.439721 0.194367
H42   H     H_    0.671555 0.555133 0.617646 0.275979
H43   H     H_    0.642105 0.614938 0.763038 0.247149
H44   H     H_    0.789431 0.687474 0.800889 0.188099
H45   H     H_    0.194485 0.179403 0.378207 0.150977
H46   H     H_    0.648165 0.849698 0.245442 0.332514
H47   H     H_    0.279448 0.264049 0.304597 0.309526
H48   H     H_    0.787719 0.312244 0.270148 0.198851
H49   H     H_    0.697671 0.286282 0.203640 0.210010
H50   H     H_    0.146911 0.340897 0.726993 0.212998
H51   H     H_    0.170623 0.248892 0.758068 0.203153
H52   H     H_    0.668731 0.218024 0.693775 0.262975
H53   H     H_    0.500523 0.041964 0.631108 0.204668
H54   H     H_    0.317434 0.055142 0.607046 0.194246
H55   H     H_    0.549232 0.417408 0.012561 0.159003
H56   H     H_    0.856803 0.669496 0.640879 -0.081766
H57   H     H_    0.613298 0.369137 0.948445 0.196126
H58   H     H_    0.077863 0.683297 0.752576 0.182478
H59   H     H_    0.241765 0.632288 0.754004 0.223089
H60   H     H_    0.617184 0.353628 0.800188 0.223296
H61   H     H_    0.765686 0.292557 0.784063 0.149244
H62   H     H_    0.368348 0.431233 0.401579 0.223480
H63   H     H_    0.534032 0.477455 0.384465 0.192233
H64   H     H_    0.372216 0.657849 0.414423 0.277822
H65   H     H_    0.984846 0.690854 0.220229 0.207895
H66   H     H_    0.974299 0.798979 0.248418 0.224947
H67   H     H_    0.687737 0.921158 0.366853 0.052568
H68   H     H_    0.846180 0.775909 0.727323 0.045449
H69   H     H_    0.630643 0.749876 0.731171 0.098164
N1    N     N_R   0.982377 0.502971 0.851396 -0.418269
N2    N     N_3   0.383388 0.047532 0.644203 -0.517575
N3    N     N_3   0.620560 0.430548 0.976307 -0.451547
N4    N     N_3   0.123911 0.631046 0.768492 -0.465450
N5    N     N_3   0.741606 0.355970 0.801719 -0.469648
N6    N     N_3   0.419614 0.493039 0.389949 -0.394732
N7    N     N_3   0.044378 0.757832 0.223414 -0.482725
N8    N     N_R   0.198043 0.520297 0.153527 -0.414859
N9    N     N_3   0.808251 0.207738 0.362801 -0.499560
N10   N     N_3   0.983645 0.275166 0.440458 -0.484908
N11   N     N_3   0.062076 0.118200 0.302125 -0.480521
N12   N     N_3   0.006761 0.080622 0.398651 -0.499055
N13   N     N_3   0.755898 0.652967 0.758802 -0.520275
N14   N     N_3   0.680529 0.312404 0.247477 -0.487296
N15   N     N_3   0.085320 0.282183 0.741438 -0.499584
O1    O     O_2   0.888680 0.450300 0.360330 -0.484773
O2    O     O_2   0.158723 0.178351 0.535277 -0.512358
O3    O     O_3   0.107443 0.203598 0.646662 -0.607709
O4    O     O_3   0.129270 0.451230 0.431380 -0.464871
O5    O     O_3   0.578310 0.608920 0.529980 -0.406642
O6    O     O_2   0.337770 0.279070 0.470480 -0.477097
O7    O     O_3   0.489846 0.228696 0.373665 -0.658287
O8    O     O_2   0.466753 0.468757 0.710362 -0.414576
O9    O     O_3   0.436464 0.292402 0.701920 -0.633091
O10   O     O_2   0.249942 0.520267 0.834171 -0.564807
O11   O     O_2   0.725414 0.501368 0.880540 -0.560049
O12   O     O_3   0.677568 0.740848 0.623141 -0.675817
O13   O     O_2   0.959379 0.424994 0.158294 -0.609887
O14   O     O_2   0.415616 0.622890 0.133725 -0.606832
O15   O     O_3   0.676100 0.614850 0.396630 -0.465875
O16   O     O_2   0.801102 0.555065 0.294617 -0.484610
O17   O     O_3   0.036656 0.305899 0.342373 -0.640231
O18   O     O_3   0.714186 0.713612 0.298687 -0.614814
O19   O     O_2   0.851930 0.720960 0.529560 -0.488213
O20   O     O_3   0.095720 0.661380 0.425720 -0.465230
O21   O     O_2   0.021290 0.823063 0.463788 -0.490888
O22   O     O_3   0.625724 0.597068 0.647434 -0.686020
O23   O     O_3   0.119762 0.801601 0.354617 -0.596186
O24   O     O_3   0.602223 0.875706 0.282561 -0.722549
O25   O     O_3   0.350401 0.316827 0.326016 -0.789457
O26   O     O_3   0.622790 0.213665 0.653652 -0.820557
O27   O     O_3   0.399642 0.666247 0.457043 -0.685553
O28   O     O_2   0.301020 0.549730 0.639710 -0.396434
O29   O     O_3   0.060450 0.548840 0.568630 -0.493210
O30   O     O_3   0.513610 0.385220 0.603380 -0.459573
O31   O     O_3   0.175161 0.694475 0.646435 -0.650316
O32   O     O_3   0.611400 0.391150 0.470030 -0.494232
O33   O     O_3   0.093990 0.338690 0.574280 -0.469781
P1    P     P_3+3 0.054670 0.423610 0.368990 1.034893
P2    P     P_3+3 0.674060 0.707690 0.546600 1.036136
P3    P     P_3+3 0.147081 0.778156 0.426492 0.969571
P4    P     P_3+3 0.135040 0.576460 0.631020 1.010761
P5    P     P_3+3 0.042347 0.222623 0.577618 0.920683
P6    P     P_3+3 0.665482 0.605180 0.319499 0.970771
P7    P     P_3+3 0.515848 0.276617 0.449825 0.936538
P8    P     P_3+3 0.547943 0.390871 0.679530 1.035341

loop_
_geom_bond_atom_site_label_1
_geom_bond_atom_site_label_2
_ccdc_geom_bond_type
C40   H12   S    
C47   N9    S    
C49   H56   S    
Ba2   O4    S    
C16   N7    S    
C42   P2    S    
C27   P1    S    
C19   C24   D    
C26   C54   A    
C48   N12   S    
C5    C6    A    
H57   N3    S    
C43   C44   A    
Ba2   O5    S    
C46   O27   S    
C16   H30   S    
C18   O14   D    
C12   O18   S    
C32   C38   A    
C33   C35   A    
C22   C24   S    
C37   H28   S    
C32   C33   A    
C20   P8    S    
Ba2   O33   S    
C30   N8    S    
O16   P6    D    
C16   H7    S    
C4    H22   S    
O28   P4    D    
C45   O3    S    
C49   O22   S    
Ba1   Ba2   S    
C24   N1    S    
O3    P5    S    
O29   P4    S    
H51   N15   S    
Ba1   O15   S    
C7    C11   A    
H62   N6    S    
C38   P7    S    
O12   P2    S    
C8    H20   S    
C22   N4    S    
H53   N2    S    
O5    P2    S    
C1    H67   S    
C14   C15   A    
C21   C31   D    
C45   N15   S    
C50   N13   S    
C39   C44   A    
H43   N13   S    
Ba2   P4    S    
C18   N8    Am   
C51   H9    S    
C41   C46   A    
C39   C41   A    
C53   H16   S    
H54   N2    S    
C45   C51   S    
O32   P7    S    
C33   P5    S    
C26   P6    S    
C47   N10   S    
C40   H23   S    
O19   P2    D    
C19   C20   S    
O9    P8    S    
O20   P3    S    
C47   O17   S    
C43   H27   S    
C52   O26   S    
C25   H19   S    
O23   P3    S    
O7    P7    S    
H41   N12   S    
H42   O22   S    
O15   P6    S    
C29   H21   S    
C52   O9    S    
C4    H15   S    
C12   H2    S    
C4    C16   S    
Ba1   P1    S    
C36   C44   S    
C13   C14   A    
H50   N15   S    
C49   C50   S    
C53   H14   S    
Ba1   O19   S    
C36   C37   A    
C23   O7    S    
H40   N12   S    
O21   P3    D    
C6    C7    A    
Ba2   O29   S    
C23   O25   S    
H63   N6    S    
C3    O10   D    
C14   H17   S    
C40   H34   S    
C32   H29   S    
C3    N1    Am   
O18   P6    S    
C35   C36   A    
H61   N5    S    
H49   N14   S    
C41   P3    S    
H38   N11   S    
C29   C30   A    
C21   C22   D    
C39   H25   S    
C10   C18   A    
O8    P8    D    
O6    P7    D    
H66   N7    S    
C4    O23   S    
C51   H10   S    
C1    C12   S    
H44   N13   S    
C1    O24   S    
Ba2   O30   S    
C5    O11   D    
C53   N2    S    
C49   O12   S    
H47   O25   S    
C6    C13   A    
C13   N3    S    
O30   P8    S    
O1    P1    D    
C17   O13   D    
H58   N4    S    
C35   H26   S    
H36   N10   S    
Ba2   O6    S    
Ba1   O5    S    
H65   N7    S    
C28   H32   S    
C34   H5    S    
C19   N5    S    
Ba2   O28   S    
C45   H8    S    
C42   C43   A    
H59   N4    S    
C1    H6    S    
C12   H1    S    
H52   O26   S    
C52   C53   S    
Ba1   P2    S    
H33   N9    S    
C25   C30   A    
Ba1   O20   S    
O31   P4    S    
C2    C3    A    
C34   H4    S    
C9    H18   S    
C50   H69   S    
C31   H24   S    
H37   N10   S    
C27   C54   A    
C17   N8    Am   
O17   P1    S    
Ba1   O32   S    
H48   N14   S    
C11   C15   A    
C28   H31   S    
C27   C29   A    
Ba1   O4    S    
C48   N11   S    
C50   H68   S    
O2    P5    D    
C52   H13   S    
O33   P5    S    
Ba1   O29   S    
H39   N11   S    
C15   C17   A    
H35   N9    S    
C5    N1    Am   
C51   H11   S    
C34   N14   S    
C28   O31   S    
C21   P4    S    
C54   N6    S    
Ba1   O1    S    
C8    C9    A    
C23   C34   S    
C37   C38   A    
H60   N5    S    
C10   C11   A    
H64   O27   S    
C48   H45   S    
H46   O24   S    
C47   C48   S    
O4    P1    S    
H55   N3    S    
C28   C40   S    
C23   H3    S    
C2    C7    A    
C2    C8    A    
C42   C46   A    
C9    C10   A    
Ba2   O32   S    
C25   C26   A    
C20   C31   S    
