data_mof_unit_25598.cif
_audit_creation_date              2012-10-26T19:21:54-0400
_audit_creation_method            fapswitch 2.2
_symmetry_space_group_name_H-M    P1
_symmetry_Int_Tables_number       1
_space_group_crystal_system       triclinic
_cell_length_a                    23.484804
_cell_length_b                    11.092496
_cell_length_c                    9.915289
_cell_angle_alpha                 111.198376
_cell_angle_beta                  97.767031
_cell_angle_gamma                 92.297879
_cell_volume                      2375.0193073

loop_
_atom_site_label
_atom_site_type_symbol
_atom_type_description
_atom_site_fract_x
_atom_site_fract_y
_atom_site_fract_z
_atom_type_partial_charge
C1    C     C_R   0.496717 0.255031 0.440599 0.557555
C2    C     C_R   0.707550 0.616097 0.574120 -0.020969
C3    C     C_R   0.233023 0.386143 0.430321 -0.007960
C4    C     C_R   0.767086 0.614088 0.572670 -0.008172
C5    C     C_R   0.209984 0.501081 0.505439 0.182306
C6    C     C_R   0.790103 0.500112 0.494467 0.181655
C7    C     C_2   0.489491 0.116640 0.407923 -0.081918
C8    C     C_2   0.508626 0.883842 0.591541 -0.072817
C9    C     C_2   0.512679 0.063940 0.503268 -0.012959
C10   C     C_2   0.488024 0.934014 0.491401 -0.005755
C11   C     C_2   0.507717 0.505819 0.079632 0.121819
C12   C     C_R   0.502859 0.745075 0.559329 0.563253
C13   C     C_2   0.498275 0.480990 0.917517 0.099413
C14   C     C_R   0.391478 0.500121 0.501463 0.495597
C15   C     C_R   0.608534 0.499950 0.498517 0.504507
C16   C     C_R   0.887116 0.522476 0.624162 0.419340
C17   C     C_R   0.113017 0.478561 0.375746 0.419393
C18   C     C_R   0.872318 0.476718 0.366933 0.396252
C19   C     C_R   0.127856 0.525317 0.633192 0.396580
C20   C     C_R   0.932121 0.468211 0.362563 0.000499
C21   C     C_R   0.068036 0.533590 0.637511 0.000317
C22   C     C_R   0.969805 0.499014 0.497687 -0.036569
C23   C     C_R   0.246346 0.615229 0.581349 -0.012387
C24   C     C_R   0.030346 0.502600 0.502343 -0.036633
C25   C     C_R   0.947008 0.526296 0.628641 0.012482
C26   C     C_R   0.053134 0.475078 0.371332 0.012366
C27   C     C_R   0.955952 0.434374 0.230431 0.000151
C28   C     C_R   0.044187 0.567336 0.769615 -0.000005
C29   C     C_R   0.015998 0.441772 0.237743 -0.057276
C30   C     C_R   0.984139 0.559630 0.762241 -0.057296
C31   C     C_2   0.920418 0.380794 0.082093 0.310547
C32   C     C_2   0.079686 0.620966 0.917988 0.310493
C33   C     C_2   0.343245 0.741039 0.661471 0.298804
C34   C     C_R   0.753652 0.386687 0.415253 -0.012359
C35   C     C_2   0.656677 0.261334 0.330607 0.298279
C36   C     C_2   0.315773 0.258733 0.351205 0.265939
C37   C     C_2   0.684422 0.740341 0.655120 0.272696
C38   C     C_2   0.440439 0.859772 0.368756 0.305035
C39   C     C_2   0.563509 0.134341 0.617820 0.306340
C40   C     C_2   0.459155 0.365393 0.820163 0.276738
C41   C     C_2   0.556721 0.599102 0.172456 0.293464
C42   C     C_R   0.306080 0.616689 0.582273 -0.011625
C43   C     C_R   0.693896 0.384942 0.414025 -0.015601
C44   C     C_R   0.329320 0.500156 0.504763 -0.049150
C45   C     C_R   0.670714 0.500351 0.495137 -0.052252
C46   C     C_R   0.292560 0.383780 0.428985 -0.022970
Cu1   Cu    Cu3+1 0.509980 0.521810 0.644910 0.987089
Cu2   Cu    Cu3+1 0.490020 0.478190 0.355090 1.018423
H1    H     H_    0.551480 0.634943 0.933225 0.240908
H2    H     H_    0.966279 0.585506 0.863155 0.230339
H3    H     H_    0.389207 0.746551 0.658889 0.148017
H4    H     H_    0.610703 0.255196 0.332944 0.152171
H5    H     H_    0.361894 0.252187 0.356295 0.116430
H6    H     H_    0.638302 0.747285 0.649097 0.122502
H7    H     H_    0.204052 0.298381 0.373811 0.189428
H8    H     H_    0.796078 0.701456 0.631487 0.190053
H9    H     H_    0.442300 0.853322 0.257714 0.133988
H10   H     H_    0.566113 0.138165 0.729191 0.142784
H11   H     H_    0.424195 0.372088 0.741502 0.150421
H12   H     H_    0.439374 0.385461 0.072383 0.246518
H13   H     H_    0.598561 0.565225 0.192090 0.124157
H14   H     H_    0.227437 0.703268 0.638397 0.186784
H15   H     H_    0.772506 0.299371 0.355742 0.187739
H16   H     H_    0.536948 0.941027 0.692142 0.086769
H17   H     H_    0.457806 0.062570 0.312601 0.084402
H18   H     H_    0.879914 0.322193 0.062315 0.175205
H19   H     H_    0.120091 0.679957 0.937918 0.175500
H20   H     H_    0.033847 0.415741 0.136805 0.230348
N1    N     N_R   0.851287 0.499368 0.495178 -0.396626
N2    N     N_R   0.148836 0.502091 0.504812 -0.397042
N3    N     N_2   0.475010 0.445410 0.137370 -0.343944
N4    N     N_2   0.524990 0.554590 0.862630 -0.367907
O1    O     O_R   0.505330 0.332340 0.577400 -0.473556
O2    O     O_2   0.135445 0.458116 0.251759 -0.440987
O3    O     O_2   0.835423 0.467839 0.246423 -0.483225
O4    O     O_2   0.164832 0.535036 0.753896 -0.482133
O5    O     O_2   0.937127 0.397918 0.978392 -0.461112
O6    O     O_2   0.063049 0.603441 0.021552 -0.461194
O7    O     O_2   0.322821 0.839909 0.730845 -0.458439
O8    O     O_2   0.677069 0.163728 0.257891 -0.458043
O9    O     O_2   0.283477 0.160485 0.280545 -0.456470
O10   O     O_2   0.716794 0.837523 0.729502 -0.457326
O11   O     O_2   0.398699 0.805322 0.391914 -0.473599
O12   O     O_R   0.494670 0.667660 0.422600 -0.434876
O13   O     O_2   0.603173 0.189314 0.587579 -0.475134
O14   O     O_2   0.465697 0.259479 0.828413 -0.535107
O15   O     O_2   0.551551 0.715399 0.219337 -0.518161
O16   O     O_R   0.488470 0.295500 0.332650 -0.502646
O17   O     O_R   0.511530 0.704500 0.667350 -0.511200
O18   O     O_R   0.426310 0.518390 0.622390 -0.544738
O19   O     O_R   0.573690 0.481610 0.377610 -0.535007
O20   O     O_R   0.409450 0.481550 0.377650 -0.471597
O21   O     O_R   0.590550 0.518450 0.622350 -0.465707
O22   O     O_2   0.864698 0.542125 0.748016 -0.441344

loop_
_geom_bond_atom_site_label_1
_geom_bond_atom_site_label_2
_ccdc_geom_bond_type
C6    N1    S    
C18   O3    S    
C38   O11   D    
C27   C29   A    
C41   H13   S    
C23   C42   A    
C33   C42   S    
C19   O4    S    
C19   C21   A    
C24   C26   A    
C11   N3    D    
C38   H9    S    
C35   O8    D    
C9    C39   S    
C12   O12   A    
C40   O14   D    
C14   O18   A    
C13   C40   S    
C36   H5    S    
C3    H7    S    
C23   H14   S    
C22   C25   A    
Cu2   O16   S    
C36   C46   S    
C35   C43   S    
C9    C10   S    
C18   N1    A    
C30   H2    S    
C17   N2    A    
C40   H11   S    
C4    H8    S    
Cu1   O17   S    
C42   C44   A    
C44   C46   A    
C31   O5    D    
C2    C45   A    
C41   O15   D    
C34   C43   A    
C27   C31   S    
C12   O17   A    
C28   C32   S    
Cu1   O1    S    
C4    C6    A    
C25   C30   A    
H12   N3    S    
C39   H10   S    
C15   O19   A    
H1    N4    S    
Cu2   O12   S    
C2    C4    A    
C5    N2    S    
C7    H17   S    
C29   H20   S    
Cu1   Cu2   S    
C5    C23   A    
C36   O9    D    
C8    C12   S    
Cu2   O19   S    
Cu1   O21   S    
C39   O13   D    
C43   C45   A    
C14   O20   A    
C8    H16   S    
C32   H19   S    
C37   H6    S    
C20   C27   A    
C21   C28   A    
C20   C22   A    
C17   O2    S    
Cu1   O18   S    
C22   C24   A    
C37   O10   D    
C17   C26   A    
Cu2   N3    S    
C14   C44   S    
C16   C25   A    
C7    C9    D    
C1    C7    S    
C31   H18   S    
C33   O7    D    
C16   N1    A    
C3    C5    A    
C15   O21   A    
C13   N4    D    
C33   H3    S    
C3    C46   A    
C16   O22   S    
C10   C38   S    
C1    O1    A    
C28   C30   A    
C11   C13   S    
C2    C37   S    
C1    O16   A    
C34   H15   S    
C11   C41   S    
C18   C20   A    
Cu1   N4    S    
C32   O6    D    
C6    C34   A    
C26   C29   A    
C8    C10   D    
Cu2   O20   S    
C21   C24   A    
C35   H4    S    
C15   C45   S    
C19   N2    A    
