data_mof_unit_36649.cif
_audit_creation_date              2012-12-11T14:38:59-0500
_audit_creation_method            fapswitch 2.2
_symmetry_space_group_name_H-M    P1
_symmetry_Int_Tables_number       1
_space_group_crystal_system       triclinic
_cell_length_a                    8.251688
_cell_length_b                    14.984979
_cell_length_c                    17.19871
_cell_angle_alpha                 98.400843
_cell_angle_beta                  97.052814
_cell_angle_gamma                 99.57761
_cell_volume                      2050.78052283

loop_
_atom_site_label
_atom_site_type_symbol
_atom_type_description
_atom_site_fract_x
_atom_site_fract_y
_atom_site_fract_z
_atom_type_partial_charge
Ba1   Ba    Ba6+2 0.844730 0.540500 0.462170 1.698871
Ba2   Ba    Ba6+2 0.345110 0.459580 0.537840 1.704725
C1    C     C_3   0.624465 0.844361 0.242364 -0.379421
C2    C     C_3   0.610270 0.756188 0.277135 0.340338
C3    C     C_3   0.543279 0.202738 0.284639 0.278290
C4    C     C_3   0.454770 0.102117 0.262775 -0.478037
C5    C     C_3   0.114205 0.272102 0.745049 0.340673
C6    C     C_3   0.115063 0.244160 0.826548 -0.361577
C7    C     C_3   0.600198 0.225013 0.705010 0.351318
C8    C     C_3   0.581879 0.130046 0.727799 -0.333245
C9    C     C_2   0.282369 0.482806 0.272690 -0.233839
C10   C     C_3   0.407180 0.483742 0.214908 0.135673
C11   C     C_2   0.330594 0.493337 0.132595 -0.080961
C12   C     C_3   0.151631 0.788044 0.253299 0.454352
C13   C     C_2   0.164427 0.486734 0.113457 0.007064
C14   C     C_2   0.055267 0.467070 0.174793 -0.136180
C15   C     C_1   0.120230 0.459364 0.247371 0.020169
C16   C     C_R   0.893438 0.449699 0.860031 0.097672
C17   C     C_R   0.821457 0.450156 0.781873 0.073780
C18   C     C_R   0.082203 0.531523 0.753487 0.047421
C19   C     C_R   0.154441 0.534500 0.832529 -0.143943
C20   C     C_R   0.062253 0.493495 0.886637 -0.013778
C21   C     C_2   0.085958 0.501662 0.034501 -0.090362
C22   C     C_2   0.151733 0.488465 0.966428 -0.084908
C23   C     C_3   0.100507 0.832098 0.181508 -0.367434
C24   C     C_R   0.916906 0.488411 0.729002 -0.327464
C25   C     C_R   0.778197 0.231354 0.506703 -0.211244
C26   C     C_R   0.877641 0.172977 0.534607 0.065953
C27   C     C_R   0.815782 0.078130 0.523347 -0.092747
C28   C     C_R   0.648464 0.041057 0.488277 0.029714
C29   C     C_R   0.547809 0.104141 0.466292 -0.119450
C30   C     C_R   0.614460 0.197014 0.471401 -0.029525
C31   C     C_R   0.414191 0.903182 0.435913 -0.083902
C32   C     C_R   0.339806 0.812040 0.433899 -0.013421
C33   C     C_R   0.593846 0.783116 0.502696 0.111403
C34   C     C_3   0.266665 0.750158 0.638300 0.254470
C35   C     C_R   0.665999 0.876346 0.508961 -0.136904
C36   C     C_R   0.577598 0.938987 0.476105 0.002785
C37   C     C_R   0.430965 0.751468 0.464802 -0.288973
C38   C     C_3   0.241414 0.849326 0.662731 -0.251441
C39   C     C_3   0.046690 0.249008 0.271476 0.263830
C40   C     C_3   0.987181 0.230234 0.180988 -0.220153
C41   C     C_3   0.780916 0.736994 0.728110 0.349251
C42   C     C_3   0.794818 0.813720 0.801527 -0.020343
H1    H     H_    0.732100 0.756432 0.312723 0.111808
H2    H     H_    0.284269 0.872516 0.727494 0.087201
H3    H     H_    0.107091 0.852227 0.651258 0.145491
H4    H     H_    0.174451 0.290077 0.284531 0.051548
H5    H     H_    0.899030 0.163444 0.162503 0.067438
H6    H     H_    0.919220 0.284238 0.164306 0.111255
H7    H     H_    0.727220 0.849220 0.206261 0.135098
H8    H     H_    0.885536 0.874860 0.794649 0.097960
H9    H     H_    0.844726 0.791018 0.856893 0.093555
H10   H     H_    0.513519 0.755139 0.316286 -0.024743
H11   H     H_    0.650829 0.904523 0.291194 0.088658
H12   H     H_    0.664630 0.205876 0.321656 0.026503
H13   H     H_    0.354717 0.092153 0.211218 0.099087
H14   H     H_    0.545198 0.057812 0.246823 0.095423
H15   H     H_    0.398044 0.078700 0.312894 0.111066
H16   H     H_    0.506841 0.845640 0.203938 0.109324
H17   H     H_    0.190534 0.827044 0.138796 0.077611
H18   H     H_    0.233488 0.318537 0.744927 0.106271
H19   H     H_    0.010145 0.309202 0.734317 -0.046542
H20   H     H_    0.216954 0.205698 0.838367 0.141554
H21   H     H_    0.134963 0.306132 0.873063 0.074828
H22   H     H_    0.994244 0.200096 0.829279 0.110860
H23   H     H_    0.732843 0.248141 0.699786 -0.081765
H24   H     H_    0.522631 0.219620 0.646358 0.072277
H25   H     H_    0.625642 0.082700 0.682521 0.067049
H26   H     H_    0.449442 0.103279 0.731030 0.143151
H27   H     H_    0.657715 0.133276 0.786490 0.111071
H28   H     H_    0.274524 0.471350 0.967702 0.092372
H29   H     H_    0.921420 0.454626 0.157983 0.104608
H30   H     H_    0.966579 0.522754 0.032939 0.085232
H31   H     H_    0.414001 0.508112 0.090157 0.067076
H32   H     H_    0.283088 0.567664 0.851672 0.130851
H33   H     H_    0.330190 0.494799 0.335719 0.071782
H34   H     H_    0.860847 0.486037 0.668319 0.064687
H35   H     H_    0.338148 0.944737 0.407934 0.069112
H36   H     H_    0.278254 0.825246 0.280263 -0.020349
H37   H     H_    0.899896 0.035612 0.543499 0.100399
H38   H     H_    0.787268 0.899093 0.544044 0.101305
H39   H     H_    0.416895 0.083836 0.445134 0.090044
H40   H     H_    0.371196 0.681400 0.464419 0.071642
H41   H     H_    0.828305 0.303967 0.512996 0.066681
H42   H     H_    0.974615 0.797310 0.150856 0.123716
H43   H     H_    0.098863 0.905870 0.201360 0.106236
H44   H     H_    0.391230 0.749807 0.621532 -0.007894
H45   H     H_    0.172001 0.716243 0.586381 0.065826
O1    O     O_2   0.823140 0.439340 0.307240 -0.432109
O2    O     O_3   0.698475 0.767049 0.663020 -0.663623
O3    O     O_3   0.037435 0.797985 0.306915 -0.590102
O4    O     O_2   0.366580 0.560690 0.692810 -0.439479
O5    O     O_3   0.092650 0.554230 0.594710 -0.507337
O6    O     O_3   0.562120 0.393340 0.642670 -0.502523
O7    O     O_3   0.256433 0.706689 0.704987 -0.626895
O8    O     O_3   0.597340 0.388800 0.458640 -0.451449
O9    O     O_3   0.128850 0.344520 0.602520 -0.502249
O10   O     O_2   0.223548 0.183633 0.557195 -0.439389
O11   O     O_3   0.096053 0.193101 0.687396 -0.607605
O12   O     O_3   0.097070 0.445850 0.405300 -0.468515
O13   O     O_3   0.592380 0.611270 0.541370 -0.496944
O14   O     O_2   0.323920 0.276750 0.459260 -0.433156
O15   O     O_3   0.441873 0.257179 0.322657 -0.627336
O16   O     O_2   0.480319 0.451511 0.782937 -0.455375
O17   O     O_3   0.546950 0.285087 0.763124 -0.592510
O18   O     O_3   0.627590 0.606740 0.357340 -0.500638
O19   O     O_2   0.750286 0.559116 0.225917 -0.479707
O20   O     O_3   0.936924 0.294143 0.312043 -0.630077
O21   O     O_3   0.564643 0.680194 0.215394 -0.619914
O22   O     O_2   0.865800 0.723280 0.540790 -0.476250
O23   O     O_3   0.060870 0.655550 0.397490 -0.463762
O24   O     O_2   0.017650 0.821280 0.457954 -0.457060
P1    P     P_3+3 0.993190 0.413330 0.319190 1.030269
P2    P     P_3+3 0.695930 0.711340 0.564320 0.967272
P3    P     P_3+3 0.116290 0.773281 0.399141 0.996132
P4    P     P_3+3 0.196530 0.586750 0.680820 0.987139
P5    P     P_3+3 0.082803 0.224127 0.592763 1.010902
P6    P     P_3+3 0.587240 0.579936 0.253745 0.984419
P7    P     P_3+3 0.494429 0.274758 0.426536 0.989935
P8    P     P_3+3 0.602481 0.397071 0.744620 0.993963
C43   C     C_2   0.336429 0.916051 0.620660 0.416948
H46   H     H_    0.470170 0.922770 0.625388 -0.011005
O25   O     O_2   0.265293 0.965405 0.583503 -0.552153
C44   C     C_2   0.053524 0.159419 0.300585 0.540586
H47   H     H_    0.118772 0.110575 0.271306 -0.066622
O26   O     O_2   0.984484 0.140034 0.356409 -0.591202
N1    N     N_3   0.128507 0.230355 0.137515 -0.489419
H48   H     H_    0.085040 0.229356 0.077604 0.191490
H49   H     H_    0.171149 0.168886 0.140312 0.174543
N2    N     N_3   0.947680 0.727897 0.715806 -0.497755
H50   H     H_    0.007737 0.711857 0.767799 0.127344
H51   H     H_    0.938180 0.671790 0.670910 0.136238
C45   C     C_2   0.689305 0.646324 0.741572 0.460381
H52   H     H_    0.663776 0.588607 0.693185 0.017895
O27   O     O_2   0.651163 0.635229 0.806416 -0.604350
N3    N     N_3   0.636324 0.842520 0.811529 -0.492382
H53   H     H_    0.600229 0.875163 0.764298 0.190709
H54   H     H_    0.544111 0.785284 0.810569 0.235380
C46   C     C_2   0.578739 0.236772 0.209288 0.587298
H55   H     H_    0.633229 0.195672 0.166157 -0.099798
O28   O     O_2   0.544210 0.309307 0.194873 -0.587241
N4    N     N_3   0.154364 0.690754 0.228337 -0.505092
H56   H     H_    0.238321 0.685102 0.187854 0.155870
H57   H     H_    0.036708 0.657982 0.198459 0.200988
N5    N     N_3   0.797331 0.397608 0.907927 -0.483208
H58   H     H_    0.756357 0.442206 0.950401 0.180048
H59   H     H_    0.868670 0.356085 0.935161 0.173615

loop_
_geom_bond_atom_site_label_1
_geom_bond_atom_site_label_2
_ccdc_geom_bond_type
C34   H45   S    
C38   H3    S    
C6    H22   S    
C42   N3    S    
C39   C40   S    
C4    H14   S    
C3    H12   S    
O14   P7    D    
O19   P6    D    
N1    H48   S    
C5    C6    S    
C34   H44   S    
C38   H2    S    
N3    H54   S    
C19   H32   S    
C24   H34   S    
C26   C27   A    
C33   C35   A    
C35   C36   A    
C46   O28   D    
C37   H40   S    
C16   C17   A    
Ba1   O23   S    
C28   C29   A    
O5    P4    S    
Ba2   O13   S    
C32   P3    S    
N4    H56   S    
C23   H43   S    
C29   H39   S    
C28   C36   S    
Ba1   Ba2   S    
C25   H41   S    
C17   C24   A    
O13   P2    S    
C9    H33   S    
C1    H11   S    
C42   H9    S    
C9    C15   D    
C11   H31   S    
Ba2   O8    S    
C14   C15   D    
C21   C22   D    
C33   P2    S    
C12   H36   S    
C7    C8    S    
C40   N1    S    
O24   P3    D    
C1    H16   S    
O6    P8    S    
C13   C21   S    
C3    O15   S    
C6    H21   S    
C39   O20   S    
C19   C20   A    
O12   P1    S    
C4    H13   S    
O4    P4    D    
C30   P7    S    
O18   P6    S    
C18   P4    S    
Ba2   P4    S    
C15   P1    S    
O9    P5    S    
N5    H59   S    
C2    H1    S    
C5    O11   S    
C32   C37   A    
C39   C44   S    
O7    P4    S    
C34   C38   S    
C46   H55   S    
Ba1   O8    S    
C1    H7    S    
C31   H35   S    
C45   O27   D    
Ba2   O12   S    
N2    H51   S    
C7    O17   S    
C41   O2    S    
C14   H29   S    
C41   C45   S    
C33   C37   A    
C41   C42   S    
C7    H23   S    
C5    H18   S    
C27   H37   S    
C27   C28   A    
C10   P6    S    
C34   O7    S    
C29   C30   A    
Ba2   O5    S    
C12   O3    S    
C31   C32   A    
O16   P8    D    
C23   H17   S    
C10   C11   S    
O3    P3    S    
C5    H19   S    
O20   P1    S    
C40   H6    S    
C8    H26   S    
C6    H20   S    
C11   C13   D    
C44   H47   S    
C20   C22   S    
C35   H38   S    
O11   P5    S    
Ba1   P1    S    
C21   H30   S    
C43   O25   D    
C1    C2    S    
Ba1   O1    S    
Ba1   O12   S    
O23   P3    S    
C22   H28   S    
C3    C46   S    
N5    H58   S    
N4    H57   S    
C2    O21   S    
C12   N4    S    
C17   P8    S    
C2    H10   S    
C25   C30   A    
C16   C20   A    
C4    H15   S    
Ba2   O4    S    
C16   N5    S    
N1    H49   S    
O21   P6    S    
Ba1   O5    S    
C9    C10   S    
C45   H52   S    
C38   C43   S    
N3    H53   S    
C31   C36   A    
O8    P7    S    
C41   N2    S    
C7    H24   S    
C26   P5    S    
C8    H27   S    
O10   P5    D    
C42   H8    S    
C3    C4    S    
C18   C24   A    
Ba2   O14   S    
C13   C14   S    
O17   P8    S    
C23   H42   S    
C39   H4    S    
O2    P2    S    
O1    P1    D    
C12   C23   S    
C40   H5    S    
Ba1   O18   S    
C8    H25   S    
C18   C19   A    
Ba2   O9    S    
C25   C26   A    
C44   O26   D    
O22   P2    D    
Ba1   P2    S    
Ba2   O6    S    
C43   H46   S    
Ba1   O13   S    
Ba1   O22   S    
N2    H50   S    
O15   P7    S    
