data_mof_unit_47473.cif
_audit_creation_date              2012-12-11T15:27:37-0500
_audit_creation_method            fapswitch 2.2
_symmetry_space_group_name_H-M    P1
_symmetry_Int_Tables_number       1
_space_group_crystal_system       triclinic
_cell_length_a                    23.245506
_cell_length_b                    7.301019
_cell_length_c                    15.128216
_cell_angle_alpha                 90.448014
_cell_angle_beta                  108.243701
_cell_angle_gamma                 89.536712
_cell_volume                      2438.32195673

loop_
_atom_site_label
_atom_site_type_symbol
_atom_type_description
_atom_site_fract_x
_atom_site_fract_y
_atom_site_fract_z
_atom_type_partial_charge
O1    O     O_R   0.711000 0.648610 0.341170 -0.536052
O2    O     O_R   0.289000 0.351390 0.658830 -0.536053
O3    O     O_R   0.789000 0.148610 0.158830 -0.536841
O4    O     O_R   0.211000 0.851390 0.841170 -0.536841
O5    O     O_R   0.829650 0.322030 0.336650 -0.538842
O6    O     O_R   0.170350 0.677970 0.663350 -0.538842
O7    O     O_R   0.670350 0.822030 0.163350 -0.535281
O8    O     O_R   0.329650 0.177970 0.836650 -0.535281
C1    C     C_R   0.854267 0.485599 0.356811 0.729701
C2    C     C_R   0.145733 0.514401 0.643189 0.729701
C3    C     C_R   0.645733 0.986003 0.143179 0.730179
C4    C     C_R   0.354267 0.013997 0.856821 0.730180
O9    O     O_R   0.713950 0.319280 0.352070 -0.539857
O10   O     O_R   0.286050 0.680720 0.647930 -0.539857
O11   O     O_R   0.786050 0.819280 0.147930 -0.539263
O12   O     O_R   0.213950 0.180720 0.852070 -0.539264
O13   O     O_R   0.672470 0.142870 0.174360 -0.535946
O14   O     O_R   0.327530 0.857130 0.825640 -0.535946
O15   O     O_R   0.827530 0.642870 0.325640 -0.532201
O16   O     O_R   0.172470 0.357130 0.674360 -0.532201
C5    C     C_R   0.702029 0.488489 0.376153 0.692771
C6    C     C_R   0.297971 0.511511 0.623847 0.692771
C7    C     C_R   0.797999 0.986579 0.123797 0.693061
C8    C     C_R   0.202001 0.013421 0.876203 0.693061
O17   O     O_3   0.736530 0.478650 0.191680 -0.379184
O18   O     O_3   0.263470 0.521350 0.808320 -0.379184
O19   O     O_3   0.763470 0.978650 0.308320 -0.378517
O20   O     O_3   0.236530 0.021350 0.691680 -0.378517
V1    V     V_3+5 0.752500 0.206170 0.260820 1.448959
V2    V     V_3+5 0.247500 0.793830 0.739180 1.448959
V3    V     V_3+5 0.747500 0.706170 0.239180 1.461444
V4    V     V_3+5 0.252500 0.293830 0.760820 1.461444
C9    C     C_R   0.826721 0.990270 0.050501 -0.074474
C10   C     C_R   0.173279 0.009730 0.949498 -0.074474
C11   C     C_R   0.673194 0.501573 0.449160 -0.074601
C12   C     C_R   0.326806 0.498427 0.550840 -0.074601
C13   C     C_R   0.823296 0.947507 0.890347 -0.190185
C14   C     C_R   0.176704 0.052493 0.109653 -0.190185
C15   C     C_R   0.675767 0.579282 0.605929 -0.190172
C16   C     C_R   0.324233 0.420718 0.394071 -0.190172
C17   C     C_R   0.793314 0.958268 0.956945 -0.043818
C18   C     C_R   0.206686 0.041732 0.043055 -0.043817
C19   C     C_R   0.706015 0.554301 0.540328 -0.044573
C20   C     C_R   0.293984 0.445699 0.459672 -0.044573
C21   C     C_R   0.889539 0.011121 0.076634 -0.219283
C22   C     C_R   0.110461 0.988879 0.923366 -0.219284
C23   C     C_R   0.610706 0.474391 0.424367 -0.219160
C24   C     C_R   0.389294 0.525609 0.575633 -0.219160
C25   C     C_R   0.921097 0.996624 0.010663 0.086271
C26   C     C_R   0.078903 0.003376 0.989337 0.086271
C27   C     C_R   0.578849 0.502632 0.489149 0.086324
C28   C     C_R   0.421150 0.497368 0.510850 0.086324
C29   C     C_R   0.886518 0.964635 0.916410 0.122840
C30   C     C_R   0.113482 0.035365 0.083590 0.122840
C31   C     C_R   0.612825 0.555578 0.581020 0.122606
C32   C     C_R   0.387175 0.444422 0.418980 0.122606
C33   C     C_R   0.985634 0.009700 0.035289 0.058339
C34   C     C_R   0.014366 0.990300 0.964711 0.058339
C35   C     C_R   0.514556 0.482968 0.465455 0.058481
C36   C     C_R   0.485444 0.517032 0.534545 0.058481
C37   C     C_R   0.977593 0.959280 0.871902 -0.181519
C38   C     C_R   0.022407 0.040720 0.128098 -0.181519
C39   C     C_R   0.521617 0.568862 0.625026 -0.181524
C40   C     C_R   0.478382 0.431138 0.374974 -0.181524
C41   C     C_R   0.915139 0.947316 0.848597 -0.176568
C42   C     C_R   0.084861 0.052684 0.151403 -0.176568
C43   C     C_R   0.583853 0.587055 0.647473 -0.177737
C44   C     C_R   0.416147 0.412945 0.352527 -0.177737
H1    H     H_    0.888946 0.922680 0.776473 0.144538
H2    H     H_    0.111054 0.077320 0.223527 0.144538
H3    H     H_    0.609575 0.627735 0.717765 0.146517
H4    H     H_    0.390425 0.372265 0.282234 0.146517
H5    H     H_    0.087732 0.966790 0.850340 0.103120
H6    H     H_    0.912268 0.033210 0.149660 0.103121
H7    H     H_    0.411585 0.563952 0.646962 0.103144
H8    H     H_    0.588415 0.436048 0.353038 0.103144
H9    H     H_    0.797337 0.922628 0.818069 0.123253
H10   H     H_    0.202663 0.077372 0.181931 0.123253
H11   H     H_    0.701262 0.620185 0.676364 0.123565
H12   H     H_    0.298738 0.379815 0.323636 0.123565
H13   H     H_    0.995416 0.942695 0.814729 0.128967
H14   H     H_    0.004584 0.057305 0.185271 0.128967
H15   H     H_    0.503473 0.597471 0.680942 0.129283
H16   H     H_    0.496527 0.402529 0.319058 0.129283
C45   C     C_1   0.416756 0.006491 0.918776 -0.162238
C46   C     C_1   0.583244 0.993509 0.081224 -0.162239
C47   C     C_1   0.083241 0.507455 0.581209 -0.162047
C48   C     C_1   0.916759 0.492545 0.418791 -0.162047
C49   C     C_1   0.469138 0.002163 0.969981 0.018495
C50   C     C_1   0.530862 0.997837 0.030019 0.018495
C51   C     C_1   0.030862 0.502635 0.530012 0.018239
C52   C     C_1   0.969138 0.497365 0.469988 0.018239
C53   C     C_1   0.271594 0.065130 0.071880 0.277827
N1    N     N_1   0.323592 0.083925 0.094932 -0.369070
C54   C     C_1   0.728406 0.934870 0.928120 0.277827
N2    N     N_1   0.676408 0.916075 0.905068 -0.369070
C55   C     C_1   0.229434 0.415417 0.432382 0.278568
N3    N     N_1   0.177723 0.391123 0.410564 -0.367541
C56   C     C_1   0.770566 0.584584 0.567618 0.278568
N4    N     N_1   0.822277 0.608877 0.589436 -0.367542

loop_
_geom_bond_atom_site_label_1
_geom_bond_atom_site_label_2
_ccdc_geom_bond_type
O17   V3    S    
O1    C5    A    
C53   N1    T    
C47   C51   T    
O19   V1    S    
C18   C53   S    
C9    C21   A    
O3    C7    A    
C54   N2    T    
C10   C18   A    
O15   V3    S    
C55   N3    T    
C25   C33   A    
C33   C38   A    
C42   H2    S    
O18   V4    S    
C35   C40   A    
C26   C30   A    
C4    C45   S    
C36   C39   A    
C40   C44   A    
O9    V1    S    
C19   C56   S    
C23   H8    S    
C14   C18   A    
C1    C48   S    
O4    C8    A    
C25   C29   A    
C3    C46   S    
O1    V3    S    
O13   V1    S    
O2    V4    S    
O3    V1    S    
C40   H16   S    
C28   C36   A    
C1    O15   A    
C15   C31   A    
C48   C52   T    
C2    O16   A    
C7    C9    S    
O2    C6    A    
C16   H12   S    
C10   C22   A    
C11   C19   A    
C16   C20   A    
C43   H3    S    
C44   H4    S    
C13   C29   A    
C34   C37   A    
O11   C7    A    
C38   H14   S    
C11   C23   A    
C35   C36   A    
O12   C8    A    
C24   H7    S    
O10   V2    S    
O5    V1    S    
C39   C43   A    
C2    C47   S    
O7    V3    S    
C38   C42   A    
O8    V4    S    
C46   C50   T    
C51   C52   S    
C45   C49   T    
C23   C27   A    
C14   H10   S    
C16   C32   A    
C32   C44   A    
C13   H9    S    
C8    C10   S    
C39   H15   S    
C21   H6    S    
C26   C34   A    
O7    C3    A    
O5    C1    A    
C20   C55   S    
C31   C43   A    
C56   N4    T    
C14   C30   A    
C21   C25   A    
O8    C4    A    
O9    C5    A    
O14   V2    S    
O6    V2    S    
C12   C20   A    
C27   C35   A    
C29   C41   A    
O16   V4    S    
C3    O13   A    
O6    C2    A    
C15   C19   A    
O11   V3    S    
C30   C42   A    
O12   V4    S    
C6    C12   S    
C22   C26   A    
C9    C17   A    
O10   C6    A    
O20   V2    S    
C5    C11   S    
C37   H13   S    
C33   C34   A    
C17   C54   S    
C41   H1    S    
C12   C24   A    
C27   C31   A    
C13   C17   A    
C37   C41   A    
C24   C28   A    
C4    O14   A    
C49   C50   S    
C22   H5    S    
O4    V2    S    
C28   C32   A    
C15   H11   S    
