data_mof_unit_51098.cif
_audit_creation_date              2012-12-10T17:12:27-0500
_audit_creation_method            fapswitch 2.2
_symmetry_space_group_name_H-M    P1
_symmetry_Int_Tables_number       1
_space_group_crystal_system       triclinic
_cell_length_a                    11.689939
_cell_length_b                    13.014863
_cell_length_c                    11.762835
_cell_angle_alpha                 100.492865
_cell_angle_beta                  92.493782
_cell_angle_gamma                 92.304708
_cell_volume                      1755.92693593

loop_
_atom_site_label
_atom_site_type_symbol
_atom_type_description
_atom_site_fract_x
_atom_site_fract_y
_atom_site_fract_z
_atom_type_partial_charge
C1    C     C_R   0.497689 0.298908 0.477537 0.844616
C2    C     C_R   0.502991 0.701189 0.522208 0.850188
C3    C     C_R   0.418429 0.379635 0.023873 0.327473
C4    C     C_R   0.594784 0.612648 0.976856 0.345215
C5    C     C_R   0.420082 0.396964 0.144963 -0.033370
C6    C     C_R   0.586065 0.599156 0.854888 -0.103361
C7    C     C_R   0.536920 0.552294 0.156556 0.563832
C8    C     C_R   0.464496 0.446748 0.843633 0.567645
C9    C     C_R   0.534437 0.541124 0.033698 -0.127763
C10   C     C_R   0.473057 0.454300 0.966085 -0.196870
C11   C     C_R   0.284145 0.499904 0.501113 0.812244
C12   C     C_R   0.715856 0.500268 0.498917 0.800863
C13   C     C_1   0.162532 0.500209 0.502844 -0.169298
C14   C     C_1   0.837471 0.500240 0.497268 -0.174809
C15   C     C_1   0.059958 0.500312 0.501506 0.004099
C16   C     C_1   0.940051 0.500295 0.498675 0.003604
C17   C     C_R   0.501737 0.815482 0.535979 -0.222821
C18   C     C_R   0.494220 0.184537 0.462434 -0.223179
C19   C     C_R   0.494555 0.010867 0.342750 0.367847
C20   C     C_R   0.484565 0.987776 0.653836 0.374272
C21   C     C_R   0.501874 0.120113 0.352567 0.331156
C22   C     C_R   0.506566 0.881113 0.646062 0.355378
C23   C     C_R   0.484571 0.139394 0.560885 -0.272117
C24   C     C_R   0.494725 0.859310 0.436009 -0.268542
C25   C     C_R   0.486087 0.031589 0.553103 -0.047864
C26   C     C_R   0.491783 0.966972 0.443444 -0.063114
Cu1   Cu    Cu3+1 0.508350 0.507730 0.615930 0.957249
Cu2   Cu    Cu3+1 0.491650 0.492270 0.384070 0.953177
H1    H     H_    0.494409 0.809350 0.351630 0.254818
H2    H     H_    0.479133 0.188928 0.644876 0.249875
H3    H     H_    0.631327 0.653160 0.811334 0.159364
H4    H     H_    0.377868 0.340069 0.187580 0.195951
N1    N     N_R   0.520920 0.519350 0.790130 -0.236920
N2    N     N_R   0.479080 0.480650 0.209870 -0.271344
O1    O     O_R   0.505930 0.354460 0.582000 -0.580458
O2    O     O_R   0.494070 0.645540 0.418000 -0.578933
O3    O     O_R   0.491820 0.341410 0.386200 -0.550515
O4    O     O_R   0.508180 0.658590 0.613800 -0.538699
O5    O     O_R   0.344250 0.506540 0.597900 -0.603400
O6    O     O_R   0.655750 0.493460 0.402100 -0.607700
O7    O     O_R   0.330140 0.493480 0.402100 -0.568932
O8    O     O_R   0.669860 0.506520 0.597900 -0.573489
O9    O     O_3   0.529042 0.839995 0.745126 -0.605958
C27   C     C_3   0.635513 0.881990 0.800410 0.052479
H5    H     H_    0.642394 0.856418 0.885191 0.159386
H6    H     H_    0.639928 0.968836 0.820956 0.184796
C28   C     C_3   0.738251 0.843016 0.729942 -0.394565
H7    H     H_    0.731243 0.756524 0.704384 0.227384
H8    H     H_    0.738965 0.876740 0.649702 0.214486
C29   C     C_3   0.851390 0.875325 0.799377 -0.905639
H9    H     H_    0.860977 0.961890 0.824332 0.262058
H10   H     H_    0.923888 0.847429 0.745947 0.261508
H11   H     H_    0.854898 0.840270 0.878705 0.254966
O10   O     O_3   0.508837 0.162758 0.253320 -0.601201
C30   C     C_3   0.622422 0.158862 0.216282 0.099462
H12   H     H_    0.664904 0.086290 0.229210 0.164886
H13   H     H_    0.674418 0.227494 0.265304 0.139631
C31   C     C_3   0.620071 0.163166 0.087163 -0.303639
H14   H     H_    0.560308 0.099917 0.038958 0.231897
H15   H     H_    0.588669 0.239576 0.073642 0.218593
C32   C     C_3   0.738666 0.149933 0.038770 -0.933968
H16   H     H_    0.800115 0.212325 0.085524 0.262375
H17   H     H_    0.733738 0.155387 0.945571 0.264690
H18   H     H_    0.770211 0.072146 0.047254 0.258645
O11   O     O_3   0.503334 0.947697 0.235531 -0.597276
C33   C     C_3   0.393399 0.929825 0.179182 0.055408
H19   H     H_    0.357413 0.004798 0.165100 0.168234
H20   H     H_    0.334070 0.890159 0.231111 0.136648
C34   C     C_3   0.403392 0.859232 0.061435 -0.288178
H21   H     H_    0.460689 0.898924 0.008107 0.223024
H22   H     H_    0.441720 0.785074 0.073979 0.260422
C35   C     C_3   0.286609 0.833758 0.997200 -0.946067
H23   H     H_    0.229458 0.790326 0.047025 0.265600
H24   H     H_    0.297426 0.784228 0.911279 0.273070
H25   H     H_    0.246128 0.906748 0.984061 0.251750
O12   O     O_3   0.471022 0.051401 0.760228 -0.640122
C36   C     C_3   0.365748 0.024593 0.805337 0.038692
H26   H     H_    0.371383 0.056586 0.899741 0.183985
H27   H     H_    0.349060 0.938631 0.796546 0.173356
C37   C     C_3   0.264996 0.072775 0.749428 -0.347694
H28   H     H_    0.282824 0.158267 0.756891 0.273670
H29   H     H_    0.254141 0.037331 0.656019 0.204110
C38   C     C_3   0.153600 0.054123 0.807258 -0.880976
H30   H     H_    0.133193 0.968896 0.799055 0.247949
H31   H     H_    0.082228 0.089230 0.764717 0.260068
H32   H     H_    0.161129 0.090885 0.900394 0.273243
O13   O     O_3   0.396988 0.365628 0.780321 -0.742159
H33   H     H_    0.358073 0.390644 0.716048 0.361564
O14   O     O_3   0.596505 0.637776 0.221229 -0.666018
H34   H     H_    0.641889 0.613171 0.282332 0.353358
O15   O     O_3   0.366799 0.286964 0.966083 -0.706976
H35   H     H_    0.424016 0.252993 0.913735 0.361606
O16   O     O_3   0.662982 0.694010 0.040583 -0.671685
H36   H     H_    0.705840 0.730324 0.987419 0.303751

loop_
_geom_bond_atom_site_label_1
_geom_bond_atom_site_label_2
_ccdc_geom_bond_type
C33   H20   S    
O13   H33   S    
C4    C9    A    
O16   H36   S    
C34   C35   S    
C18   C21   A    
C30   H12   S    
C28   H8    S    
C36   H26   S    
Cu1   N1    S    
C1    C18   S    
C19   C21   A    
C24   C26   A    
C35   H25   S    
C21   O10   S    
C33   C34   S    
C20   C25   A    
Cu2   O6    S    
Cu1   O4    S    
C31   H15   S    
C15   C16   S    
C7    O14   S    
Cu2   O7    S    
C20   O12   S    
C3    O15   S    
C34   H22   S    
C19   C26   A    
C24   H1    S    
C12   O8    A    
C22   O9    S    
Cu1   O5    S    
C28   H7    S    
C29   H10   S    
C11   O7    A    
C9    C10   A    
C27   C28   S    
C1    O3    A    
C5    H4    S    
C31   C32   S    
C6    H3    S    
Cu2   N2    S    
C2    C17   S    
C32   H16   S    
C37   C38   S    
C27   H6    S    
C28   C29   S    
C36   H27   S    
C17   C24   A    
C18   C23   A    
C29   H11   S    
C23   H2    S    
C33   H19   S    
O12   C36   S    
C35   H24   S    
O15   H35   S    
C37   H28   S    
Cu1   O1    S    
C31   H14   S    
C12   O6    A    
C32   H18   S    
O9    C27   S    
C2    O4    A    
C38   H30   S    
C5    N2    A    
C32   H17   S    
C29   H9    S    
C11   O5    A    
C37   H29   S    
C38   H31   S    
C12   C14   S    
C30   H13   S    
C7    N2    A    
C14   C16   T    
C4    C6    A    
C27   H5    S    
C1    O1    A    
C36   C37   S    
C2    O2    A    
C7    C9    A    
O10   C30   S    
C20   C22   A    
C35   H23   S    
C3    C5    A    
C17   C22   A    
C6    N1    A    
C8    O13   S    
C13   C15   T    
C25   C26   A    
C3    C10   A    
C11   C13   S    
Cu1   O8    S    
Cu2   O3    S    
C19   O11   S    
C8    N1    A    
C23   C25   A    
C34   H21   S    
C4    O16   S    
C38   H32   S    
Cu2   O2    S    
C8    C10   A    
O11   C33   S    
C30   C31   S    
Cu1   Cu2   S    
O14   H34   S    
