data_mof_unit_38636.cif
_audit_creation_date              2012-12-10T17:43:57-0500
_audit_creation_method            fapswitch 2.2
_symmetry_space_group_name_H-M    P1
_symmetry_Int_Tables_number       1
_space_group_crystal_system       triclinic
_cell_length_a                    15.852425
_cell_length_b                    15.085915
_cell_length_c                    13.833671
_cell_angle_alpha                 88.586251
_cell_angle_beta                  91.231453
_cell_angle_gamma                 88.485661
_cell_volume                      3305.32555291

loop_
_atom_site_label
_atom_site_type_symbol
_atom_type_description
_atom_site_fract_x
_atom_site_fract_y
_atom_site_fract_z
_atom_type_partial_charge
C1    C     C_R   0.500043 0.329376 0.501002 0.830894
C2    C     C_R   0.499957 0.670624 0.498998 0.830891
C3    C     C_R   0.500299 0.766883 0.496941 -0.057350
C4    C     C_R   0.499701 0.233117 0.503059 -0.057355
C5    C     C_R   0.576679 0.810005 0.516257 0.076365
C6    C     C_R   0.423320 0.189995 0.483743 0.076367
C7    C     C_R   0.576071 0.903501 0.518558 0.102034
C8    C     C_R   0.423929 0.096499 0.481442 0.102034
C9    C     C_R   0.500095 0.952923 0.499167 -0.002133
C10   C     C_R   0.499905 0.047077 0.500834 -0.002133
C11   C     C_R   0.424294 0.908744 0.478211 0.105531
C12   C     C_R   0.575705 0.091256 0.521790 0.105533
C13   C     C_R   0.650142 0.948950 0.540038 -0.202170
C14   C     C_R   0.349858 0.051050 0.459963 -0.202171
C15   C     C_R   0.649947 0.040568 0.541689 -0.201115
C16   C     C_R   0.350052 0.959432 0.458313 -0.201115
C17   C     C_R   0.570375 0.468446 0.797500 0.317011
C18   C     C_R   0.429627 0.531552 0.202496 0.317010
C19   C     C_R   0.430366 0.528968 0.791371 -0.009598
C20   C     C_R   0.569639 0.471030 0.208628 -0.009618
C21   C     C_R   0.427849 0.524862 0.893399 -0.040673
C22   C     C_R   0.572165 0.475137 0.106598 -0.040689
C23   C     C_R   0.339939 0.500557 0.499096 0.800858
C24   C     C_R   0.660061 0.499443 0.500904 0.800861
C25   C     C_R   0.500998 0.501061 0.948426 0.014245
C26   C     C_R   0.499021 0.498946 0.051569 0.014266
C27   C     C_R   0.575851 0.479025 0.900317 -0.006051
C28   C     C_R   0.424167 0.520977 0.099677 -0.006050
C29   C     C_R   0.352332 0.540867 0.940761 -0.198076
C30   C     C_R   0.647682 0.459119 0.059234 -0.198093
C31   C     C_R   0.348240 0.534793 0.042227 0.194815
C32   C     C_R   0.651774 0.465191 0.957766 0.194870
C33   C     C_3   0.975510 0.426403 0.549120 -0.245958
C34   C     C_3   0.024490 0.573596 0.450880 -0.245959
C35   C     C_3   0.028738 0.426197 0.455681 -0.209696
C36   C     C_3   0.971262 0.573801 0.544319 -0.209696
C37   C     C_1   0.250277 0.500642 0.497274 -0.182326
C38   C     C_1   0.749723 0.499358 0.502726 -0.182329
C39   C     C_3   0.030515 0.500446 0.588749 0.333799
C40   C     C_3   0.969485 0.499552 0.411251 0.333797
C41   C     C_3   0.083133 0.500283 0.497527 0.087146
C42   C     C_3   0.916866 0.499716 0.502473 0.087146
C43   C     C_1   0.174745 0.500560 0.496872 -0.047522
C44   C     C_1   0.825255 0.499439 0.503128 -0.047521
C45   C     C_R   0.423882 0.815167 0.478255 0.075550
C46   C     C_R   0.576118 0.184833 0.521747 0.075546
Cu1   Cu    Cu3+1 0.500010 0.499990 0.597420 0.939591
Cu2   Cu    Cu3+1 0.499990 0.500010 0.402580 0.939594
H1    H     H_    0.052892 0.366767 0.418225 0.142308
H2    H     H_    0.947108 0.633232 0.581774 0.142308
H3    H     H_    0.295021 0.554142 0.897989 0.143722
H4    H     H_    0.704986 0.445820 0.102007 0.143745
H5    H     H_    0.954852 0.367344 0.590840 0.144089
H6    H     H_    0.045147 0.632655 0.409161 0.144088
H7    H     H_    0.709688 0.914638 0.556208 0.153992
H8    H     H_    0.290312 0.085362 0.443793 0.153992
H9    H     H_    0.709343 0.070675 0.559001 0.155063
H10   H     H_    0.290657 0.929325 0.441001 0.155063
H11   H     H_    0.374872 0.551594 0.750127 0.145233
H12   H     H_    0.625127 0.448398 0.249874 0.145239
N1    N     N_R   0.499960 0.499930 0.743810 -0.183600
N2    N     N_R   0.500040 0.500070 0.256190 -0.183589
O1    O     O_R   0.500020 0.370250 0.582280 -0.590612
O2    O     O_R   0.499980 0.629750 0.417720 -0.590600
O3    O     O_R   0.500010 0.370270 0.417740 -0.567043
O4    O     O_R   0.499990 0.629730 0.582260 -0.567043
O5    O     O_R   0.379080 0.499980 0.582260 -0.581658
O6    O     O_R   0.620920 0.500020 0.417740 -0.581657
O7    O     O_R   0.379070 0.500000 0.417710 -0.583558
O8    O     O_R   0.620930 0.500000 0.582290 -0.583547
C47   C     C_3   0.260944 0.530785 0.083701 -0.890184
H13   H     H_    0.259729 0.480128 0.143166 0.237147
H14   H     H_    0.239445 0.596763 0.108499 0.233583
H15   H     H_    0.213994 0.509947 0.028518 0.228551
C48   C     C_3   0.739077 0.469130 0.916292 -0.890224
H16   H     H_    0.740323 0.519726 0.856776 0.237144
H17   H     H_    0.786035 0.489999 0.971441 0.228549
H18   H     H_    0.760562 0.403123 0.891575 0.233579
N3    N     N_2   0.933055 0.499351 0.314463 -0.426394
H19   H     H_    0.887203 0.548381 0.302575 0.249196
C49   C     C_3   0.993607 0.495136 0.237970 -0.701573
H20   H     H_    0.959726 0.490922 0.167217 0.226549
H21   H     H_    0.035514 0.435305 0.247973 0.235410
H22   H     H_    0.032290 0.555508 0.236999 0.220761
N4    N     N_2   0.066945 0.500648 0.685537 -0.426394
H23   H     H_    0.112798 0.451619 0.697426 0.249194
C50   C     C_3   0.006393 0.504863 0.762031 -0.701578
H24   H     H_    0.040275 0.509090 0.832782 0.226551
H25   H     H_    0.967718 0.444484 0.763011 0.220762
H26   H     H_    0.964477 0.564687 0.752020 0.235408
C51   C     C_3   0.341535 0.767731 0.460281 -0.886860
H27   H     H_    0.347054 0.694579 0.466327 0.220907
H28   H     H_    0.294570 0.788193 0.514383 0.233985
H29   H     H_    0.316664 0.784697 0.386294 0.230445
C52   C     C_3   0.658464 0.232269 0.539722 -0.886863
H30   H     H_    0.652945 0.305421 0.533678 0.220914
H31   H     H_    0.683334 0.215303 0.613710 0.230447
H32   H     H_    0.705430 0.211807 0.485621 0.233985
C53   C     C_3   0.659036 0.757165 0.533798 -0.857024
H33   H     H_    0.653511 0.684771 0.526669 0.227131
H34   H     H_    0.706135 0.778203 0.480181 0.224698
H35   H     H_    0.683685 0.768466 0.608088 0.230546
C54   C     C_3   0.340964 0.242835 0.466201 -0.857028
H36   H     H_    0.346489 0.315229 0.473329 0.227133
H37   H     H_    0.316315 0.231534 0.391911 0.230544
H38   H     H_    0.293865 0.221798 0.519818 0.224699
C55   C     C_3   0.633485 0.405505 0.753305 -0.778411
H39   H     H_    0.607307 0.371135 0.691542 0.266732
H40   H     H_    0.690924 0.440111 0.730867 0.227706
H41   H     H_    0.650805 0.350331 0.805087 0.193980
C56   C     C_3   0.366497 0.594467 0.246696 -0.778375
H42   H     H_    0.392654 0.628834 0.308478 0.266730
H43   H     H_    0.349171 0.649648 0.194922 0.193951
H44   H     H_    0.309061 0.559838 0.269107 0.227701

loop_
_geom_bond_atom_site_label_1
_geom_bond_atom_site_label_2
_ccdc_geom_bond_type
C14   H8    S    
C50   H24   S    
C55   H40   S    
C23   O7    A    
C36   C42   S    
C52   H30   S    
Cu2   O7    S    
C32   C48   S    
C49   H20   S    
C52   H32   S    
C24   O8    A    
C39   C41   S    
C4    C46   A    
N4    H23   S    
C33   C39   S    
C36   C39   S    
C34   C40   S    
C33   C42   S    
C19   C21   A    
C17   C55   S    
Cu1   O1    S    
Cu2   O2    S    
C23   O5    A    
C21   C25   A    
C17   N1    A    
C1    O3    A    
C56   H43   S    
Cu1   Cu2   S    
C35   H1    S    
C24   C38   S    
C55   H39   S    
Cu2   O3    S    
C20   H12   S    
C9    C10   A    
Cu1   O4    S    
C40   C42   S    
C41   C43   S    
C56   H44   S    
C34   C41   S    
C42   C44   S    
C35   C41   S    
C1    O1    A    
Cu1   O5    S    
C49   H21   S    
C2    O2    A    
N4    C50   S    
C33   H5    S    
C46   C52   S    
C17   C27   A    
C5    C53   S    
C18   C28   A    
C18   C56   S    
C4    C6    A    
C51   H27   S    
N3    C49   S    
C18   N2    A    
C6    C8    A    
C19   H11   S    
C25   C26   A    
C23   C37   S    
C21   C29   A    
C3    C45   A    
C37   C43   T    
C48   H16   S    
Cu1   O8    S    
C38   C44   T    
C51   H28   S    
C48   H17   S    
C11   C16   A    
Cu2   N2    S    
C53   H33   S    
C12   C15   A    
C40   N3    S    
C54   H37   S    
C16   H10   S    
C6    C54   S    
Cu2   O6    S    
C9    C11   A    
C10   C12   A    
C12   C46   A    
C53   H34   S    
C20   C22   A    
C34   H6    S    
C13   C15   A    
C55   H41   S    
C14   C16   A    
C11   C45   A    
C39   N4    S    
C49   H22   S    
C36   H2    S    
C5    C7    A    
C29   H3    S    
C7    C9    A    
C30   H4    S    
C8    C14   A    
C22   C30   A    
C56   H42   S    
C27   C32   A    
C28   C31   A    
C3    C5    A    
Cu1   N1    S    
C47   H15   S    
C52   H31   S    
C2    O4    A    
C25   C27   A    
C26   C28   A    
C1    C4    S    
C50   H25   S    
C2    C3    S    
C47   H13   S    
C29   C31   A    
C51   H29   S    
C30   C32   A    
C19   N1    A    
C15   H9    S    
C31   C47   S    
C33   C35   S    
C35   C40   S    
C54   H38   S    
C34   C36   S    
C20   N2    A    
C45   C51   S    
C48   H18   S    
C24   O6    A    
N3    H19   S    
C7    C13   A    
C53   H35   S    
C8    C10   A    
C22   C26   A    
C50   H26   S    
C47   H14   S    
C54   H36   S    
C13   H7    S    
