data_mof_unit_32278.cif
_audit_creation_date              2012-12-10T17:22:42-0500
_audit_creation_method            fapswitch 2.2
_symmetry_space_group_name_H-M    P1
_symmetry_Int_Tables_number       1
_space_group_crystal_system       triclinic
_cell_length_a                    10.630568
_cell_length_b                    10.854756
_cell_length_c                    9.618066
_cell_angle_alpha                 89.391772
_cell_angle_beta                  91.59318
_cell_angle_gamma                 91.759089
_cell_volume                      1108.84521109

loop_
_atom_site_label
_atom_site_type_symbol
_atom_type_description
_atom_site_fract_x
_atom_site_fract_y
_atom_site_fract_z
_atom_type_partial_charge
Br1   Br    Br    0.302990 0.311131 0.838537 -0.540186
C1    C     C_R   0.509495 0.262934 0.501458 0.812408
C2    C     C_R   0.527599 0.062140 0.632893 0.093497
C3    C     C_R   0.519672 0.128673 0.505266 -0.120435
C4    C     C_R   0.259513 0.499303 0.498391 0.812148
C5    C     C_R   0.504673 0.064861 0.379716 -0.205266
C6    C     C_R   0.493688 0.937741 0.379665 -0.219232
C7    C     C_R   0.485946 0.872030 0.505179 -0.113074
C8    C     C_R   0.655933 0.674207 0.140940 -0.167269
C9    C     C_R   0.727049 0.757432 0.060934 -0.251190
C10   C     C_R   0.743928 0.732475 0.921125 -0.196624
C11   C     C_R   0.699980 0.617686 0.871797 0.043576
C12   C     C_3   0.964958 0.599427 0.566669 -0.161189
C13   C     C_R   0.587583 0.571331 0.928364 0.097994
C14   C     C_R   0.579180 0.581295 0.075588 0.180063
C15   C     C_R   0.421940 0.424478 0.073617 -0.085593
C16   C     C_R   0.492278 0.737405 0.500509 0.770990
C17   C     C_R   0.419270 0.426134 0.926153 0.346258
C18   C     C_R   0.740658 0.500290 0.501046 0.764018
C19   C     C_3   0.035891 0.399623 0.429248 -0.160812
C20   C     C_3   0.953985 0.502926 0.366997 -0.117404
C21   C     C_3   0.877925 0.499951 0.500814 -0.001077
C22   C     C_3   0.957601 0.396542 0.562458 -0.153416
C23   C     C_3   0.043137 0.602315 0.433478 -0.194189
C24   C     C_3   0.046683 0.495919 0.628787 -0.048583
C25   C     C_2   0.800732 0.525018 0.866947 0.848402
C26   C     C_3   0.122560 0.499049 0.495741 -0.012831
C27   C     C_R   0.570997 0.115677 0.759933 -0.122041
C28   C     C_R   0.551459 0.055335 0.886379 -0.117375
C29   C     C_R   0.488202 0.941623 0.888317 -0.128151
C30   C     C_R   0.456501 0.882751 0.763545 -0.137985
C31   C     C_R   0.489145 0.936881 0.633778 0.095148
Cu1   Cu    Cu3+1 0.499990 0.499990 0.640660 0.989192
Cu2   Cu    Cu3+1 0.500010 0.500010 0.359340 0.942141
H1    H     H_    0.913704 0.505999 0.259261 0.167383
H2    H     H_    0.919853 0.312453 0.615338 0.138673
H3    H     H_    0.090062 0.492013 0.734894 0.209507
H4    H     H_    0.933112 0.681182 0.622809 0.143132
H5    H     H_    0.081208 0.686122 0.380252 0.142850
H6    H     H_    0.501758 0.113098 0.280533 0.168111
H7    H     H_    0.622754 0.202737 0.763344 0.189782
H8    H     H_    0.582043 0.098577 0.982978 0.140007
H9    H     H_    0.845032 0.345453 0.862585 0.318711
H10   H     H_    0.466018 0.897620 0.986560 0.137728
H11   H     H_    0.402636 0.797210 0.771437 0.164877
H12   H     H_    0.489554 0.891046 0.280556 0.164819
H13   H     H_    0.358960 0.362201 0.128764 0.164921
H14   H     H_    0.666367 0.685346 0.250420 0.203389
H15   H     H_    0.779038 0.833310 0.109986 0.164756
H16   H     H_    0.816875 0.783846 0.866966 0.163494
H17   H     H_    0.068091 0.318291 0.372622 0.142921
N1    N     N_R   0.501210 0.501210 0.147910 -0.211686
N2    N     N_R   0.501250 0.501290 0.852040 -0.209053
O1    O     O_R   0.499990 0.319640 0.618810 -0.540303
O2    O     O_R   0.768610 0.399118 0.859901 -0.771365
O3    O     O_R   0.500000 0.319660 0.381240 -0.587553
O4    O     O_R   0.316850 0.499960 0.618770 -0.553874
O5    O     O_R   0.316860 0.499980 0.381190 -0.580672
O6    O     O_R   0.500000 0.680340 0.618760 -0.596959
O7    O     O_R   0.500010 0.680360 0.381190 -0.603466
O8    O     O_R   0.683140 0.500020 0.618810 -0.572139
O9    O     O_R   0.683150 0.500040 0.381230 -0.599449
O10   O     O_2   0.911580 0.557689 0.879215 -0.640455

loop_
_geom_bond_atom_site_label_1
_geom_bond_atom_site_label_2
_ccdc_geom_bond_type
C2    C31   A    
C1    C3    S    
C25   O10   D    
C23   C26   S    
Cu2   O3    S    
C28   C29   A    
C20   H1    S    
C19   C26   S    
C28   H8    S    
C24   C26   S    
C8    C9    A    
Cu2   N1    S    
C7    C16   S    
C13   C14   A    
C19   C22   S    
C4    O4    A    
C10   C11   A    
C29   H10   S    
C25   O2    S    
C13   N2    A    
Cu1   Cu2   S    
Br1   C17   S    
C6    C7    A    
Cu1   O6    S    
C10   H16   S    
C1    O3    A    
C20   C21   S    
Cu2   O7    S    
C4    C26   S    
C12   C24   S    
C12   H4    S    
C5    C6    A    
C4    O5    A    
C16   O6    A    
C15   H13   S    
H9    O2    S    
C27   C28   A    
C11   C13   A    
C12   C21   S    
C19   H17   S    
C22   C24   S    
Cu1   N2    S    
C29   C30   A    
C18   O8    A    
C5    H6    S    
C3    C5    A    
C9    C10   A    
C16   O7    A    
C30   H11   S    
C2    C3    A    
C7    C31   A    
C6    H12   S    
C15   N1    A    
C27   H7    S    
Cu2   O9    S    
C18   C21   S    
C19   C20   S    
C12   C23   S    
C8    H14   S    
Cu1   O8    S    
C22   H2    S    
C1    O1    A    
C20   C23   S    
Cu1   O1    S    
Cu2   O5    S    
C21   C22   S    
C2    C27   A    
Cu1   O4    S    
C18   O9    A    
C17   N2    A    
C24   H3    S    
C14   N1    A    
C9    H15   S    
C23   H5    S    
C15   C17   A    
C30   C31   A    
C8    C14   A    
C11   C25   S    
