data_mof_unit_49273.cif
_audit_creation_date              2012-10-26T18:54:29-0400
_audit_creation_method            fapswitch 2.2
_symmetry_space_group_name_H-M    P1
_symmetry_Int_Tables_number       1
_space_group_crystal_system       triclinic
_cell_length_a                    15.912181
_cell_length_b                    11.728658
_cell_length_c                    10.469124
_cell_angle_alpha                 90.333297
_cell_angle_beta                  90.189796
_cell_angle_gamma                 91.133592
_cell_volume                      1953.41028519

loop_
_atom_site_label
_atom_site_type_symbol
_atom_type_description
_atom_site_fract_x
_atom_site_fract_y
_atom_site_fract_z
_atom_type_partial_charge
C1    C     C_1   0.500497 0.161959 0.499341 -0.023676
C2    C     C_1   0.500606 0.940299 0.500453 -0.039765
C3    C     C_3   0.965500 0.430951 0.575526 0.270545
C4    C     C_3   0.035026 0.574706 0.409020 0.214784
C5    C     C_3   0.022251 0.395579 0.463201 0.232854
C6    C     C_3   0.978165 0.609945 0.522800 0.210520
C7    C     C_1   0.250164 0.492024 0.499067 -0.012708
C8    C     C_1   0.749742 0.509790 0.499031 -0.026665
C9    C     C_3   0.026639 0.529714 0.610976 0.262234
C10   C     C_3   0.973315 0.476160 0.373300 0.192405
C11   C     C_3   0.083669 0.493663 0.498832 -0.028150
C12   C     C_1   0.500423 0.838078 0.500761 -0.020219
C13   C     C_3   0.916112 0.511043 0.487586 -0.066117
C14   C     C_1   0.174919 0.489699 0.498720 0.015437
C15   C     C_1   0.824902 0.513461 0.494489 -0.017594
C16   C     C_3   0.002104 0.229312 0.343872 0.035433
C17   C     C_3   0.006665 0.099744 0.353237 -0.286091
C18   C     C_3   0.954938 0.042291 0.246860 -0.491517
C19   C     C_3   0.012008 0.802997 0.554205 0.026997
C20   C     C_3   0.001314 0.883391 0.668234 -0.269019
C21   C     C_3   0.077080 0.964012 0.684967 -0.486563
C22   C     C_3   0.885678 0.267963 0.620258 0.023292
C23   C     C_1   0.500023 0.499996 0.072062 0.088489
C24   C     C_3   0.819244 0.227389 0.715593 -0.261479
C25   C     C_3   0.767563 0.126802 0.662299 -0.482843
C26   C     C_3   0.026757 0.712646 0.249543 0.030979
C27   C     C_3   0.035936 0.681429 0.108263 -0.245300
C28   C     C_3   0.970200 0.740589 0.026897 -0.495488
C29   C     C_3   0.877863 0.484550 0.200741 0.001468
C30   C     C_3   0.813546 0.385721 0.198565 -0.272835
C31   C     C_3   0.732078 0.420120 0.133208 -0.452810
C32   C     C_3   0.119429 0.616586 0.759055 0.003543
C33   C     C_3   0.183018 0.550478 0.837711 -0.254451
C34   C     C_1   0.500018 0.499995 0.927938 0.088747
C35   C     C_3   0.261943 0.622516 0.865574 -0.462290
C36   C     C_R   0.500164 0.283319 0.499718 0.548003
C37   C     C_R   0.500172 0.716693 0.500300 0.549366
C38   C     C_R   0.339440 0.497173 0.499738 0.546175
C39   C     C_R   0.660537 0.503113 0.500071 0.543112
C40   C     C_1   0.500655 0.059753 0.499738 -0.041755
Cu1   Cu    Cu3+1 0.500000 0.500000 0.625300 0.983237
Cu2   Cu    Cu3+1 0.500000 0.500000 0.374700 0.985151
H1    H     H_    0.029070 0.256230 0.250652 0.199217
H2    H     H_    0.943787 0.934172 0.654412 0.157839
H3    H     H_    0.993392 0.832847 0.756640 0.177778
H4    H     H_    0.134146 0.914782 0.707473 0.142234
H5    H     H_    0.065363 0.024057 0.765048 0.160441
H6    H     H_    0.088305 0.013989 0.596787 0.165903
H7    H     H_    0.930230 0.197875 0.603501 0.165996
H8    H     H_    0.853118 0.288415 0.529172 0.104202
H9    H     H_    0.850455 0.201349 0.805702 0.171600
H10   H     H_    0.776422 0.298613 0.737607 0.183637
H11   H     H_    0.733688 0.152216 0.574282 0.150511
H12   H     H_    0.934402 0.251048 0.347913 0.133790
H13   H     H_    0.720581 0.098546 0.734241 0.158614
H14   H     H_    0.808987 0.054311 0.639813 0.145839
H15   H     H_    0.047733 0.802820 0.260952 0.128011
H16   H     H_    0.959473 0.707492 0.278847 0.133611
H17   H     H_    0.099778 0.707064 0.074913 0.156854
H18   H     H_    0.029224 0.587890 0.094917 0.224733
H19   H     H_    0.906063 0.724885 0.065308 0.140911
H20   H     H_    0.971670 0.706087 0.928187 0.186177
H21   H     H_    0.983371 0.833917 0.024689 0.139876
H22   H     H_    0.886609 0.513415 0.100798 0.168153
H23   H     H_    0.073107 0.072927 0.346396 0.173195
H24   H     H_    0.854134 0.559559 0.253897 0.122662
H25   H     H_    0.840086 0.312234 0.145840 0.168176
H26   H     H_    0.799731 0.357644 0.297413 0.145951
H27   H     H_    0.706647 0.497638 0.179069 0.177671
H28   H     H_    0.684704 0.349706 0.140698 0.157554
H29   H     H_    0.743550 0.437761 0.030522 0.149628
H30   H     H_    0.102238 0.694266 0.813112 0.138233
H31   H     H_    0.149761 0.646282 0.669634 0.106168
H32   H     H_    0.153932 0.524146 0.929600 0.182824
H33   H     H_    0.200823 0.472347 0.784572 0.183530
H34   H     H_    0.981045 0.071713 0.446604 0.151525
H35   H     H_    0.292617 0.648986 0.775020 0.169083
H36   H     H_    0.306995 0.571773 0.921803 0.164478
H37   H     H_    0.245755 0.699642 0.921710 0.141171
H38   H     H_    0.889284 0.072821 0.247988 0.146430
H39   H     H_    0.952746 0.948825 0.261125 0.134690
H40   H     H_    0.983395 0.060873 0.152312 0.151606
H41   H     H_    0.005401 0.853688 0.465921 0.130107
H42   H     H_    0.076515 0.768435 0.555245 0.135426
N1    N     N_1   0.500010 0.500000 0.186410 -0.193364
N2    N     N_1   0.499990 0.500000 0.813590 -0.191727
O1    O     O_R   0.499990 0.337200 0.605810 -0.487408
O2    O     O_3   0.947533 0.718432 0.556294 -0.559342
O3    O     O_3   0.930055 0.362424 0.672868 -0.520742
O4    O     O_3   0.080697 0.645656 0.324089 -0.566042
O5    O     O_3   0.956292 0.446099 0.244391 -0.590948
O6    O     O_3   0.046017 0.548396 0.741518 -0.527875
O7    O     O_R   0.500010 0.662800 0.394190 -0.486364
O8    O     O_R   0.500010 0.337200 0.394190 -0.488899
O9    O     O_R   0.499990 0.662800 0.605810 -0.490146
O10   O     O_R   0.379070 0.500000 0.605790 -0.502996
O11   O     O_R   0.620930 0.500000 0.394210 -0.507197
O12   O     O_R   0.379080 0.500000 0.394170 -0.477143
O13   O     O_R   0.620920 0.500000 0.605830 -0.484317
O14   O     O_3   0.048619 0.281937 0.443972 -0.566960

loop_
_geom_bond_atom_site_label_1
_geom_bond_atom_site_label_2
_ccdc_geom_bond_type
C24   H10   S    
Cu2   O7    S    
Cu1   Cu2   S    
C19   C20   S    
C25   H14   S    
C38   O12   A    
C2    C12   T    
C6    C9    S    
C32   H30   S    
Cu1   O9    S    
Cu1   N2    S    
C26   C27   S    
C30   H25   S    
C25   H11   S    
C5    C11   S    
C27   H18   S    
Cu2   O12   S    
C30   C31   S    
C11   C14   S    
C39   O11   A    
Cu1   O10   S    
C18   H39   S    
C6    O2    S    
C37   O9    A    
C34   N2    T    
C12   C37   S    
C1    C40   T    
C33   C35   S    
C33   H33   S    
C31   H28   S    
C16   C17   S    
C17   H34   S    
Cu1   O13   S    
C8    C39   S    
C20   H3    S    
C3    C13   S    
C22   H8    S    
C21   H6    S    
C28   H19   S    
C24   H9    S    
C31   H29   S    
C29   H22   S    
C19   H41   S    
C9    O6    S    
C20   H2    S    
C4    O4    S    
C7    C14   T    
C36   O1    A    
Cu1   O1    S    
C24   C25   S    
C4    C6    S    
C19   O2    S    
Cu2   O11   S    
C32   H31   S    
C16   O14   S    
C35   H35   S    
C29   C30   S    
C3    C9    S    
C2    C40   S    
C26   H16   S    
C39   O13   A    
C5    O14   S    
C23   C34   S    
C17   C18   S    
C37   O7    A    
Cu2   N1    S    
C4    C11   S    
C9    C11   S    
C16   H1    S    
C22   H7    S    
C10   O5    S    
C8    C15   T    
C13   C15   S    
C22   C24   S    
C4    C10   S    
C19   H42   S    
C29   O5    S    
C21   H4    S    
Cu2   O8    S    
C25   H13   S    
C3    C5    S    
C10   C13   S    
C7    C38   S    
C26   O4    S    
C35   H36   S    
C17   H23   S    
C3    O3    S    
C32   C33   S    
C5    C10   S    
C27   H17   S    
C6    C13   S    
C32   O6    S    
C35   H37   S    
C18   H40   S    
C22   O3    S    
C26   H15   S    
C16   H12   S    
C29   H24   S    
C28   H21   S    
C36   O8    A    
C33   H32   S    
C31   H27   S    
C20   C21   S    
C18   H38   S    
C23   N1    T    
C38   O10   A    
C27   C28   S    
C30   H26   S    
C1    C36   S    
C21   H5    S    
C28   H20   S    
