data_mof_unit_55810.cif
_audit_creation_date              2012-12-10T17:09:50-0500
_audit_creation_method            fapswitch 2.2
_symmetry_space_group_name_H-M    P1
_symmetry_Int_Tables_number       1
_space_group_crystal_system       triclinic
_cell_length_a                    10.785161
_cell_length_b                    13.005111
_cell_length_c                    11.688702
_cell_angle_alpha                 99.79511
_cell_angle_beta                  93.52601
_cell_angle_gamma                 90.133052
_cell_volume                      1612.3889784

loop_
_atom_site_label
_atom_site_type_symbol
_atom_type_description
_atom_site_fract_x
_atom_site_fract_y
_atom_site_fract_z
_atom_type_partial_charge
C1    C     C_R   0.498300 0.299136 0.478703 0.865447
C2    C     C_R   0.068303 0.599683 0.563076 -0.023874
C3    C     C_R   0.128968 0.511737 0.502676 -0.170306
C4    C     C_R   0.060977 0.427486 0.438620 -0.275418
C5    C     C_R   0.933002 0.425981 0.436869 0.616667
C6    C     C_R   0.870976 0.509315 0.499101 -0.189638
C7    C     C_R   0.505581 0.814181 0.533547 -0.146424
C8    C     C_R   0.497543 0.185753 0.466412 -0.171539
C9    C     C_R   0.484995 0.015493 0.344366 0.629963
C10   C     C_R   0.485753 0.123547 0.355737 -0.218207
C11   C     C_R   0.508706 0.139321 0.566044 -0.153838
C12   C     C_R   0.262627 0.504845 0.501152 0.924236
C13   C     C_R   0.508159 0.031200 0.555913 -0.050548
C14   C     C_R   0.496157 0.968702 0.444033 -0.034243
C15   C     C_R   0.495186 0.860599 0.433898 -0.210933
C16   C     C_R   0.517914 0.876345 0.644231 -0.210552
C17   C     C_R   0.519215 0.984410 0.655598 0.630181
C18   C     C_R   0.383355 0.400127 0.022814 0.472420
C19   C     C_R   0.396952 0.409360 0.145084 -0.021699
C20   C     C_R   0.547340 0.543958 0.156893 0.124162
C21   C     C_R   0.539343 0.537140 0.034164 -0.261609
C22   C     C_R   0.457110 0.463547 0.965749 -0.216331
C23   C     C_R   0.503201 0.700842 0.521253 0.890519
C24   C     C_R   0.450637 0.456580 0.842551 0.690579
C25   C     C_R   0.602607 0.590776 0.856001 0.626786
C26   C     C_R   0.610964 0.602534 0.978426 0.304276
C27   C     C_R   0.737435 0.501752 0.499539 0.843783
C28   C     C_R   0.132952 0.690467 0.622561 0.595690
C29   C     C_R   0.068386 0.775419 0.678445 -0.176818
C30   C     C_R   0.939506 0.773453 0.674942 -0.188812
C31   C     C_R   0.873906 0.686294 0.615730 -0.082062
C32   C     C_R   0.936749 0.598019 0.560405 -0.060835
Cu1   Cu    Cu3+1 0.509250 0.507730 0.615930 1.086106
Cu2   Cu    Cu3+1 0.490750 0.492270 0.384070 0.983863
H1    H     H_    0.107829 0.361293 0.391335 0.170812
H2    H     H_    0.476879 0.158386 0.277837 0.197053
H3    H     H_    0.517835 0.187385 0.651582 0.242368
H4    H     H_    0.343045 0.358999 0.188401 0.141286
H5    H     H_    0.610190 0.599747 0.210651 0.164839
H6    H     H_    0.118816 0.844117 0.723321 0.182546
H7    H     H_    0.890010 0.840349 0.716974 0.184477
H8    H     H_    0.773692 0.689835 0.612021 0.172919
H9    H     H_    0.485924 0.812547 0.348351 0.207470
H10   H     H_    0.526418 0.841471 0.722128 0.207729
N1    N     N_R   0.523180 0.519350 0.790130 -0.311302
N2    N     N_R   0.476820 0.480650 0.209890 -0.217886
O1    O     O_R   0.506570 0.354460 0.582000 -0.545944
O2    O     O_R   0.490940 0.341410 0.386200 -0.589266
O3    O     O_R   0.327470 0.506530 0.597920 -0.496836
O4    O     O_R   0.311840 0.493480 0.402120 -0.608677
O5    O     O_R   0.509060 0.658590 0.613800 -0.517708
O6    O     O_R   0.493430 0.645540 0.418000 -0.619547
O7    O     O_R   0.688160 0.506520 0.597880 -0.552961
O8    O     O_R   0.672530 0.493470 0.402080 -0.561844
F1    F     F_    0.530973 0.042909 0.763739 -0.641802
F2    F     F_    0.371471 0.387428 0.774608 -0.603138
F3    F     F_    0.674423 0.652004 0.803371 -0.648963
O9    O     O_3   0.303937 0.324781 0.959629 -0.516153
C33   C     C_3   0.180816 0.359789 0.969965 -0.181025
H11   H     H_    0.168212 0.436364 0.940420 0.162810
H12   H     H_    0.152310 0.364791 0.060593 0.129644
H13   H     H_    0.117947 0.302474 0.913129 0.207173
O10   O     O_3   0.693969 0.674427 0.042387 -0.563066
C34   C     C_3   0.634604 0.771670 0.064118 -0.159544
H14   H     H_    0.550032 0.767134 0.113197 0.168218
H15   H     H_    0.610561 0.801550 0.981888 0.196446
H16   H     H_    0.699509 0.828878 0.118587 0.206118
F4    F     F_    0.257911 0.700418 0.625087 -0.690195
F5    F     F_    0.869322 0.341494 0.376844 -0.650432
F6    F     F_    0.472987 0.957052 0.236239 -0.686608

loop_
_geom_bond_atom_site_label_1
_geom_bond_atom_site_label_2
_ccdc_geom_bond_type
Cu2   O4    S    
C12   O4    A    
C9    C14   A    
C27   O7    A    
C30   H7    S    
Cu2   O8    S    
C29   C30   A    
Cu2   N2    S    
C19   H4    S    
Cu1   O5    S    
C1    C8    S    
Cu1   N1    S    
C9    C10   A    
C17   F1    S    
C6    C32   A    
C31   C32   A    
C14   C15   A    
C13   C17   A    
C24   F2    S    
C26   O10   S    
C34   H14   S    
C7    C15   A    
C12   O3    A    
C25   C26   A    
C4    H1    S    
C15   H9    S    
C33   H11   S    
C1    O2    A    
C13   C14   A    
C9    F6    S    
C11   C13   A    
C23   O6    A    
C30   C31   A    
C27   O8    A    
C8    C11   A    
C7    C23   S    
C24   N1    A    
C29   H6    S    
C2    C32   A    
C28   C29   A    
C31   H8    S    
C21   C26   A    
Cu1   Cu2   S    
C21   C22   A    
C2    C3    A    
Cu1   O7    S    
C5    C6    A    
Cu1   O1    S    
C22   C24   A    
C19   N2    A    
Cu2   O2    S    
Cu1   O3    S    
O10   C34   S    
C25   F3    S    
C34   H16   S    
C25   N1    A    
C20   C21   A    
C3    C4    A    
C8    C10   A    
C18   C19   A    
C33   H12   S    
C11   H3    S    
C20   H5    S    
C16   H10   S    
C2    C28   A    
C7    C16   A    
C33   H13   S    
C5    F5    S    
C3    C12   S    
C28   F4    S    
O9    C33   S    
C18   C22   A    
Cu2   O6    S    
C18   O9    S    
C20   N2    A    
C23   O5    A    
C6    C27   S    
C16   C17   A    
C1    O1    A    
C4    C5    A    
C10   H2    S    
C34   H15   S    
