data_mof_unit_67049.cif
_audit_creation_date              2013-03-05T15:58:16-0500
_audit_creation_method            fapswitch 2.2
_symmetry_space_group_name_H-M    P1
_symmetry_Int_Tables_number       1
_space_group_crystal_system       triclinic
_cell_length_a                    8.287603
_cell_length_b                    12.660796
_cell_length_c                    14.282795
_cell_angle_alpha                 93.376777
_cell_angle_beta                  91.083896
_cell_angle_gamma                 97.777839
_cell_volume                      1481.74697141

loop_
_atom_site_label
_atom_site_type_symbol
_atom_site_description
_atom_site_fract_x
_atom_site_fract_y
_atom_site_fract_z
_atom_type_partial_charge
P1    P     P_3+3 0.054400 0.427280 0.286870 0.444766
O1    O     O_2   0.887370 0.460630 0.272300 -0.388185
O2    O     O_3   0.129410 0.451380 0.388510 -0.399014
O3    O     O_3   0.670210 0.653170 0.329170 -0.374647
O4    O     O_2   0.774367 0.584510 0.164361 -0.373757
O5    O     O_3   0.046756 0.293331 0.245848 -0.596606
O6    O     O_3   0.718133 0.781852 0.174435 -0.497982
H1    H     H_    0.737367 0.873417 0.299588 0.137240
C1    C     C_3   0.646790 0.957657 0.187328 -1.061410
H2    H     H_    0.597115 0.016462 0.235555 0.243152
H3    H     H_    0.769928 0.991188 0.165468 0.275875
P2    P     P_3+3 0.668300 0.742890 0.573060 0.434827
P3    P     P_3+3 0.131120 0.842437 0.375807 0.447112
O7    O     O_2   0.845380 0.761330 0.544970 -0.379300
O8    O     O_3   0.088930 0.704860 0.376040 -0.357859
O9    O     O_2   0.004941 0.887695 0.439408 -0.388424
O10   O     O_3   0.686253 0.764786 0.695286 -0.579471
O11   O     O_3   0.079352 0.875793 0.263112 -0.495401
C2    C     C_3   0.203078 0.853197 0.202535 0.380359
H4    H     H_    0.237979 0.772516 0.211714 0.079108
H5    H     H_    0.310138 0.915407 0.215287 0.061659
C3    C     C_3   0.143327 0.855894 0.101494 -0.889298
H6    H     H_    0.036590 0.793594 0.086586 0.287902
H7    H     H_    0.107723 0.935512 0.089110 0.251672
C4    C     C_3   0.275085 0.766555 0.684809 0.457208
H8    H     H_    0.361187 0.715879 0.653240 0.120730
C5    C     C_3   0.373494 0.857307 0.744504 -0.918328
H9    H     H_    0.437331 0.824851 0.803082 0.256953
H10   H     H_    0.464846 0.902422 0.700886 0.224835
H11   H     H_    0.292089 0.912789 0.774552 0.262884
Ba1   Ba    Ba6+2 0.855630 0.555280 0.454520 1.532146
C6    C     C_3   0.996814 0.222585 0.313955 0.417781
H12   H     H_    0.035802 0.254505 0.386244 0.131847
C7    C     C_3   0.071019 0.120485 0.294343 -0.862411
H13   H     H_    0.026194 0.080717 0.225662 0.247577
H14   H     H_    0.038981 0.065765 0.350919 0.253409
H15   H     H_    0.204588 0.139087 0.291296 0.268202
C8    C     C_3   0.714940 0.670887 0.735890 0.429336
H16   H     H_    0.823749 0.641676 0.705669 0.102083
H17   H     H_    0.607845 0.608248 0.724815 0.121835
C9    C     C_3   0.744641 0.695214 0.840970 -0.995843
H18   H     H_    0.856166 0.753987 0.854100 0.279896
H19   H     H_    0.760337 0.621463 0.875988 0.227335
H20   H     H_    0.639148 0.728414 0.872178 0.251311
P4    P     P_3+3 0.135310 0.572810 0.713130 0.445772
O12   O     O_2   0.302330 0.539400 0.727760 -0.386209
O13   O     O_3   0.060300 0.548700 0.611500 -0.408459
O14   O     O_3   0.519500 0.346920 0.670840 -0.376952
O15   O     O_3   0.162795 0.710681 0.742422 -0.577038
P5    P     P_3+3 0.059737 0.154850 0.618664 0.447476
O16   O     O_3   0.614310 0.373510 0.452640 -0.401047
O17   O     O_3   0.100780 0.295230 0.623970 -0.402918
O18   O     O_2   0.198557 0.111265 0.564213 -0.362891
O19   O     O_3   0.085079 0.110957 0.731465 -0.533087
Ba2   Ba    Ba6+2 0.334200 0.444810 0.545490 1.523083
P6    P     P_3+3 0.650919 0.653021 0.207548 0.473894
C10   C     C_3   0.655427 0.855459 0.236508 0.537507
H21   H     H_    0.530656 0.826135 0.259298 -0.032314
H22   H     H_    0.565551 0.940907 0.123936 0.263424
O20   O     O_3   0.575400 0.626570 0.547370 -0.413597
C11   C     C_3   0.471679 0.319537 0.259211 0.389863
H23   H     H_    0.364779 0.350447 0.290345 0.121516
H24   H     H_    0.581128 0.379951 0.272319 0.122170
C12   C     C_3   0.443228 0.300504 0.153610 -0.979571
H25   H     H_    0.329732 0.244224 0.138113 0.281022
H26   H     H_    0.431820 0.376752 0.121402 0.227577
H27   H     H_    0.547525 0.266182 0.121926 0.254215
P7    P     P_3+3 0.522012 0.242009 0.418642 0.401486
O21   O     O_2   0.344320 0.238700 0.455090 -0.353664
O22   O     O_3   0.494085 0.222486 0.296637 -0.604983
H28   H     H_    0.241879 0.840120 0.053106 0.206968
C13   C     C_3   0.055606 0.191956 0.797961 0.484287
H29   H     H_    0.146624 0.264251 0.793128 0.159906
H30   H     H_    0.931060 0.213088 0.787838 0.014059
C14   C     C_3   0.070908 0.152891 0.896055 -0.976087
H31   H     H_    0.196711 0.135474 0.909632 0.290614
H32   H     H_    0.043112 0.215295 0.948991 0.226163
H33   H     H_    0.984705 0.078836 0.903211 0.259672
P8    P     P_3+3 0.536893 0.346574 0.793624 0.451963
C15   C     C_3   0.556381 0.144312 0.773791 0.470401
H34   H     H_    0.659204 0.181729 0.732531 0.019145
O23   O     O_2   0.410574 0.413541 0.836118 -0.390411
O24   O     O_3   0.470381 0.216688 0.824351 -0.511916
H35   H     H_    0.470209 0.094640 0.723275 0.116033
H36   H     H_    0.705610 0.122550 0.895127 0.266506
C16   C     C_3   0.624112 0.072849 0.842271 -1.050153
H37   H     H_    0.694237 0.015948 0.804027 0.253041
H38   H     H_    0.523192 0.027461 0.879347 0.277312
C17   C     C_R   0.984058 0.450235 0.062773 -0.113471
C18   C     C_R   0.177016 0.506793 0.199266 0.317406
C19   C     C_R   0.330666 0.558283 0.229560 -0.518203
C20   C     C_R   0.442384 0.602775 0.165941 0.227243
C21   C     C_R   0.397429 0.605526 0.071561 -0.311508
C22   C     C_R   0.242638 0.558021 0.038201 0.065185
C23   C     C_R   0.132620 0.504591 0.101015 -0.004528
H39   H     H_    0.367972 0.557485 0.302504 0.173274
C24   C     C_R   0.052817 0.504684 0.903664 -0.009033
C25   C     C_R   0.941976 0.451986 0.966680 0.056383
C26   C     C_R   0.011487 0.497722 0.804972 0.224385
C27   C     C_R   0.863665 0.436961 0.775049 -0.425746
C28   C     C_R   0.746143 0.398632 0.838107 0.203345
C29   C     C_R   0.787090 0.403289 0.933531 -0.306685
C30   C     C_R   0.201035 0.559556 0.941760 -0.115837
H40   H     H_    0.485076 0.642349 0.023792 0.157581
H41   H     H_    0.697898 0.369316 0.981780 0.161208
H42   H     H_    0.898732 0.405674 0.106875 0.165645
H43   H     H_    0.287338 0.602057 0.896720 0.164188
C31   C     C_R   0.777889 0.169936 0.512964 -0.482787
C32   C     C_R   0.428611 0.812322 0.461214 -0.477867
C33   C     C_R   0.404564 0.993234 0.426160 -0.219515
C34   C     C_R   0.340027 0.886186 0.422441 0.179267
C35   C     C_R   0.574506 0.845743 0.512155 0.281902
C36   C     C_R   0.640280 0.955923 0.518290 -0.067481
C37   C     C_R   0.555006 0.029657 0.472123 -0.035599
C38   C     C_R   0.622884 0.138139 0.473243 0.264366
C39   C     C_R   0.859658 0.101352 0.562194 0.223236
C40   C     C_R   0.788706 0.995127 0.567714 -0.198485
H44   H     H_    0.334873 0.046996 0.393280 0.174527
H45   H     H_    0.852728 0.944397 0.608708 0.182843
H46   H     H_    0.839170 0.248079 0.501777 0.150625
H47   H     H_    0.377833 0.728783 0.457188 0.169938
N1    N     N_3   0.821939 0.198124 0.306109 -0.219040
H48   H     H_    0.789191 0.173191 0.236419 0.147686
H49   H     H_    0.782077 0.272120 0.316200 0.146237
C41   C     C_1   0.831581 0.414513 0.677658 0.227098
N2    N     N_1   0.807095 0.397958 0.598442 0.008072
N3    N     N_3   0.188376 0.811592 0.610761 -0.205112
H50   H     H_    0.133946 0.747983 0.566183 0.171901
H51   H     H_    0.096103 0.850347 0.640410 0.172467

loop_
_geom_bond_atom_site_label_1
_geom_bond_atom_site_label_2
_geom_bond_distance
_ccdc_geom_bond_type
C11   O22   1.401920 S    
O14   Ba2   2.787876 S    
O5    C6    1.391892 S    
C21   C22   1.403122 A    
C5    H10   1.109179 S    
C7    H15   1.102363 S    
C9    H18   1.110859 S    
C31   H46   1.071440 S    
O4    P6    1.542930 D    
C2    H4    1.112918 S    
O7    Ba1   2.854628 S    
C15   H35   1.109774 S    
C33   H44   1.072966 S    
C37   C38   1.411051 A    
C10   H21   1.111809 S    
C18   C23   1.441691 A    
P4    O12   1.515432 D    
P5    O19   1.752966 S    
P3    O11   1.748204 S    
O14   P8    1.757208 S    
O13   Ba2   2.918010 S    
C2    H5    1.108422 S    
O11   C2    1.402018 S    
C40   H45   1.077800 S    
H36   C16   1.109861 S    
C8    H16   1.105647 S    
C7    H13   1.109585 S    
C16   H38   1.110261 S    
P1    Ba1   3.389442 S    
C39   C40   1.400336 A    
C29   H41   1.083725 S    
P1    O1    1.515082 D    
C11   H24   1.109869 S    
C33   C34   1.385641 A    
C20   C21   1.395420 A    
C15   C16   1.520294 S    
C19   H39   1.082141 S    
O2    Ba2   2.798349 S    
P7    O21   1.567261 D    
O12   Ba2   2.832952 S    
P5    O17   1.760642 S    
C1    H2    1.109746 S    
C33   C37   1.405663 A    
P5    C39   1.854690 S    
O17   Ba2   2.815264 S    
O10   C8    1.399525 S    
C8    H17   1.109562 S    
Ba1   O13   2.797777 S    
Ba2   O20   2.835111 S    
O3    P6    1.741292 S    
C5    H11   1.111977 S    
C9    H19   1.106522 S    
C11   H23   1.106367 S    
O6    P6    1.746252 S    
C13   C14   1.521695 S    
C21   H40   1.084003 S    
C35   C36   1.424329 A    
C24   C26   1.439090 A    
C24   C25   1.426598 A    
P4    O13   1.564915 S    
P5    O18   1.545342 D    
C12   H27   1.110882 S    
C27   C41   1.416118 S    
C28   C29   1.394205 A    
C6    N1    1.441253 S    
C2    C3    1.520661 S    
C8    C9    1.522832 S    
C13   H30   1.109753 S    
P4    C26   1.900358 S    
C32   C35   1.400845 A    
C19   C20   1.396845 A    
C16   H37   1.110904 S    
C13   H29   1.110901 S    
O16   Ba2   2.916389 S    
C4    H8    1.107332 S    
C25   C29   1.407276 A    
P1    O5    1.753811 S    
O1    Ba1   2.832424 S    
C1    H22   1.110727 S    
C12   H26   1.108086 S    
Ba1   O20   2.917182 S    
C17   C23   1.410249 A    
C11   C12   1.522137 S    
C14   H31   1.110341 S    
N3    H51   1.046052 S    
H1    C10   1.111530 S    
C1    H3    1.108858 S    
C26   C27   1.400594 A    
P4    O15   1.754038 S    
Ba2   O21   2.854844 S    
O2    Ba1   2.917237 S    
C14   H32   1.111049 S    
C24   C30   1.409544 A    
C36   C40   1.420718 A    
P2    O7    1.519804 D    
C22   C30   1.415493 A    
P3    O8    1.729779 S    
P2    Ba1   3.397451 S    
C41   N2    1.147658 T    
C17   H42   1.079751 S    
C3    H7    1.110865 S    
N1    H49   1.037912 S    
N3    H50   1.042999 S    
P1    C18   1.879170 S    
C3    H28   1.110787 S    
P2    C35   1.854325 S    
C31   C38   1.392736 A    
C15   O24   1.409759 S    
C36   C37   1.428006 A    
Ba1   O16   2.835792 S    
C15   H34   1.113778 S    
P8    O23   1.544943 D    
O8    Ba1   2.814663 S    
C4    C5    1.522141 S    
C17   C25   1.411875 A    
Ba1   Ba2   4.571179 S    
C12   H25   1.110677 S    
C31   C39   1.385927 A    
C32   C34   1.397013 A    
C4    N3    1.453704 S    
P3    C34   1.844269 S    
C6    H12   1.112044 S    
P2    O10   1.751725 S    
P8    O24   1.746288 S    
C32   H47   1.081911 S    
C18   C19   1.398195 A    
C27   C28   1.397142 A    
C9    H20   1.109899 S    
C7    H14   1.108019 S    
C1    C10   1.517555 S    
O16   P7    1.771674 S    
C22   C23   1.424552 A    
C14   H33   1.110261 S    
C4    O15   1.401048 S    
O3    Ba1   2.788472 S    
P7    C38   1.852077 S    
P2    O20   1.585883 S    
P6    C20   1.834049 S    
O19   C13   1.405414 S    
P4    Ba2   3.389906 S    
P7    O22   1.752065 S    
P3    O9    1.543976 D    
C5    H9    1.109662 S    
C3    H6    1.110960 S    
P8    C28   1.856089 S    
C30   H43   1.081187 S    
P1    O2    1.565034 S    
N1    H48   1.045781 S    
O6    C10   1.405610 S    
C6    C7    1.518782 S    
