data_mof_unit_44370.cif
_audit_creation_date              2012-12-10T19:01:18-0500
_audit_creation_method            fapswitch 2.2
_symmetry_space_group_name_H-M    P1
_symmetry_Int_Tables_number       1
_space_group_crystal_system       triclinic
_cell_length_a                    9.557799
_cell_length_b                    10.822605
_cell_length_c                    15.512844
_cell_angle_alpha                 89.407973
_cell_angle_beta                  74.282996
_cell_angle_gamma                 89.670433
_cell_volume                      1544.56751582

loop_
_atom_site_label
_atom_site_type_symbol
_atom_type_description
_atom_site_fract_x
_atom_site_fract_y
_atom_site_fract_z
_atom_type_partial_charge
C1    C     C_R   0.999436 0.262443 0.501947 0.846045
C2    C     C_R   0.678753 0.522366 0.910836 -0.093845
C3    C     C_R   0.780563 0.489739 0.958878 -0.047800
C4    C     C_R   0.532897 0.551054 0.958626 0.114580
C5    C     C_R   0.483518 0.521799 0.051384 0.068760
C6    C     C_R   0.587296 0.485240 0.096677 -0.203267
C7    C     C_R   0.733634 0.473806 0.051601 -0.127779
C8    C     C_R   0.437134 0.613640 0.917673 -0.111680
C9    C     C_R   0.292504 0.633122 0.963034 -0.181247
C10   C     C_R   0.238601 0.592557 0.051154 0.183383
C11   C     C_R   0.333058 0.535475 0.096233 0.083191
C12   C     C_R   0.917722 0.499658 0.672284 0.881898
C13   C     C_R   0.091579 0.611745 0.095575 -0.083967
C14   C     C_R   0.037354 0.576938 0.184967 -0.170502
C15   C     C_R   0.273366 0.494856 0.184875 -0.211025
C16   C     C_R   0.123678 0.062853 0.504274 0.075282
C17   C     C_R   0.995880 0.129434 0.511295 -0.143305
C18   C     C_R   0.863093 0.065695 0.530969 -0.266881
C19   C     C_R   0.861814 0.936830 0.530870 0.629670
C20   C     C_R   0.994332 0.870876 0.510650 -0.179555
C21   C     C_R   0.122932 0.935743 0.503463 -0.070190
C22   C     C_3   0.265555 0.930335 0.433634 0.482339
C23   C     C_R   0.998723 0.737680 0.501790 0.884082
C24   C     C_3   0.266668 0.070578 0.435104 -0.433444
C25   C     C_R   0.593490 0.588609 0.453620 0.280147
C26   C     C_R   0.552453 0.421393 0.553326 -0.066728
C27   C     C_R   0.403793 0.421415 0.553989 0.432600
C28   C     C_R   0.446178 0.588551 0.453487 0.099785
C29   C     C_3   0.483779 0.612271 0.355114 -0.501146
C30   C     C_3   0.642128 0.612015 0.355342 0.393385
C31   C     C_R   0.082027 0.502307 0.327961 0.812563
C32   C     C_R   0.871658 0.500090 0.771010 -0.254909
C33   C     C_R   0.128702 0.520219 0.230475 -0.046757
C34   C     C_R   0.927312 0.470253 0.913114 0.593262
C35   C     C_R   0.972909 0.479359 0.820108 -0.308284
C36   C     C_R   0.724259 0.517791 0.816544 0.541876
Cu1   Cu    Cu3+1 0.140670 0.499980 0.500000 1.012154
Cu2   Cu    Cu3+1 0.859330 0.500020 0.500000 1.035933
H1    H     H_    0.809585 0.448603 0.089585 0.189959
H2    H     H_    0.019357 0.656702 0.061769 0.150545
H3    H     H_    0.760809 0.115004 0.542542 0.191595
H4    H     H_    0.353319 0.885774 0.457629 0.116407
H5    H     H_    0.353164 0.108490 0.462771 0.189176
H6    H     H_    0.258200 0.114834 0.371661 0.213172
H7    H     H_    0.591279 0.356387 0.595121 0.195224
H8    H     H_    0.456515 0.533180 0.318037 0.157570
H9    H     H_    0.337250 0.443223 0.220314 0.135739
H10   H     H_    0.444147 0.703579 0.338277 0.273494
H11   H     H_    0.706103 0.534902 0.316891 0.063858
H12   H     H_    0.925874 0.598751 0.219069 0.182763
H13   H     H_    0.222555 0.680923 0.928965 0.159350
H14   H     H_    0.086604 0.464310 0.786400 0.245748
H15   H     H_    0.559989 0.469801 0.167907 0.128754
H16   H     H_    0.473483 0.654686 0.851761 0.216288
N1    N     N_R   0.648210 0.500930 0.499430 -0.260262
N2    N     N_R   0.352300 0.500890 0.499430 -0.222695
O1    O     O_R   0.118810 0.319640 0.500000 -0.537076
O2    O     O_R   0.881230 0.319680 0.499990 -0.609712
O3    O     O_R   0.055580 0.499970 0.629840 -0.558360
O4    O     O_R   0.818000 0.500010 0.629830 -0.512150
O5    O     O_R   0.118770 0.680320 0.500010 -0.583317
O6    O     O_R   0.881190 0.680360 0.500000 -0.500758
O7    O     O_R   0.182000 0.499990 0.370170 -0.584623
O8    O     O_R   0.944420 0.500030 0.370160 -0.594050
F1    F     F_    0.732002 0.878249 0.546264 -0.627511
F2    F     F_    0.251598 0.885182 0.353144 -0.644938
Cl1   Cl    Cl    0.289701 0.315929 0.626413 -0.590728
F3    F     F_    0.705718 0.727170 0.335809 -0.614340
F4    F     F_    0.026231 0.439010 0.958034 -0.664694
F5    F     F_    0.623873 0.516895 0.769136 -0.653050

loop_
_geom_bond_atom_site_label_1
_geom_bond_atom_site_label_2
_ccdc_geom_bond_type
C8    C9    A    
Cu1   O5    S    
C31   C33   S    
C16   C21   A    
C5    C11   A    
Cu1   Cu2   S    
C1    O1    A    
C29   C30   S    
C9    C10   A    
C1    C17   S    
C19   C20   A    
C9    H13   S    
C20   C23   S    
C15   H9    S    
C29   H8    S    
C4    C8    A    
C26   N1    A    
Cu1   O3    S    
C14   C33   A    
C17   C18   A    
C28   N2    A    
C16   C24   S    
C14   H12   S    
C21   C22   S    
C12   C32   S    
C25   C28   A    
C12   O3    A    
C34   F4    S    
C26   C27   A    
C22   H4    S    
C1    O2    A    
Cu2   O4    S    
C2    C4    A    
C32   C36   A    
C25   C30   S    
C28   C29   S    
Cu1   O7    S    
C30   H11   S    
C36   F5    S    
C19   F1    S    
C6    C7    A    
C3    C7    A    
Cu1   O1    S    
C5    C6    A    
C24   H6    S    
C22   C24   S    
C27   Cl1   S    
C10   C11   A    
C29   H10   S    
C2    C36   A    
C12   O4    A    
C32   C35   A    
C31   O7    A    
C23   O5    A    
C18   C19   A    
C20   C21   A    
C34   C35   A    
C18   H3    S    
C8    H16   S    
C35   H14   S    
C24   H5    S    
Cu2   O8    S    
C7    H1    S    
C27   N2    A    
C22   F2    S    
C13   H2    S    
C2    C3    A    
C6    H15   S    
C13   C14   A    
Cu2   O6    S    
C3    C34   A    
Cu2   O2    S    
Cu1   N2    S    
C11   C15   A    
C31   O8    A    
C15   C33   A    
C23   O6    A    
C30   F3    S    
Cu2   N1    S    
C25   N1    A    
C16   C17   A    
C4    C5    A    
C26   H7    S    
C10   C13   A    
