data_mof_unit_44974.cif
_audit_creation_date              2012-12-10T18:25:10-0500
_audit_creation_method            fapswitch 2.2
_symmetry_space_group_name_H-M    P1
_symmetry_Int_Tables_number       1
_space_group_crystal_system       triclinic
_cell_length_a                    19.33454
_cell_length_b                    15.849205
_cell_length_c                    14.597761
_cell_angle_alpha                 89.747045
_cell_angle_beta                  89.621872
_cell_angle_gamma                 89.894839
_cell_volume                      4473.14706544

loop_
_atom_site_label
_atom_site_type_symbol
_atom_type_description
_atom_site_fract_x
_atom_site_fract_y
_atom_site_fract_z
_atom_type_partial_charge
C1    C     C_R   0.500001 0.339439 0.500190 0.804335
C2    C     C_R   0.500073 0.660571 0.499810 0.800142
C3    C     C_3   0.557720 0.972148 0.457924 -0.202399
C4    C     C_3   0.441564 0.027935 0.542004 -0.200161
C5    C     C_3   0.501547 0.028549 0.414300 0.149353
C6    C     C_3   0.497746 0.971531 0.585634 0.149084
C7    C     C_1   0.499872 0.249898 0.500742 -0.184940
C8    C     C_1   0.499879 0.750133 0.499249 -0.184221
C9    C     C_3   0.555817 0.027582 0.545417 -0.203199
C10   C     C_3   0.443465 0.972478 0.454499 -0.201015
C11   C     C_3   0.499666 0.082876 0.500819 0.134547
C12   C     C_3   0.499628 0.917182 0.499122 0.134344
C13   C     C_1   0.499757 0.174423 0.501094 -0.086478
C14   C     C_1   0.499723 0.825619 0.498877 -0.086336
C15   C     C_3   0.461526 0.565439 0.970294 0.350384
C16   C     C_3   0.538269 0.435056 0.029115 0.358256
C17   C     C_3   0.435181 0.492023 0.031214 0.368381
C18   C     C_3   0.564744 0.508535 0.968336 0.362051
C19   C     C_3   0.527373 0.574027 0.029702 -0.123867
C20   C     C_3   0.472612 0.426671 0.969842 -0.112208
C21   C     C_3   0.500682 0.499986 0.091822 -0.191440
C22   C     C_3   0.499182 0.500417 0.907979 -0.188006
C23   C     C_R   0.367080 0.500105 0.500386 0.852296
C24   C     C_R   0.632992 0.499225 0.499706 0.861901
C25   C     C_1   0.500306 0.499775 0.194223 0.258690
C26   C     C_1   0.499621 0.500380 0.805716 0.262365
C27   C     C_R   0.254882 0.460823 0.574373 0.367465
C28   C     C_R   0.744959 0.462273 0.422761 0.362584
C29   C     C_R   0.182080 0.463030 0.577654 -0.057227
C30   C     C_R   0.817753 0.465878 0.417923 -0.050412
C31   C     C_R   0.145725 0.499231 0.503489 -0.185736
C32   C     C_R   0.854744 0.497500 0.493827 -0.189353
C33   C     C_R   0.181348 0.536487 0.429433 0.358391
C34   C     C_R   0.819138 0.527996 0.571337 0.330574
C35   C     C_R   0.253843 0.540893 0.430268 0.300641
C36   C     C_R   0.746757 0.530554 0.572562 0.281501
C37   C     C_R   0.290881 0.501031 0.501702 -0.338532
C38   C     C_R   0.709288 0.497014 0.498681 -0.333563
C39   C     C_R   0.930612 0.498008 0.494772 0.482691
C40   C     C_R   0.070110 0.498461 0.501590 0.512701
Cu1   Cu    Cu3+1 0.500010 0.500000 0.590220 0.994083
Cu2   Cu    Cu3+1 0.499990 0.500000 0.409780 0.994564
H1    H     H_    0.604908 0.948098 0.422970 0.130345
H2    H     H_    0.394396 0.052079 0.576944 0.128168
H3    H     H_    0.397870 0.948622 0.416792 0.127387
H4    H     H_    0.601436 0.051366 0.583114 0.129459
N1    N     N_R   0.034055 0.571242 0.512013 -0.262480
N2    N     N_R   0.966750 0.425118 0.485291 -0.273811
N3    N     N_R   0.965334 0.570987 0.509025 -0.209830
N4    N     N_R   0.035471 0.425371 0.488130 -0.244976
N5    N     N_1   0.499980 0.500000 0.274190 -0.158827
N6    N     N_1   0.500020 0.500000 0.725810 -0.159308
O1    O     O_R   0.500010 0.379080 0.576170 -0.584317
O2    O     O_R   0.499990 0.620920 0.423830 -0.584016
O3    O     O_R   0.500000 0.379080 0.423800 -0.576905
O4    O     O_R   0.500000 0.620920 0.576200 -0.575592
O5    O     O_R   0.400150 0.499990 0.576210 -0.537236
O6    O     O_R   0.599850 0.500010 0.423790 -0.539463
O7    O     O_R   0.400140 0.499990 0.423840 -0.536210
O8    O     O_R   0.599860 0.500010 0.576160 -0.537436
O9    O     O_3   0.291004 0.422972 0.645239 -0.557147
C41   C     C_3   0.307160 0.339062 0.620357 0.091838
H5    H     H_    0.339684 0.337058 0.557165 0.129103
H6    H     H_    0.259272 0.301742 0.608765 0.122794
C42   C     C_3   0.347579 0.297539 0.697492 -0.786684
H7    H     H_    0.315762 0.296172 0.761111 0.232322
H8    H     H_    0.361404 0.231858 0.678361 0.193001
H9    H     H_    0.395832 0.333357 0.710460 0.261228
O10   O     O_3   0.708373 0.428574 0.350449 -0.557362
C43   C     C_3   0.693694 0.343122 0.370486 0.054019
H10   H     H_    0.662870 0.336620 0.434874 0.127692
H11   H     H_    0.742347 0.305870 0.377097 0.124897
C44   C     C_3   0.651673 0.306289 0.292730 -0.713538
H12   H     H_    0.681816 0.310533 0.228002 0.247277
H13   H     H_    0.639637 0.239068 0.307379 0.176391
H14   H     H_    0.602492 0.341809 0.284771 0.278677
C45   C     C_3   0.440521 0.345525 0.932652 -0.378902
C46   C     C_3   0.420663 0.283817 0.009740 -0.293932
C47   C     C_3   0.388943 0.203595 0.970946 -0.902296
H15   H     H_    0.341471 0.218941 0.931735 0.256695
H16   H     H_    0.426595 0.171249 0.925183 0.257848
H17   H     H_    0.374908 0.160093 0.027892 0.245838
H18   H     H_    0.466659 0.266381 0.050706 0.237862
H19   H     H_    0.382929 0.313715 0.057076 0.256331
H20   H     H_    0.393837 0.362109 0.892594 0.202096
H21   H     H_    0.477761 0.315284 0.884750 0.178939
C48   C     C_3   0.558703 0.655420 0.067312 -0.384765
C49   C     C_3   0.581527 0.715778 0.990160 -0.308492
C50   C     C_3   0.606120 0.799674 0.028863 -0.895038
H22   H     H_    0.563431 0.831153 0.066940 0.255085
H23   H     H_    0.650475 0.789386 0.075608 0.258511
H24   H     H_    0.623009 0.841686 0.971939 0.243737
H25   H     H_    0.624192 0.687342 0.949569 0.236015
H26   H     H_    0.538370 0.728080 0.942195 0.241761
H27   H     H_    0.520020 0.686450 0.112520 0.184079
H28   H     H_    0.603627 0.639150 0.110945 0.188215
C51   C     C_3   0.144040 0.427316 0.660745 -0.340321
C52   C     C_3   0.121678 0.497933 0.725993 -0.329444
C53   C     C_3   0.086578 0.462007 0.811556 -0.879160
H29   H     H_    0.039950 0.425390 0.792466 0.258844
H30   H     H_    0.122789 0.420196 0.849329 0.255811
H31   H     H_    0.070624 0.514375 0.857386 0.246727
H32   H     H_    0.167775 0.534782 0.747015 0.232931
H33   H     H_    0.085094 0.541333 0.691052 0.228037
H34   H     H_    0.098457 0.390100 0.639215 0.196619
H35   H     H_    0.177107 0.382333 0.699171 0.223552
C54   C     C_3   0.854622 0.440088 0.329837 -0.337734
C55   C     C_3   0.878901 0.517949 0.275819 -0.330886
C56   C     C_3   0.917644 0.492843 0.188689 -0.851365
H36   H     H_    0.964304 0.455167 0.206021 0.270033
H37   H     H_    0.883594 0.455282 0.143466 0.247267
H38   H     H_    0.934264 0.550473 0.151092 0.242491
H39   H     H_    0.833302 0.556998 0.256869 0.224811
H40   H     H_    0.913641 0.557031 0.318361 0.223186
H41   H     H_    0.898776 0.397722 0.344906 0.206847
H42   H     H_    0.820266 0.402803 0.284875 0.222753
O11   O     O_3   0.145194 0.558239 0.351051 -0.543918
C57   C     C_3   0.134322 0.646349 0.347303 0.106400
H43   H     H_    0.177250 0.676364 0.308402 0.168643
H44   H     H_    0.129920 0.676106 0.416309 0.118472
C58   C     C_3   0.067765 0.664148 0.295604 -0.780778
H45   H     H_    0.023154 0.635726 0.332497 0.259211
H46   H     H_    0.059456 0.733316 0.290016 0.192631
H47   H     H_    0.070913 0.637066 0.225641 0.249292
O12   O     O_3   0.855273 0.561377 0.644143 -0.554066
C59   C     C_3   0.865537 0.497355 0.710152 0.105366
H48   H     H_    0.896343 0.444258 0.681014 0.132020
H49   H     H_    0.815223 0.472795 0.736532 0.168655
C60   C     C_3   0.905307 0.533894 0.790185 -0.801466
H50   H     H_    0.875651 0.586668 0.821318 0.249916
H51   H     H_    0.913836 0.484345 0.842955 0.197913
H52   H     H_    0.956134 0.558050 0.765983 0.262033
O13   O     O_3   0.287856 0.578241 0.356802 -0.524274
C61   C     C_3   0.311503 0.659129 0.382808 0.104300
H53   H     H_    0.350089 0.655307 0.438710 0.127464
H54   H     H_    0.268135 0.699872 0.406699 0.086299
C62   C     C_3   0.346102 0.701364 0.300724 -0.767176
H55   H     H_    0.308493 0.708506 0.244016 0.231258
H56   H     H_    0.365321 0.764719 0.320354 0.184505
H57   H     H_    0.390519 0.662584 0.276668 0.258029
O14   O     O_3   0.712952 0.560705 0.649636 -0.538160
C63   C     C_3   0.702359 0.648358 0.639445 0.128420
H58   H     H_    0.672692 0.662941 0.576067 0.107014
H59   H     H_    0.752685 0.682397 0.637167 0.160943
C64   C     C_3   0.660857 0.680408 0.721169 -0.739478
H60   H     H_    0.689517 0.668023 0.785567 0.248327
H61   H     H_    0.651948 0.749369 0.714158 0.176121
H62   H     H_    0.610028 0.647954 0.724768 0.267636
C65   C     C_3   0.503780 0.064635 0.317029 -0.406297
C66   C     C_3   0.504784 0.994522 0.245099 -0.350188
C67   C     C_3   0.506827 0.031314 0.148277 -0.848231
H63   H     H_    0.460598 0.071436 0.136090 0.255781
H64   H     H_    0.554244 0.069818 0.138106 0.255879
H65   H     H_    0.507132 0.979338 0.097523 0.239255
H66   H     H_    0.551018 0.953788 0.255056 0.218390
H67   H     H_    0.457762 0.954781 0.252731 0.215782
H68   H     H_    0.457579 0.105367 0.306936 0.202284
H69   H     H_    0.550851 0.104267 0.309457 0.196397
C68   C     C_3   0.495618 0.935722 0.683031 -0.405768
C69   C     C_3   0.493987 0.006114 0.754648 -0.350660
C70   C     C_3   0.492086 0.969745 0.851655 -0.849587
H70   H     H_    0.444986 0.930689 0.861905 0.256328
H71   H     H_    0.538633 0.930269 0.864178 0.255303
H72   H     H_    0.491236 0.021972 0.902116 0.240210
H73   H     H_    0.540719 0.046340 0.746933 0.216653
H74   H     H_    0.447472 0.046314 0.744396 0.217204
H75   H     H_    0.448805 0.895645 0.690636 0.201830
H76   H     H_    0.542087 0.895493 0.693414 0.197831
O15   O     O_3   0.368710 0.480650 0.070363 -0.578136
C71   C     C_3   0.316371 0.492221 0.004133 0.119609
H77   H     H_    0.334439 0.485246 0.931904 0.152678
H78   H     H_    0.294115 0.556204 0.012054 0.167991
C72   C     C_3   0.258223 0.429401 0.021125 -0.808011
H79   H     H_    0.240290 0.432990 0.093451 0.275375
H80   H     H_    0.214098 0.444291 0.975487 0.202851
H81   H     H_    0.276064 0.364343 0.006232 0.237283
O16   O     O_3   0.630629 0.516228 0.926552 -0.579922
C73   C     C_3   0.683420 0.518878 0.992951 0.074663
H82   H     H_    0.673684 0.476651 0.052619 0.184040
H83   H     H_    0.689892 0.584102 0.018357 0.147028
C74   C     C_3   0.751313 0.492412 0.948406 -0.813091
H84   H     H_    0.763506 0.535339 0.890236 0.265135
H85   H     H_    0.793757 0.495587 0.999160 0.200581
H86   H     H_    0.747422 0.426823 0.922542 0.245957
O17   O     O_3   0.420881 0.630361 0.931102 -0.581744
C75   C     C_3   0.395035 0.685235 0.999322 0.053967
H87   H     H_    0.434662 0.732329 0.017854 0.159484
H88   H     H_    0.378236 0.651506 0.062689 0.156807
C76   C     C_3   0.333711 0.734025 0.961181 -0.812086
H89   H     H_    0.292685 0.690028 0.938629 0.241187
H90   H     H_    0.312129 0.776261 0.014765 0.200464
H91   H     H_    0.350557 0.772966 0.901661 0.251925
O18   O     O_3   0.578541 0.368706 0.066149 -0.588915
C77   C     C_3   0.607617 0.318921 0.995427 0.072499
H92   H     H_    0.624080 0.356396 0.934543 0.177567
H93   H     H_    0.570082 0.270685 0.972954 0.151176
C78   C     C_3   0.670732 0.272573 0.031685 -0.839993
H94   H     H_    0.655321 0.229656 0.088565 0.248758
H95   H     H_    0.694532 0.234455 0.976116 0.204604
H96   H     H_    0.709511 0.318461 0.056745 0.248044

loop_
_geom_bond_atom_site_label_1
_geom_bond_atom_site_label_2
_ccdc_geom_bond_type
C40   N1    A    
C77   H93   S    
C48   C49   S    
C33   O11   S    
C16   C21   S    
C30   C54   S    
C27   C29   A    
O15   C71   S    
C28   O10   S    
C35   O13   S    
C61   C62   S    
C7    C13   T    
C6    C68   S    
C65   C66   S    
N1    N3    A    
C45   C46   S    
C68   H76   S    
C23   O7    A    
C15   O17   S    
C3    H1    S    
C59   H48   S    
C20   C45   S    
C35   C37   A    
C5    C11   S    
C19   C48   S    
C56   H37   S    
C6    C12   S    
C17   O15   S    
C67   H65   S    
C77   C78   S    
C71   H77   S    
C52   H32   S    
C51   C52   S    
C17   C20   S    
C5    C65   S    
C31   C40   S    
C23   O5    A    
C18   C19   S    
Cu1   Cu2   S    
C32   C39   S    
C55   H40   S    
C78   H95   S    
C1    O1    A    
C57   H43   S    
C58   H47   S    
C41   H6    S    
C3    C12   S    
C27   O9    S    
C70   H71   S    
C46   H18   S    
C15   C22   S    
C68   C69   S    
C18   O16   S    
C42   H8    S    
C48   H27   S    
C24   C38   S    
C54   C55   S    
C31   C33   A    
C43   H10   S    
C16   O18   S    
C69   H74   S    
C50   H23   S    
C65   H69   S    
Cu1   N6    S    
C24   O8    A    
Cu2   N5    S    
C60   H52   S    
C51   H34   S    
N2    N4    A    
C77   H92   S    
C67   H63   S    
C45   H20   S    
C9    H4    S    
C72   H79   S    
C67   H64   S    
C44   H13   S    
C63   C64   S    
Cu2   O6    S    
O10   C43   S    
C6    C9    S    
C8    C14   T    
C64   H61   S    
C64   H60   S    
C72   H80   S    
C44   H12   S    
C62   H57   S    
C49   H26   S    
C76   H91   S    
C73   H82   S    
C4    C6    S    
C2    O2    A    
C74   H85   S    
C47   H16   S    
C46   C47   S    
C61   H54   S    
C4    H2    S    
C59   C60   S    
C74   H84   S    
C2    O4    A    
C17   C21   S    
C50   H24   S    
C57   C58   S    
C32   C34   A    
C55   H39   S    
C78   H96   S    
C15   C19   S    
C36   O14   S    
C25   N5    T    
Cu1   O4    S    
C41   H5    S    
C3    C9    S    
C26   N6    T    
Cu2   O3    S    
C62   H56   S    
C78   H94   S    
C28   C38   A    
C16   C20   S    
C42   H9    S    
Cu1   O1    S    
C48   H28   S    
C43   C44   S    
C53   H30   S    
C69   H73   S    
C4    C11   S    
C9    C11   S    
C54   H41   S    
C58   H45   S    
C10   C12   S    
O16   C73   S    
C51   H35   S    
C16   C18   S    
C39   N3    A    
C12   C14   S    
C45   H21   S    
C52   C53   S    
C66   H66   S    
O12   C59   S    
C44   H14   S    
C63   H59   S    
C56   H38   S    
C75   H87   S    
C4    C10   S    
C70   H72   S    
C64   H62   S    
C60   H50   S    
C72   H81   S    
C76   H89   S    
C15   C17   S    
C21   C25   S    
C49   H25   S    
C59   H49   S    
C74   H86   S    
C41   C42   S    
C19   C21   S    
C18   C22   S    
C2    C8    S    
Cu1   O8    S    
C20   C22   S    
C3    C5    S    
Cu2   O7    S    
C47   H17   S    
C73   H83   S    
C61   H53   S    
C66   H67   S    
C62   H55   S    
C66   C67   S    
C53   H29   S    
C29   C51   S    
C69   C70   S    
C75   C76   S    
C28   C30   A    
C1    O3    A    
Cu1   O5    S    
C5    C10   S    
C29   C31   A    
C70   H70   S    
O14   C63   S    
Cu2   O2    S    
C30   C32   A    
C11   C13   S    
O17   C75   S    
O13   C61   S    
C71   H78   S    
C27   C37   A    
C34   O12   S    
C40   N4    A    
C36   C38   A    
C33   C35   A    
C23   C37   S    
C68   H75   S    
C34   C36   A    
C42   H7    S    
O9    C41   S    
C75   H88   S    
C57   H44   S    
C54   H42   S    
C58   H46   S    
C73   C74   S    
C47   H15   S    
C46   H19   S    
C55   C56   S    
C53   H31   S    
C49   C50   S    
C24   O6    A    
O18   C77   S    
C22   C26   S    
C10   H3    S    
C56   H36   S    
C63   H58   S    
C1    C7    S    
C43   H11   S    
C76   H90   S    
C50   H22   S    
O11   C57   S    
C65   H68   S    
C52   H33   S    
C39   N2    A    
C60   H51   S    
C71   C72   S    
