data_mof_unit_13830.cif
_audit_creation_date              2012-12-10T18:36:10-0500
_audit_creation_method            fapswitch 2.2
_symmetry_space_group_name_H-M    P1
_symmetry_Int_Tables_number       1
_space_group_crystal_system       triclinic
_cell_length_a                    14.955551
_cell_length_b                    15.487589
_cell_length_c                    19.153672
_cell_angle_alpha                 89.324663
_cell_angle_beta                  104.400568
_cell_angle_gamma                 82.603285
_cell_volume                      4256.89485953

loop_
_atom_site_label
_atom_site_type_symbol
_atom_type_description
_atom_site_fract_x
_atom_site_fract_y
_atom_site_fract_z
_atom_type_partial_charge
C1    C     C_R   0.441838 0.662175 0.488177 0.868211
C2    C     C_R   0.524990 0.188964 0.486820 -0.263830
C3    C     C_R   0.442130 0.899515 0.449468 0.092045
C4    C     C_R   0.547202 0.104218 0.467126 0.092092
C5    C     C_R   0.346093 0.931610 0.437237 0.179450
C6    C     C_R   0.641451 0.073748 0.469709 0.177886
C7    C     C_R   0.507739 0.957542 0.448755 0.068306
C8    C     C_R   0.478544 0.047771 0.449412 0.070072
C9    C     C_R   0.381914 0.078422 0.433070 -0.230836
C10   C     C_R   0.601661 0.928637 0.448945 -0.230662
C11   C     C_R   0.316649 0.020778 0.425708 -0.238434
C12   C     C_R   0.557994 0.337852 0.508472 0.870556
C13   C     C_R   0.666987 0.986552 0.457762 -0.239676
C14   C     C_R   0.837585 0.647352 0.597168 -0.331531
C15   C     C_R   0.158064 0.363066 0.391946 -0.333350
C16   C     C_R   0.499824 0.502366 0.634158 0.868977
C17   C     C_R   0.499748 0.498955 0.365621 0.867525
C18   C     C_R   0.750838 0.619659 0.583982 0.021508
C19   C     C_R   0.247412 0.385321 0.411127 0.019749
C20   C     C_R   0.794579 0.510058 0.509241 -0.054739
C21   C     C_R   0.204719 0.489940 0.490101 -0.055236
C22   C     C_R   0.883902 0.536077 0.518708 -0.009458
C23   C     C_R   0.406676 0.754443 0.471530 -0.057636
C24   C     C_R   0.111158 0.473230 0.470867 -0.009583
C25   C     C_R   0.905762 0.606356 0.564651 0.124205
C26   C     C_R   0.088232 0.406229 0.421750 0.127143
C27   C     C_R   0.951257 0.494175 0.484660 0.038625
C28   C     C_R   0.041409 0.519680 0.500044 0.037093
C29   C     C_R   0.059143 0.592283 0.542694 -0.244759
C30   C     C_R   0.930226 0.428736 0.434687 -0.246783
C31   C     C_R   0.994062 0.635079 0.576393 0.103442
C32   C     C_R   0.996770 0.383876 0.403326 0.101120
C33   C     C_R   0.409830 0.537190 0.724199 -0.218184
C34   C     C_R   0.591161 0.246289 0.501202 -0.058587
C35   C     C_R   0.585068 0.491914 0.270551 -0.221850
C36   C     C_R   0.404199 0.549353 0.795110 0.124119
C37   C     C_R   0.587599 0.495462 0.198233 0.123220
C38   C     C_R   0.487420 0.536632 0.850737 0.063508
C39   C     C_R   0.501838 0.506298 0.144651 0.069136
C40   C     C_R   0.573920 0.517354 0.834433 -0.189297
C41   C     C_R   0.417362 0.508392 0.164406 -0.193761
C42   C     C_R   0.578425 0.506385 0.763637 -0.203118
C43   C     C_R   0.416384 0.503970 0.236462 -0.201708
C44   C     C_R   0.496285 0.514116 0.708589 -0.058101
C45   C     C_R   0.281175 0.874205 0.438745 -0.204408
C46   C     C_R   0.500048 0.497588 0.289750 -0.056168
C47   C     C_R   0.496880 0.516333 0.068059 0.268340
C48   C     C_R   0.486386 0.534465 0.926212 0.265705
C49   C     C_3   0.017462 0.711159 0.625035 -0.419405
C50   C     C_3   0.116738 0.735133 0.637214 -0.366883
C51   C     C_3   0.133214 0.806491 0.691392 -0.882718
C52   C     C_3   0.972090 0.311286 0.351084 -0.424071
C53   C     C_3   0.871953 0.288779 0.336503 -0.361436
C54   C     C_3   0.858478 0.213015 0.286390 -0.880026
C55   C     C_3   0.309808 0.580111 0.808550 -0.443270
C56   C     C_R   0.708864 0.130828 0.485360 -0.205575
C57   C     C_3   0.246693 0.508244 0.795083 -0.319476
C58   C     C_3   0.152371 0.538997 0.809914 -0.871602
C59   C     C_3   0.682267 0.485398 0.181258 -0.435530
C60   C     C_3   0.702055 0.398541 0.146574 -0.327535
C61   C     C_3   0.797646 0.388867 0.130409 -0.880623
C62   C     C_R   0.311345 0.785752 0.455657 -0.200082
C63   C     C_R   0.683531 0.217310 0.500122 -0.202038
C64   C     C_R   0.470769 0.811201 0.468003 -0.262556
H1    H     H_    0.346557 0.547457 0.680915 0.142929
H2    H     H_    0.860849 0.413206 0.417765 0.129154
H3    H     H_    0.637955 0.507533 0.876934 0.151507
H4    H     H_    0.351509 0.515926 0.123855 0.153003
H5    H     H_    0.645767 0.489816 0.752146 0.158235
H6    H     H_    0.350127 0.507984 0.250420 0.160859
H7    H     H_    0.243288 0.046357 0.414281 0.142875
H8    H     H_    0.738369 0.962316 0.458000 0.145341
H9    H     H_    0.455938 0.211074 0.492603 0.161564
H10   H     H_    0.543842 0.786017 0.482916 0.161189
H11   H     H_    0.735610 0.261304 0.510060 0.152163
H12   H     H_    0.649925 0.484190 0.312244 0.144253
H13   H     H_    0.260533 0.742325 0.457224 0.153441
H14   H     H_    0.207497 0.898018 0.428408 0.134152
H15   H     H_    0.780833 0.108634 0.486046 0.135309
H16   H     H_    0.354951 0.146859 0.424324 0.144460
H17   H     H_    0.625919 0.861799 0.440580 0.150958
H18   H     H_    0.082911 0.866151 0.671665 0.264245
H19   H     H_    0.125439 0.783828 0.744549 0.260132
H20   H     H_    0.205002 0.822821 0.698523 0.252200
H21   H     H_    0.168572 0.676945 0.658524 0.219930
H22   H     H_    0.127595 0.759077 0.585384 0.222405
H23   H     H_    0.230452 0.535090 0.529949 0.118778
H24   H     H_    0.967566 0.769957 0.601573 0.200503
H25   H     H_    0.007085 0.694460 0.678812 0.200967
H26   H     H_    0.873353 0.229304 0.234168 0.267077
H27   H     H_    0.905454 0.153429 0.311749 0.259013
H28   H     H_    0.785292 0.199443 0.275794 0.251169
H29   H     H_    0.856777 0.269659 0.388072 0.222462
H30   H     H_    0.821600 0.346205 0.310623 0.223048
H31   H     H_    0.984608 0.330169 0.298487 0.199047
H32   H     H_    0.020047 0.250883 0.373325 0.203475
H33   H     H_    0.161438 0.555680 0.867278 0.264549
H34   H     H_    0.771707 0.456577 0.477554 0.119452
H35   H     H_    0.116985 0.597107 0.774617 0.261507
H36   H     H_    0.107686 0.486270 0.798702 0.251216
H37   H     H_    0.235056 0.489155 0.738091 0.217652
H38   H     H_    0.280578 0.449910 0.830773 0.239883
H39   H     H_    0.316333 0.602642 0.864155 0.215556
H40   H     H_    0.276656 0.637850 0.772031 0.200520
H41   H     H_    0.800484 0.441513 0.091442 0.267766
H42   H     H_    0.853107 0.391884 0.180767 0.262232
H43   H     H_    0.810755 0.325009 0.106445 0.248130
H44   H     H_    0.699785 0.343758 0.183842 0.226315
H45   H     H_    0.300806 0.352937 0.387705 0.131885
H46   H     H_    0.648646 0.394063 0.095348 0.233533
H47   H     H_    0.687885 0.541196 0.146602 0.224219
H48   H     H_    0.738358 0.487310 0.231567 0.191719
H49   H     H_    0.697784 0.652250 0.607632 0.135835
H50   H     H_    0.849281 0.701422 0.631908 0.141638
H51   H     H_    0.145081 0.312613 0.353659 0.139219
H52   H     H_    0.123013 0.618615 0.548135 0.130437
N1    N     N_R   0.546397 0.576255 0.974547 -0.176627
N2    N     N_R   0.436240 0.475228 0.019532 -0.182259
N3    N     N_R   0.550812 0.567961 0.044398 -0.179283
N4    N     N_R   0.431488 0.483746 0.949663 -0.175607
N5    N     N_R   0.731690 0.552730 0.540620 -0.100866
N6    N     N_R   0.268310 0.447270 0.459380 -0.098907
O1    O     O_R   0.383120 0.605620 0.479520 -0.620006
O2    O     O_R   0.616880 0.394380 0.520480 -0.619923
O3    O     O_R   0.531890 0.639510 0.505590 -0.622443
O4    O     O_R   0.468110 0.360490 0.494410 -0.620338
O5    O     O_R   0.425590 0.483060 0.588820 -0.618631
O6    O     O_R   0.574410 0.516940 0.411180 -0.619868
O7    O     O_R   0.574360 0.516950 0.614890 -0.616907
O8    O     O_R   0.425640 0.483050 0.385110 -0.620335
Zn1   Zn    Zn3+2 0.400660 0.477370 0.482600 0.937795
Zn2   Zn    Zn3+2 0.599340 0.522630 0.517400 0.937586

loop_
_geom_bond_atom_site_label_1
_geom_bond_atom_site_label_2
_ccdc_geom_bond_type
C25   C31   A    
C7    C10   A    
C38   C40   A    
C21   H23   S    
C19   N6    A    
C26   C32   A    
C14   C18   A    
C62   H13   S    
C4    C8    A    
C33   H1    S    
C7    C8    A    
C39   C41   A    
C3    C64   A    
C15   C19   A    
C57   H38   S    
C56   H15   S    
C28   C29   A    
C35   C37   A    
C1    O3    A    
C54   H26   S    
C3    C7    A    
N1    N3    A    
C11   H7    S    
C12   O4    A    
C55   H39   S    
C45   C62   A    
C33   C36   A    
O2    Zn2   S    
C52   H31   S    
C21   N6    A    
C32   C52   S    
C50   H21   S    
C23   C62   A    
C8    C9    A    
C22   C25   A    
C59   H47   S    
C45   H14   S    
C61   H41   S    
C16   C44   S    
C38   C48   S    
C60   H44   S    
O7    Zn2   S    
C2    C34   A    
C40   C42   A    
C17   O8    A    
C59   C60   S    
C27   C30   A    
C41   C43   A    
C49   H24   S    
C58   H33   S    
C42   C44   A    
C31   C49   S    
O6    Zn2   S    
C18   H49   S    
C43   C46   A    
C50   C51   S    
C41   H4    S    
N2    N4    A    
C47   N2    A    
C35   H12   S    
C53   H29   S    
C24   C28   A    
C58   H36   S    
C17   C46   S    
C4    C6    A    
C49   H25   S    
C15   C26   A    
C53   C54   S    
C5    C45   A    
C55   H40   S    
C40   H3    S    
C42   H5    S    
C60   C61   S    
C9    H16   S    
C2    C4    A    
C1    O1    A    
C54   H28   S    
C16   O7    A    
C12   O2    A    
C59   H48   S    
C56   C63   A    
C30   H2    S    
C61   H42   S    
C9    C11   A    
C51   H18   S    
C20   N5    A    
C37   C59   S    
C2    H9    S    
C23   C64   A    
C29   H52   S    
C20   C22   A    
C1    C23   S    
C43   H6    S    
C22   C27   A    
C55   C57   S    
C15   H51   S    
N5    Zn2   S    
C12   C34   S    
C51   H19   S    
N6    Zn1   S    
C52   C53   S    
C48   N4    A    
C39   C47   S    
O1    Zn1   S    
C53   H30   S    
C33   C44   A    
C58   H35   S    
C24   C26   A    
C6    C56   A    
C3    C5    A    
C10   C13   A    
C17   O6    A    
C5    C11   A    
C48   N1    A    
C13   H8    S    
C57   H37   S    
C10   H17   S    
C36   C38   A    
O8    Zn1   S    
C54   H27   S    
C37   C39   A    
C36   C55   S    
C14   H50   S    
C6    C13   A    
C30   C32   A    
O3    Zn2   S    
C57   C58   S    
C19   H45   S    
C63   H11   S    
O4    Zn1   S    
C47   N3    A    
C34   C63   A    
C52   H32   S    
C14   C25   A    
C61   H43   S    
C16   O5    A    
O5    Zn1   S    
C60   H46   S    
C50   H22   S    
C18   N5    A    
C20   H34   S    
C29   C31   A    
C49   C50   S    
C21   C24   A    
C27   C28   A    
C64   H10   S    
C35   C46   A    
C51   H20   S    
