data_mof_unit_23803.cif
_audit_creation_date              2012-12-10T17:06:39-0500
_audit_creation_method            fapswitch 2.2
_symmetry_space_group_name_H-M    P1
_symmetry_Int_Tables_number       1
_space_group_crystal_system       triclinic
_cell_length_a                    15.847106
_cell_length_b                    10.951303
_cell_length_c                    9.797865
_cell_angle_alpha                 108.226843
_cell_angle_beta                  98.163218
_cell_angle_gamma                 92.418146
_cell_volume                      1591.90768788

loop_
_atom_site_label
_atom_site_type_symbol
_atom_type_description
_atom_site_fract_x
_atom_site_fract_y
_atom_site_fract_z
_atom_type_partial_charge
C1    C     C_R   0.491515 0.256109 0.445124 0.938787
C2    C     C_R   0.508623 0.745707 0.554013 0.891000
C3    C     C_2   0.541886 0.057406 0.462757 0.354671
C4    C     C_2   0.520655 0.920796 0.447082 0.393570
C5    C     C_2   0.519056 0.492419 0.076704 0.409751
C6    C     C_2   0.503547 0.471289 0.914882 0.386884
C7    C     C_R   0.340023 0.498763 0.500667 0.802227
C8    C     C_R   0.659821 0.498817 0.499088 0.834447
C9    C     C_3   0.976113 0.426013 0.585356 -0.472770
C10   C     C_3   0.025338 0.574653 0.426928 -0.408593
C11   C     C_3   0.016846 0.378666 0.445695 0.401267
C12   C     C_3   0.984126 0.622547 0.566128 0.398220
C13   C     C_1   0.250511 0.496643 0.502080 -0.150925
C14   C     C_1   0.749181 0.497678 0.498561 -0.195235
C15   C     C_3   0.042940 0.545965 0.640708 0.450187
C16   C     C_3   0.958659 0.454918 0.370340 0.397023
C17   C     C_3   0.083514 0.496824 0.502778 -0.035344
C18   C     C_3   0.917061 0.503466 0.508193 -0.098194
C19   C     C_1   0.175002 0.495483 0.502361 0.081966
C20   C     C_1   0.824921 0.499106 0.501925 -0.008455
C21   C     C_2   0.477466 0.121734 0.427156 -0.395434
C22   C     C_2   0.522383 0.882976 0.567386 -0.518870
Cu1   Cu    Cu3+1 0.514700 0.521810 0.644910 0.983572
Cu2   Cu    Cu3+1 0.485300 0.478190 0.355090 0.994392
H1    H     H_    0.955213 0.366578 0.649893 0.162272
H2    H     H_    0.046168 0.635041 0.363356 0.166711
H3    H     H_    0.573266 0.635437 0.933950 0.193021
H4    H     H_    0.407924 0.394452 0.072579 0.185681
N1    N     N_2   0.463210 0.445420 0.137360 -0.327221
N2    N     N_2   0.536790 0.554580 0.862640 -0.321465
O1    O     O_R   0.507840 0.332340 0.577400 -0.540074
O2    O     O_R   0.492160 0.667660 0.422600 -0.484851
O3    O     O_R   0.483020 0.295500 0.332650 -0.586916
O4    O     O_R   0.516980 0.704500 0.667350 -0.592373
O5    O     O_R   0.391490 0.518400 0.622350 -0.526321
O6    O     O_R   0.608510 0.481600 0.377650 -0.535015
O7    O     O_R   0.366660 0.481570 0.377600 -0.598207
O8    O     O_R   0.633340 0.518430 0.622400 -0.590479
O9    O     O_3   0.039757 0.253318 0.378968 -0.578812
C23   C     C_3   0.969683 0.162090 0.358672 0.093380
H5    H     H_    0.910016 0.188143 0.303547 0.175245
H6    H     H_    0.958910 0.153807 0.465316 0.147399
C24   C     C_3   0.989239 0.030783 0.263486 -0.790864
H7    H     H_    0.047683 0.000333 0.316212 0.257968
H8    H     H_    0.934703 0.957921 0.247566 0.200086
H9    H     H_    0.999560 0.035737 0.155477 0.244320
O10   O     O_3   0.978705 0.755962 0.633286 -0.560106
C25   C     C_3   0.896014 0.780630 0.664867 0.074218
H10   H     H_    0.874014 0.719638 0.727352 0.126831
H11   H     H_    0.850320 0.764435 0.562261 0.151866
C26   C     C_3   0.897685 0.920903 0.758409 -0.810393
H12   H     H_    0.920681 0.985252 0.700821 0.255236
H13   H     H_    0.832312 0.942836 0.781084 0.193286
H14   H     H_    0.941273 0.939105 0.863428 0.248036
O11   O     O_3   0.908357 0.404905 0.230707 -0.583754
C27   C     C_3   0.961534 0.384470 0.123383 0.079511
H15   H     H_    0.013138 0.322654 0.141556 0.183901
H16   H     H_    0.990580 0.478198 0.122138 0.140305
C28   C     C_3   0.907887 0.316419 0.974871 -0.839016
H17   H     H_    0.856932 0.377036 0.951287 0.244407
H18   H     H_    0.949106 0.298880 0.889226 0.203534
H19   H     H_    0.877836 0.222244 0.972860 0.256252
O12   O     O_3   0.094812 0.594800 0.779173 -0.551927
C29   C     C_3   0.043159 0.620362 0.888986 0.097383
H20   H     H_    0.005578 0.530856 0.884945 0.130577
H21   H     H_    0.999038 0.694300 0.878910 0.163875
C30   C     C_3   0.100177 0.672881 0.037083 -0.805875
H22   H     H_    0.139267 0.761963 0.044300 0.258027
H23   H     H_    0.060083 0.696544 0.124447 0.190303
H24   H     H_    0.143442 0.599718 0.053567 0.247602
O13   O     O_3   0.501764 0.832628 0.306217 -0.510738
C31   C     C_3   0.418172 0.844900 0.240732 0.077151
H25   H     H_    0.420556 0.923096 0.191070 0.152483
H26   H     H_    0.372088 0.863478 0.319621 0.120359
C32   C     C_3   0.382786 0.721999 0.118313 -0.721378
H27   H     H_    0.374237 0.641856 0.162929 0.252172
H28   H     H_    0.319277 0.735912 0.063665 0.199507
H29   H     H_    0.426390 0.698466 0.036677 0.242432
O14   O     O_3   0.625342 0.111259 0.477733 -0.574081
C33   C     C_3   0.682455 0.075197 0.579148 0.081412
H30   H     H_    0.693507 0.971487 0.535021 0.158118
H31   H     H_    0.658310 0.094780 0.684569 0.119244
C34   C     C_3   0.767503 0.156182 0.608315 -0.806689
H32   H     H_    0.812541 0.133988 0.692755 0.200132
H33   H     H_    0.795824 0.135146 0.506920 0.243530
H34   H     H_    0.757791 0.260541 0.647795 0.254149
H35   H     H_    0.537424 0.953506 0.675578 0.106313
H36   H     H_    0.411278 0.082288 0.406053 0.056408
O15   O     O_3   0.445939 0.370646 0.822173 -0.539740
C35   C     C_3   0.471556 0.249739 0.828773 0.032826
H37   H     H_    0.495653 0.248669 0.940481 0.108658
H38   H     H_    0.523511 0.220280 0.763663 0.165319
C36   C     C_3   0.394975 0.149150 0.766672 -0.772788
H39   H     H_    0.370405 0.142699 0.652593 0.247553
H40   H     H_    0.413669 0.053304 0.769262 0.200336
H41   H     H_    0.343149 0.176364 0.832749 0.247695
O16   O     O_3   0.588564 0.574769 0.164260 -0.519213
C37   C     C_3   0.666379 0.526544 0.124478 0.056555
H42   H     H_    0.668186 0.500668 0.005974 0.097946
H43   H     H_    0.677634 0.438705 0.155900 0.177206
C38   C     C_3   0.739896 0.629691 0.203137 -0.734253
H44   H     H_    0.739914 0.661418 0.322329 0.240324
H45   H     H_    0.801880 0.590808 0.180634 0.228218
H46   H     H_    0.732875 0.714547 0.164702 0.231126

loop_
_geom_bond_atom_site_label_1
_geom_bond_atom_site_label_2
_ccdc_geom_bond_type
O11   C27   S    
C1    C21   S    
C38   H44   S    
C32   H27   S    
C3    O14   S    
O16   C37   S    
C1    O3    A    
Cu2   O6    S    
H4    N1    S    
C33   C34   S    
C5    C6    S    
C10   C17   S    
C1    O1    A    
C27   H15   S    
C2    O2    A    
C8    O6    A    
Cu2   N1    S    
C25   C26   S    
C34   H32   S    
C2    C22   S    
Cu1   Cu2   S    
Cu1   N2    S    
C12   O10   S    
C10   H2    S    
C23   H6    S    
C21   H36   S    
C28   H17   S    
C38   H45   S    
H3    N2    S    
C8    O8    A    
C31   C32   S    
C24   H9    S    
C5    N1    D    
C23   C24   S    
C28   H18   S    
C13   C19   T    
C9    H1    S    
C30   H22   S    
C29   C30   S    
C14   C20   T    
O14   C33   S    
C33   H31   S    
O9    C23   S    
C33   H30   S    
C26   H12   S    
C30   H23   S    
C29   H21   S    
C24   H7    S    
Cu2   O2    S    
C4    C22   D    
C11   C16   S    
C35   H38   S    
O10   C25   S    
C12   C15   S    
Cu1   O4    S    
Cu2   O7    S    
C7    O7    A    
C36   H39   S    
C22   H35   S    
C11   O9    S    
C32   H28   S    
C10   C12   S    
C31   H26   S    
C25   H10   S    
C6    N2    D    
C5    O16   S    
C36   H41   S    
Cu1   O5    S    
C9    C11   S    
C3    C21   D    
C3    C4    S    
Cu1   O8    S    
C35   C36   S    
C15   C17   S    
C11   C17   S    
C28   H19   S    
C8    C14   S    
C34   H33   S    
C7    O5    A    
C16   C18   S    
C31   H25   S    
C27   C28   S    
C38   H46   S    
C6    O15   S    
C37   H43   S    
Cu2   O3    S    
C37   C38   S    
C26   H14   S    
C29   H20   S    
C30   H24   S    
C9    C15   S    
C16   O11   S    
O13   C31   S    
C24   H8    S    
C10   C16   S    
C2    O4    A    
C35   H37   S    
C25   H11   S    
C17   C19   S    
C27   H16   S    
C18   C20   S    
C32   H29   S    
O12   C29   S    
C9    C18   S    
C7    C13   S    
C34   H34   S    
C36   H40   S    
C37   H42   S    
C12   C18   S    
C15   O12   S    
C23   H5    S    
C26   H13   S    
O15   C35   S    
C4    O13   S    
Cu1   O1    S    
