data_mof_unit_51143.cif
_audit_creation_date              2012-12-10T17:32:18-0500
_audit_creation_method            fapswitch 2.2
_symmetry_space_group_name_H-M    P1
_symmetry_Int_Tables_number       1
_space_group_crystal_system       triclinic
_cell_length_a                    12.382194
_cell_length_b                    13.069675
_cell_length_c                    15.041512
_cell_angle_alpha                 77.493633
_cell_angle_beta                  102.191013
_cell_angle_gamma                 116.942432
_cell_volume                      2100.54571482

loop_
_atom_site_label
_atom_site_type_symbol
_atom_type_description
_atom_site_fract_x
_atom_site_fract_y
_atom_site_fract_z
_atom_type_partial_charge
C1    C     C_R   0.855183 0.286631 0.503858 0.781389
C2    C     C_R   0.035450 0.601185 0.082402 0.065932
C3    C     C_R   0.872294 0.286905 0.064813 -0.214500
C4    C     C_R   0.870603 0.288435 0.972053 -0.212485
C5    C     C_R   0.937876 0.391161 0.917130 0.040247
C6    C     C_R   0.988011 0.497677 0.952646 -0.106264
C7    C     C_R   0.029779 0.604834 0.893425 -0.059718
C8    C     C_R   0.071940 0.710919 0.929603 0.482775
C9    C     C_R   0.074778 0.706311 0.024594 -0.334395
C10   C     C_R   0.950902 0.390519 0.826414 0.307013
C11   C     C_R   0.995758 0.496876 0.768299 -0.259376
C12   C     C_R   0.997468 0.496461 0.671366 0.906817
C13   C     C_R   0.024087 0.602270 0.798998 0.318575
C14   C     C_R   0.274514 0.026203 0.370804 -0.255612
C15   C     C_R   0.228738 0.837918 0.463292 -0.193759
C16   C     C_R   0.819322 0.079722 0.529750 -0.203713
C17   C     C_R   0.741093 0.962427 0.532852 -0.173065
C18   C     C_R   0.616037 0.927459 0.507525 -0.150134
C19   C     C_R   0.567976 0.010327 0.474953 0.082266
C20   C     C_R   0.650285 0.127829 0.455878 0.079762
C21   C     C_R   0.440685 0.979898 0.457418 -0.049929
C22   C     C_R   0.399150 0.058618 0.398281 0.061781
C23   C     C_R   0.145446 0.714391 0.484477 0.832503
C24   C     C_R   0.482838 0.168839 0.365997 -0.194017
C25   C     C_R   0.606569 0.204059 0.395858 -0.189346
C26   C     C_R   0.353475 0.875499 0.499023 0.321547
C27   C     C_R   0.188663 0.915471 0.400839 0.189853
C28   C     C_R   0.774220 0.163790 0.495090 -0.113693
C29   C     C_R   0.347276 0.323702 0.640767 -0.349553
C30   C     C_R   0.759071 0.647413 0.377017 0.093448
C31   C     C_R   0.661855 0.678534 0.349397 -0.273765
C32   C     C_R   0.556807 0.620133 0.393016 -0.175982
C33   C     C_R   0.547024 0.528581 0.464979 0.005085
C34   C     C_R   0.999034 0.499250 0.329428 0.789729
C35   C     C_R   0.650152 0.500841 0.491732 0.230626
C36   C     C_R   0.441051 0.466053 0.513300 -0.079247
C37   C     C_R   0.439675 0.374433 0.584139 0.065712
C38   C     C_R   0.536048 0.341160 0.604606 0.207903
C39   C     C_R   0.642173 0.409646 0.563227 -0.202822
C40   C     C_R   0.336146 0.490564 0.496125 0.001667
C41   C     C_R   0.258756 0.364547 0.629673 0.442932
C42   C     C_R   0.039454 0.600096 0.175769 -0.279067
C43   C     C_R   0.994410 0.495365 0.233442 -0.103511
C44   C     C_R   0.939808 0.388983 0.198578 0.184881
C45   C     C_R   0.934965 0.389605 0.104110 0.107622
C46   C     C_R   0.987519 0.496203 0.046543 0.054129
Cu1   Cu    Cu3+1 0.098270 0.475420 0.521130 0.961125
Cu2   Cu    Cu3+1 0.901730 0.524580 0.478870 0.940847
H1    H     H_    0.077171 0.680962 0.204021 0.133758
H2    H     H_    0.452423 0.229075 0.319082 0.140471
H3    H     H_    0.244328 0.085752 0.322743 0.152514
H4    H     H_    0.915259 0.104363 0.554398 0.156380
H5    H     H_    0.558383 0.835476 0.511272 0.190635
H6    H     H_    0.777023 0.898284 0.557687 0.162144
H7    H     H_    0.667107 0.289407 0.366933 0.168881
H8    H     H_    0.351975 0.262822 0.701449 0.166600
H9    H     H_    0.326350 0.553311 0.439285 0.134606
H10   H     H_    0.838825 0.692069 0.341518 0.142883
H11   H     H_    0.484563 0.647918 0.369061 0.133524
H12   H     H_    0.667853 0.748143 0.293603 0.142183
H13   H     H_    0.717760 0.389869 0.589085 0.223435
H14   H     H_    0.822397 0.204979 0.105071 0.179086
H15   H     H_    0.813284 0.208761 0.943708 0.162070
H16   H     H_    0.104117 0.784480 0.054343 0.129549
N1    N     N_R   0.246280 0.438190 0.553160 -0.185806
N2    N     N_R   0.754320 0.561190 0.447410 -0.198791
O1    O     O_R   0.972510 0.318130 0.526570 -0.574216
O2    O     O_R   0.806530 0.359650 0.490890 -0.615269
O3    O     O_R   0.082980 0.479210 0.647590 -0.546296
O4    O     O_R   0.917000 0.520730 0.611900 -0.572892
O5    O     O_R   0.193470 0.640350 0.509110 -0.544265
O6    O     O_R   0.027490 0.681870 0.473430 -0.562742
O7    O     O_R   0.083000 0.479270 0.388100 -0.594023
O8    O     O_R   0.917020 0.520790 0.352410 -0.600015
O9    O     O_3   0.387269 0.808928 0.574864 -0.574727
C47   C     C_3   0.429683 0.868736 0.652335 0.062471
H17   H     H_    0.367948 0.905582 0.660557 0.116308
H18   H     H_    0.522126 0.940851 0.647482 0.165236
C48   C     C_3   0.438096 0.785383 0.738479 -0.819948
H19   H     H_    0.473719 0.832098 0.799365 0.200216
H20   H     H_    0.346382 0.714149 0.748108 0.225369
H21   H     H_    0.500692 0.748156 0.732682 0.260369
N3    N     N_2   0.201718 0.348293 0.706843 -0.388792
H22   H     H_    0.177384 0.265795 0.742257 0.214195
C49   C     C_3   0.277253 0.434669 0.767522 -0.658788
H23   H     H_    0.357892 0.419141 0.803204 0.204762
H24   H     H_    0.224489 0.431473 0.819836 0.202907
H25   H     H_    0.309548 0.523227 0.728147 0.252810
N4    N     N_2   0.522987 0.237370 0.666858 -0.454499
H26   H     H_    0.447380 0.163632 0.649066 0.244143
C50   C     C_3   0.628985 0.219033 0.712455 -0.634582
H27   H     H_    0.600914 0.142201 0.766170 0.216360
H28   H     H_    0.694424 0.295514 0.746459 0.269702
H29   H     H_    0.672051 0.202641 0.662599 0.234709
N5    N     N_2   0.884724 0.282472 0.256894 -0.439654
H30   H     H_    0.841062 0.286764 0.306221 0.240758
C51   C     C_3   0.962464 0.223498 0.293619 -0.712474
H31   H     H_    0.041962 0.275823 0.340195 0.245666
H32   H     H_    0.995521 0.207431 0.237188 0.226396
H33   H     H_    0.909578 0.138763 0.333271 0.235307
O10   O     O_3   0.898484 0.288255 0.787748 -0.602365
C52   C     C_3   0.959802 0.216771 0.825631 0.087384
H34   H     H_    0.927241 0.162615 0.890370 0.136037
H35   H     H_    0.059647 0.266939 0.840528 0.145062
C53   C     C_3   0.932342 0.133567 0.758643 -0.804224
H36   H     H_    0.962229 0.183393 0.691899 0.264453
H37   H     H_    0.981435 0.077894 0.785884 0.199518
H38   H     H_    0.832593 0.077662 0.747895 0.250385
O11   O     O_3   0.013417 0.692325 0.735533 -0.524192
C54   C     C_3   0.123877 0.763740 0.699142 0.150674
H39   H     H_    0.147546 0.716397 0.659525 0.115934
H40   H     H_    0.201007 0.797292 0.754090 0.157115
C55   C     C_3   0.107277 0.864888 0.635541 -0.756211
H41   H     H_    0.192963 0.927287 0.607381 0.174482
H42   H     H_    0.034431 0.831636 0.577970 0.262789
H43   H     H_    0.079207 0.911089 0.673308 0.262475
O12   O     O_3   0.101529 0.815433 0.870055 -0.549347
C56   C     C_3   0.196318 0.911756 0.909804 0.054695
H44   H     H_    0.271505 0.890140 0.950413 0.131753
H45   H     H_    0.158781 0.942784 0.953807 0.147481
C57   C     C_3   0.250561 0.011974 0.834834 -0.833305
H46   H     H_    0.321408 0.088543 0.866568 0.208746
H47   H     H_    0.294084 0.988204 0.790271 0.237061
H48   H     H_    0.178302 0.036065 0.792521 0.241169
N6    N     N_2   0.063345 0.879908 0.364038 -0.405800
H49   H     H_    0.045401 0.860847 0.297954 0.235131
C58   C     C_3   0.007717 0.952129 0.374995 -0.701535
H50   H     H_    0.039822 0.034325 0.327099 0.212107
H51   H     H_    0.029654 0.971667 0.446623 0.238954
H52   H     H_    0.907013 0.906217 0.359031 0.222733

loop_
_geom_bond_atom_site_label_1
_geom_bond_atom_site_label_2
_ccdc_geom_bond_type
C16   C28   A    
C12   O3    A    
O10   C52   S    
C9    H16   S    
C11   C13   A    
N5    H30   S    
C47   C48   S    
C21   C26   A    
C33   C36   A    
C51   H31   S    
C7    C8    A    
C49   H23   S    
C2    C46   A    
C53   H37   S    
C38   N4    S    
N3    H22   S    
C36   C37   A    
C19   C21   A    
C47   H18   S    
C10   O10   S    
C30   C31   A    
C49   H25   S    
C20   C25   A    
C41   N3    S    
C1    O2    A    
C52   C53   S    
C18   C19   A    
C54   H39   S    
Cu1   O3    S    
C57   H48   S    
C13   O11   S    
C18   H5    S    
C33   C35   A    
C56   H44   S    
C19   C20   A    
C8    C9    A    
C1    C28   S    
C14   C27   A    
N4    C50   S    
C55   H43   S    
C15   C23   S    
C21   C22   A    
Cu2   O6    S    
Cu1   O1    S    
C51   H32   S    
C8    O12   S    
C26   O9    S    
C56   H45   S    
C49   H24   S    
C24   H2    S    
C38   C39   A    
C39   H13   S    
C53   H38   S    
Cu1   Cu2   S    
Cu2   O8    S    
C36   C40   A    
C47   H17   S    
Cu1   O7    S    
C50   H27   S    
C48   H20   S    
C16   C17   A    
C15   C26   A    
C41   N1    A    
C20   C28   A    
C35   N2    A    
C34   O7    A    
C45   C46   A    
C3    C45   A    
Cu2   O2    S    
C56   C57   S    
C31   H12   S    
C35   C39   A    
O9    C47   S    
C58   H51   S    
C37   C38   A    
C23   O5    A    
C50   H28   S    
C15   C27   A    
C14   H3    S    
C4    H15   S    
C17   C18   A    
C24   C25   A    
C52   H35   S    
C54   C55   S    
Cu1   O5    S    
C57   H46   S    
C30   N2    A    
C34   O8    A    
N3    C49   S    
C40   N1    A    
C43   C44   A    
N6    H49   S    
C22   C24   A    
C42   C43   A    
C3    C4    A    
C51   H33   S    
C44   C45   A    
C55   H41   S    
C3    H14   S    
C12   O4    A    
C40   H9    S    
C6    C46   A    
C29   C41   A    
C23   O6    A    
C31   C32   A    
C34   C43   S    
C16   H4    S    
Cu2   O4    S    
C4    C5    A    
C48   H21   S    
C11   C12   S    
N5    C51   S    
C6    C7    A    
C29   H8    S    
C53   H36   S    
C32   C33   A    
C14   C22   A    
C58   H52   S    
C5    C10   A    
C44   N5    S    
O12   C56   S    
C50   H29   S    
C27   N6    S    
C5    C6    A    
C2    C42   A    
C30   H10   S    
C1    O1    A    
C25   H7    S    
C52   H34   S    
C54   H40   S    
C57   H47   S    
C10   C11   A    
C42   H1    S    
C48   H19   S    
C7    C13   A    
C29   C37   A    
N6    C58   S    
C32   H11   S    
Cu2   N2    S    
N4    H26   S    
O11   C54   S    
C2    C9    A    
C17   H6    S    
Cu1   N1    S    
C58   H50   S    
C55   H42   S    
