data_mof_unit_14430.cif
_audit_creation_date              2012-12-11T17:08:23-0500
_audit_creation_method            fapswitch 2.2
_symmetry_space_group_name_H-M    P1
_symmetry_Int_Tables_number       1
_space_group_crystal_system       triclinic
_cell_length_a                    6.984085
_cell_length_b                    14.512854
_cell_length_c                    16.086872
_cell_angle_alpha                 89.950601
_cell_angle_beta                  90.045803
_cell_angle_gamma                 90.026198
_cell_volume                      1630.54805744

loop_
_atom_site_label
_atom_site_type_symbol
_atom_type_description
_atom_site_fract_x
_atom_site_fract_y
_atom_site_fract_z
_atom_type_partial_charge
O1    O     O_R   0.505700 0.583890 0.413310 -0.537512
O2    O     O_R   0.175960 0.594920 0.586080 -0.542490
O3    O     O_R   0.005660 0.416110 0.586690 -0.536058
C1    C     C_R   0.345242 0.618101 0.613761 0.692899
O4    O     O_R   0.175980 0.594920 0.413930 -0.541447
O5    O     O_R   0.005680 0.416110 0.413310 -0.538732
C2    C     C_R   0.344682 0.617041 0.385358 0.697748
O6    O     O_R   0.505680 0.583890 0.586690 -0.544841
O7    O     O_3   0.339200 0.441330 0.500000 -0.369198
V1    V     V_3+5 0.064350 0.510880 0.500000 1.381103
O8    O     O_R   0.675960 0.405080 0.413920 -0.538286
C3    C     C_R   0.844923 0.382887 0.385405 0.695410
O9    O     O_R   0.675940 0.405080 0.586070 -0.542587
C4    C     C_R   0.844671 0.383062 0.614733 0.692615
V2    V     V_3+5 0.564340 0.489120 0.500000 1.377975
O10   O     O_3   0.839360 0.558670 0.500000 -0.377954
C5    C     C_R   0.008979 0.252675 0.689687 0.102337
C6    C     C_R   0.852648 0.312400 0.681257 -0.110605
C7    C     C_R   0.700104 0.301342 0.737617 -0.181082
H1    H     H_    0.576729 0.345963 0.733704 0.131233
C8    C     C_R   0.711670 0.237384 0.803441 -0.180899
H2    H     H_    0.595780 0.233842 0.847836 0.130793
C9    C     C_R   0.876755 0.183085 0.815194 -0.109772
C10   C     C_R   0.020806 0.189683 0.754993 0.097192
C11   C     C_3   0.229765 0.206236 0.765882 -0.415546
C12   C     C_3   0.216951 0.274551 0.694477 -0.396591
H3    H     H_    0.316420 0.144221 0.750859 0.171370
H4    H     H_    0.262627 0.239224 0.826570 0.170697
H5    H     H_    0.295681 0.251888 0.638060 0.173386
H6    H     H_    0.243070 0.347070 0.713634 0.166551
C13   C     C_R   0.725214 0.246908 0.189938 0.102310
C14   C     C_R   0.882043 0.187529 0.181345 -0.111512
C15   C     C_R   0.034705 0.198756 0.237715 -0.179624
H7    H     H_    0.158327 0.154324 0.233795 0.132423
C16   C     C_R   0.023023 0.262634 0.303545 -0.180580
H8    H     H_    0.139163 0.266327 0.347881 0.131187
C17   C     C_R   0.857665 0.316711 0.315357 -0.110722
C18   C     C_R   0.713253 0.309808 0.255250 0.099849
C19   C     C_3   0.504605 0.292666 0.266344 -0.416019
C20   C     C_3   0.517550 0.224496 0.194948 -0.397906
H9    H     H_    0.417114 0.354472 0.251387 0.172634
H10   H     H_    0.472639 0.259495 0.327074 0.170661
H11   H     H_    0.438077 0.247042 0.138598 0.173422
H12   H     H_    0.492374 0.151882 0.214156 0.166984
C21   C     C_R   0.517909 0.692074 0.733554 0.047747
C22   C     C_R   0.355521 0.685330 0.683051 -0.099082
C23   C     C_R   0.201630 0.743782 0.701780 -0.202481
H13   H     H_    0.079759 0.744802 0.661284 0.179713
C24   C     C_R   0.211358 0.806845 0.768164 -0.186081
H14   H     H_    0.094074 0.854236 0.777387 0.136103
C25   C     C_R   0.376557 0.813434 0.818164 -0.094627
C26   C     C_R   0.526928 0.752589 0.801065 0.041349
C27   C     C_3   0.732083 0.775096 0.786002 -0.393221
C28   C     C_3   0.720226 0.712925 0.709777 0.142809
H15   H     H_    0.824817 0.746150 0.835765 0.138885
H16   H     H_    0.755512 0.849530 0.774546 0.172631
H17   H     H_    0.813381 0.650976 0.714270 0.088131
C29   C     C_R   0.508776 0.747686 0.310686 0.100592
C30   C     C_R   0.352583 0.687792 0.318923 -0.110236
C31   C     C_R   0.200133 0.698726 0.262398 -0.178667
H18   H     H_    0.076700 0.654080 0.266225 0.131634
C32   C     C_R   0.211875 0.762586 0.196506 -0.180302
H19   H     H_    0.096024 0.766034 0.152004 0.130900
C33   C     C_R   0.377029 0.816918 0.184844 -0.109722
C34   C     C_R   0.520809 0.810555 0.245300 0.098801
C35   C     C_3   0.729960 0.794286 0.234929 -0.414693
C36   C     C_3   0.716915 0.726179 0.306507 -0.398110
H20   H     H_    0.816234 0.856470 0.249972 0.172272
H21   H     H_    0.763431 0.761147 0.174404 0.170794
H22   H     H_    0.794865 0.749190 0.363088 0.173892
H23   H     H_    0.743675 0.653645 0.287632 0.167699
O11   O     O_R   0.229000 0.916070 0.913330 -0.540529
O12   O     O_R   0.558770 0.905070 0.086080 -0.538838
O13   O     O_R   0.729000 0.083900 0.086690 -0.536534
C37   C     C_R   0.389812 0.882959 0.114677 0.693779
O14   O     O_R   0.558720 0.905070 0.913930 -0.539809
O15   O     O_R   0.728960 0.083900 0.913310 -0.539833
C38   C     C_R   0.389682 0.883268 0.885147 0.695319
O16   O     O_R   0.229050 0.916070 0.086710 -0.539402
O17   O     O_3   0.395460 0.058650 0.000020 -0.371099
V3    V     V_3+5 0.670340 0.989120 0.000000 1.389273
O18   O     O_R   0.058670 0.094960 0.913900 -0.539385
C39   C     C_R   0.889632 0.117044 0.885338 0.691507
O19   O     O_R   0.058720 0.094960 0.086050 -0.542620
C40   C     C_R   0.890053 0.116935 0.114763 0.694614
V4    V     V_3+5 0.170330 0.010930 0.999970 1.385619
O20   O     O_3   0.895340 0.941350 0.999980 -0.370092
N1    N     N_2   0.738503 0.759834 0.629459 -0.511954
H24   H     H_    0.731675 0.716805 0.578708 0.277102
C41   C     C_3   0.657324 0.850609 0.615393 -0.539391
H25   H     H_    0.655359 0.865648 0.547675 0.178011
H26   H     H_    0.747434 0.904085 0.645292 0.192492
H27   H     H_    0.508548 0.854985 0.638804 0.214224

loop_
_geom_bond_atom_site_label_1
_geom_bond_atom_site_label_2
_ccdc_geom_bond_type
C35   H20   S    
C4    C6    S    
C7    H1    S    
C1    O6    A    
C23   C24   A    
C1    C22   S    
C21   C22   A    
C11   H4    S    
C17   C18   A    
C9    C39   S    
C5    C12   S    
C7    C8    A    
O14   C38   A    
O5    C3    A    
C18   C19   S    
C35   H21   S    
O15   C39   A    
V2    O10   S    
C13   C20   S    
C31   C32   A    
C6    C7    A    
O12   V3    S    
C3    C17   S    
O17   V4    S    
O8    V2    S    
C20   H11   S    
C13   C14   A    
C24   C25   A    
C32   C33   A    
C9    C10   A    
O1    V2    S    
O7    V1    S    
C35   C36   S    
C30   C31   A    
O9    C4    A    
O12   C37   A    
C2    C30   S    
C15   H7    S    
C19   H10   S    
C27   H15   S    
C5    C10   A    
C25   C26   A    
C10   C11   S    
C19   H9    S    
C19   C20   S    
O4    C2    A    
V4    O20   S    
C21   C26   A    
C29   C30   A    
O18   V4    S    
O18   C39   A    
C31   H18   S    
C16   H8    S    
O2    C1    A    
C32   H19   S    
C29   C34   A    
C41   H26   S    
C23   H13   S    
O15   V3    S    
C5    C6    A    
O19   C40   A    
V3    O20   S    
O3    C4    A    
N1    C41   S    
C21   C28   S    
C12   H6    S    
O6    V2    S    
O9    V2    S    
O13   V3    S    
O2    V1    S    
C26   C27   S    
C41   H27   S    
C27   H16   S    
C22   C23   A    
C16   C17   A    
O1    C2    A    
O19   V4    S    
O17   V3    S    
O14   V3    S    
O5    V1    S    
O11   V4    S    
O8    C3    A    
C27   C28   S    
C11   H3    S    
C13   C18   A    
C36   H22   S    
C14   C15   A    
C8    C9    A    
C11   C12   S    
C25   C38   S    
O4    V1    S    
O3    V1    S    
V1    O10   S    
C33   C34   A    
C28   N1    S    
C41   H25   S    
C14   C40   S    
C15   C16   A    
C33   C37   S    
C36   H23   S    
C34   C35   S    
O13   C40   A    
O7    V2    S    
C29   C36   S    
C20   H12   S    
N1    H24   S    
C12   H5    S    
C24   H14   S    
O11   C38   A    
C8    H2    S    
C37   O16   A    
O16   V4    S    
C28   H17   S    
