data_mof_unit_45301.cif
_audit_creation_date              2012-12-10T17:08:36-0500
_audit_creation_method            fapswitch 2.2
_symmetry_space_group_name_H-M    P1
_symmetry_Int_Tables_number       1
_space_group_crystal_system       triclinic
_cell_length_a                    15.80098
_cell_length_b                    10.603827
_cell_length_c                    10.088494
_cell_angle_alpha                 89.17309
_cell_angle_beta                  90.057371
_cell_angle_gamma                 90.124201
_cell_volume                      1690.15502468

loop_
_atom_site_label
_atom_site_type_symbol
_atom_type_description
_atom_site_fract_x
_atom_site_fract_y
_atom_site_fract_z
_atom_type_partial_charge
C1    C     C_R   0.492342 0.263076 0.501080 0.919936
C2    C     C_2   0.498726 0.870596 0.492237 -0.324474
C3    C     C_2   0.441054 0.066667 0.404746 0.039549
C4    C     C_R   0.338718 0.499948 0.499878 0.886762
C5    C     C_2   0.473120 0.131562 0.506883 -0.410510
C6    C     C_2   0.531656 0.590643 0.925417 -0.055474
C7    C     C_2   0.545434 0.576318 0.073449 -0.059228
C8    C     C_R   0.499908 0.737534 0.498520 0.946798
C9    C     C_R   0.661787 0.502671 0.500449 0.911523
C10   C     C_3   0.054184 0.412545 0.620505 -0.429410
C11   C     C_3   0.049236 0.438959 0.375747 -0.475938
C12   C     C_3   0.956609 0.431689 0.648647 0.024466
C13   C     C_3   0.950804 0.438046 0.378234 -0.136166
C14   C     C_1   0.751136 0.506098 0.503868 -0.200321
C15   C     C_3   0.084404 0.497030 0.503637 0.297211
C16   C     C_R   0.917541 0.298238 0.682728 0.101429
C17   C     C_R   0.866693 0.274532 0.796912 -0.157286
C18   C     C_R   0.835615 0.154159 0.827594 -0.162026
C19   C     C_R   0.857936 0.051755 0.751101 -0.130362
C20   C     C_R   0.908759 0.069983 0.640394 -0.135959
C21   C     C_R   0.937934 0.190615 0.606609 -0.157413
C22   C     C_R   0.944860 0.523730 0.770764 0.113687
C23   C     C_3   0.918719 0.498402 0.513641 0.217262
C24   C     C_R   0.012992 0.577501 0.844908 -0.152973
C25   C     C_R   0.999044 0.664620 0.945033 -0.157414
C26   C     C_R   0.917750 0.703866 0.974265 -0.120096
C27   C     C_R   0.849905 0.654884 0.904456 -0.155934
C28   C     C_R   0.862790 0.566792 0.804680 -0.222514
C29   C     C_R   0.398917 0.127706 0.288843 0.170672
C30   C     C_R   0.426075 0.102898 0.159334 -0.161481
C31   C     C_R   0.386025 0.161193 0.050974 -0.164436
C32   C     C_R   0.318362 0.243388 0.071027 -0.146717
C33   C     C_R   0.290266 0.267172 0.199460 -0.129155
C34   C     C_3   0.954432 0.638566 0.511189 -0.071645
C35   C     C_R   0.330110 0.209307 0.308018 -0.106894
C36   C     C_R   0.561945 0.709438 0.863665 0.230427
C37   C     C_R   0.517308 0.822281 0.881810 -0.165111
C38   C     C_R   0.551883 0.937011 0.837755 -0.158324
C39   C     C_R   0.630226 0.939449 0.773510 -0.148234
C40   C     C_R   0.673602 0.826940 0.752109 -0.195159
C41   C     C_R   0.640480 0.713002 0.799932 -0.100687
C42   C     C_R   0.612382 0.652503 0.135208 0.206476
C43   C     C_R   0.693858 0.602472 0.149002 -0.145768
C44   C     C_R   0.757508 0.673461 0.208298 -0.133851
C45   C     C_3   0.052597 0.634450 0.516304 -0.434630
C46   C     C_R   0.740646 0.795316 0.252068 -0.144413
C47   C     C_R   0.660246 0.847327 0.234164 -0.169995
C48   C     C_R   0.596388 0.776524 0.174770 -0.083941
C49   C     C_R   0.913029 0.317112 0.318371 0.096556
C50   C     C_R   0.840634 0.252913 0.367150 -0.116230
C51   C     C_R   0.808944 0.146520 0.303458 -0.144921
C52   C     C_R   0.847662 0.102765 0.188984 -0.148587
C53   C     C_R   0.917674 0.166089 0.137064 -0.140813
C54   C     C_R   0.948758 0.273477 0.198977 -0.163380
C55   C     C_1   0.826661 0.504915 0.510229 -0.104988
C56   C     C_1   0.175406 0.497495 0.499898 -0.098167
C57   C     C_1   0.250329 0.498598 0.499345 -0.199397
C58   C     C_2   0.443126 0.929397 0.412876 -0.233541
H1    H     H_    0.095619 0.416533 0.707676 0.146790
H2    H     H_    0.931985 0.505371 0.298776 0.156494
H3    H     H_    0.075222 0.674630 0.611127 0.167433
H4    H     H_    0.080896 0.694654 0.436569 0.169255
H5    H     H_    0.932164 0.689523 0.599927 0.169152
H6    H     H_    0.851352 0.345254 0.867845 0.147069
H7    H     H_    0.795929 0.139726 0.913841 0.142921
H8    H     H_    0.837105 0.958077 0.779133 0.132448
H9    H     H_    0.926192 0.990252 0.580571 0.123346
H10   H     H_    0.976952 0.197098 0.519334 0.140283
H11   H     H_    0.078807 0.560623 0.827430 0.118905
H12   H     H_    0.399654 0.875784 0.351666 0.159878
H13   H     H_    0.052119 0.703714 0.998742 0.123306
H14   H     H_    0.907344 0.772573 0.050869 0.122224
H15   H     H_    0.787024 0.685547 0.928789 0.147725
H16   H     H_    0.807479 0.529533 0.756799 0.142621
H17   H     H_    0.962979 0.703216 0.314567 0.180423
H18   H     H_    0.928811 0.809866 0.421335 0.171931
H19   H     H_    0.478715 0.039969 0.142481 0.121817
H20   H     H_    0.407309 0.142940 0.951313 0.127617
H21   H     H_    0.287619 0.288452 0.987003 0.128976
H22   H     H_    0.237602 0.330394 0.214987 0.127082
H23   H     H_    0.546554 0.918738 0.548673 0.157983
H24   H     H_    0.307422 0.227954 0.407058 0.102323
H25   H     H_    0.457102 0.821648 0.933035 0.115868
H26   H     H_    0.518083 0.024023 0.853158 0.126431
H27   H     H_    0.656461 0.028105 0.738201 0.141697
H28   H     H_    0.733242 0.827541 0.699735 0.135347
H29   H     H_    0.676688 0.627702 0.790126 0.131713
H30   H     H_    0.707728 0.508093 0.115605 0.130675
H31   H     H_    0.819819 0.633516 0.219333 0.153511
H32   H     H_    0.789833 0.849662 0.299189 0.140966
H33   H     H_    0.647105 0.941978 0.266973 0.133821
H34   H     H_    0.485761 0.086474 0.602005 0.154318
H35   H     H_    0.534022 0.817049 0.162531 0.118094
H36   H     H_    0.809361 0.279041 0.457040 0.144767
H37   H     H_    0.754493 0.097440 0.343946 0.124039
H38   H     H_    0.823129 0.020497 0.139626 0.128254
H39   H     H_    0.947666 0.132689 0.047852 0.146145
H40   H     H_    0.001498 0.322549 0.153021 0.129065
H41   H     H_    0.487146 0.417056 0.899218 0.155529
H42   H     H_    0.070765 0.315065 0.594252 0.153067
H43   H     H_    0.451605 0.454940 0.102961 0.170645
H44   H     H_    0.072094 0.494127 0.287925 0.161860
H45   H     H_    0.074528 0.341565 0.365792 0.169662
N1    N     N_2   0.500900 0.501330 0.852150 -0.216107
N2    N     N_2   0.500920 0.501360 0.147810 -0.211424
N3    N     N_3   0.924159 0.714437 0.397419 -0.485081
O1    O     O_R   0.499990 0.319060 0.613040 -0.625236
O2    O     O_R   0.500010 0.319100 0.386900 -0.591254
O3    O     O_R   0.377130 0.499990 0.613120 -0.610773
O4    O     O_R   0.377160 0.500030 0.386980 -0.616325
O5    O     O_R   0.499990 0.680900 0.613100 -0.596865
O6    O     O_R   0.500010 0.680940 0.386960 -0.614250
O7    O     O_R   0.622840 0.499970 0.613020 -0.629839
O8    O     O_R   0.622870 0.500010 0.386880 -0.590982
Zn1   Zn    Zn3+2 0.499980 0.499970 0.650990 0.932823
Zn2   Zn    Zn3+2 0.500020 0.500030 0.349010 0.953045

loop_
_geom_bond_atom_site_label_1
_geom_bond_atom_site_label_2
_ccdc_geom_bond_type
C4    O3    A    
C16   C21   A    
C26   H14   S    
C20   H9    S    
C19   C20   A    
C43   C44   A    
C28   H16   S    
C13   H2    S    
C53   C54   A    
C18   H7    S    
C12   C23   S    
C26   C27   A    
C37   C38   A    
C1    C5    S    
C43   H30   S    
C36   C37   A    
C10   C15   S    
C8    O6    A    
C17   H6    S    
C30   C31   A    
C49   C54   A    
C12   C22   S    
C45   H4    S    
C56   C57   T    
C13   C23   S    
C19   H8    S    
C18   C19   A    
C7    C42   S    
C40   H28   S    
C3    C29   S    
N2    Zn2   S    
C30   H19   S    
C11   C15   S    
C31   C32   A    
C16   C17   A    
C4    C57   S    
C14   C55   T    
C7    N2    D    
C25   H13   S    
C6    N1    D    
H41   N1    S    
C22   C28   A    
C36   C41   A    
C35   H24   S    
C44   C46   A    
C24   H11   S    
C17   C18   A    
H43   N2    S    
C41   H29   S    
C2    C8    S    
C48   H35   S    
C54   H40   S    
C51   C52   A    
C34   N3    S    
C12   C16   S    
C24   C25   A    
C8    O5    A    
C39   C40   A    
C58   H12   S    
C53   H39   S    
C25   C26   A    
C9    C14   S    
C29   C30   A    
N1    Zn1   S    
C47   C48   A    
C23   C34   S    
C50   C51   A    
C34   C45   S    
C42   C48   A    
C10   H42   S    
O1    Zn1   S    
C10   C12   S    
C1    O1    A    
C13   C49   S    
C40   C41   A    
C21   H10   S    
C22   C24   A    
C42   C43   A    
C9    O8    A    
O4    Zn2   S    
O6    Zn2   S    
C52   C53   A    
C31   H20   S    
C4    O4    A    
C46   C47   A    
H18   N3    S    
C38   H26   S    
C47   H33   S    
C50   H36   S    
C3    C5    D    
O8    Zn2   S    
C2    C58   D    
C33   H22   S    
C23   C55   S    
C6    C7    S    
C46   H32   S    
C11   H45   S    
C29   C35   A    
C9    O7    A    
C15   C56   S    
O2    Zn2   S    
C10   H1    S    
C32   C33   A    
C32   H21   S    
C11   C13   S    
C38   C39   A    
C45   H3    S    
C34   H5    S    
C33   C35   A    
C6    C36   S    
C52   H38   S    
C11   H44   S    
C5    H34   S    
O3    Zn1   S    
C1    O2    A    
C3    C58   S    
C20   C21   A    
H17   N3    S    
C49   C50   A    
C27   C28   A    
C39   H27   S    
C37   H25   S    
C2    H23   S    
O5    Zn1   S    
C27   H15   S    
C44   H31   S    
C51   H37   S    
O7    Zn1   S    
C15   C45   S    
