data_mof_unit_38176.cif
_audit_creation_date              2012-10-26T20:38:25-0400
_audit_creation_method            fapswitch 2.2
_symmetry_space_group_name_H-M    P1
_symmetry_Int_Tables_number       1
_space_group_crystal_system       triclinic
_cell_length_a                    15.877991
_cell_length_b                    10.869452
_cell_length_c                    9.889391
_cell_angle_alpha                 109.523479
_cell_angle_beta                  99.798157
_cell_angle_gamma                 90.315065
_cell_volume                      1581.58730225

loop_
_atom_site_label
_atom_site_type_symbol
_atom_type_description
_atom_site_fract_x
_atom_site_fract_y
_atom_site_fract_z
_atom_type_partial_charge
C1    C     C_R   0.500278 0.254271 0.444168 0.537130
C2    C     C_3   0.024730 0.606508 0.474958 0.047718
C3    C     C_3   0.015853 0.392995 0.393734 0.026428
C4    C     C_3   0.983670 0.605698 0.605138 0.026947
C5    C     C_1   0.250105 0.499734 0.498339 -0.048611
C6    C     C_1   0.749702 0.499818 0.501353 -0.052620
C7    C     C_3   0.042610 0.499363 0.630244 -0.098049
C8    C     C_3   0.956898 0.499318 0.368637 -0.098968
C9    C     C_3   0.082874 0.499925 0.498521 0.037494
C10   C     C_3   0.916696 0.498831 0.500356 0.037687
C11   C     C_1   0.174571 0.499810 0.498148 -0.073290
C12   C     C_R   0.509301 0.746099 0.556825 0.537242
C13   C     C_1   0.825128 0.499331 0.501099 -0.074660
C14   C     C_2   0.512429 0.115599 0.423371 -0.131261
C15   C     C_2   0.520823 0.886214 0.582121 -0.130685
C16   C     C_3   0.035089 0.274229 0.271100 -0.408891
C17   C     C_3   0.964331 0.724431 0.727743 -0.408266
C18   C     C_3   0.941846 0.272279 0.552605 -0.273007
C19   C     C_3   0.014691 0.193834 0.595127 -0.447053
C20   C     C_3   0.056886 0.726677 0.445980 -0.271049
C21   C     C_3   0.983479 0.804323 0.403480 -0.447534
C22   C     C_3   0.607208 0.845862 0.381675 -0.248144
C23   C     C_2   0.562170 0.075210 0.525145 0.008448
C24   C     C_3   0.669179 0.919034 0.327393 -0.458461
C25   C     C_3   0.616886 0.169449 0.664573 -0.238894
C26   C     C_3   0.683072 0.105315 0.746833 -0.458635
C27   C     C_3   0.609329 0.643322 0.960377 -0.108789
C28   C     C_3   0.637568 0.755493 0.914340 -0.354184
C29   C     C_3   0.392753 0.355168 0.034284 -0.112800
C30   C     C_3   0.322491 0.310972 0.098712 -0.353844
C31   C     C_2   0.561757 0.933447 0.498463 0.011195
C32   C     C_2   0.517440 0.490337 0.077528 -0.011167
C33   C     C_2   0.503081 0.474894 0.914640 -0.015624
C34   C     C_R   0.339909 0.499824 0.499427 0.550778
C35   C     C_R   0.660040 0.500115 0.500537 0.532157
C36   C     C_3   0.974740 0.392202 0.523902 0.048546
Cu1   Cu    Cu3+1 0.514700 0.521810 0.644910 0.907106
Cu2   Cu    Cu3+1 0.485300 0.478190 0.355090 0.914467
H1    H     H_    0.920862 0.498359 0.261700 0.096487
H2    H     H_    0.023217 0.790222 0.778798 0.124237
H3    H     H_    0.913535 0.778042 0.684292 0.126206
H4    H     H_    0.941705 0.691983 0.811346 0.125070
H5    H     H_    0.051353 0.155693 0.505526 0.149993
H6    H     H_    0.058604 0.255580 0.695258 0.145216
H7    H     H_    0.987795 0.109513 0.617338 0.130514
H8    H     H_    0.904868 0.305383 0.642703 0.139691
H9    H     H_    0.898163 0.208787 0.453130 0.139656
H10   H     H_    0.939651 0.742179 0.303469 0.143848
H11   H     H_    0.946804 0.842073 0.493122 0.148399
H12   H     H_    0.078588 0.500239 0.737186 0.098903
H13   H     H_    0.009821 0.888897 0.381067 0.132019
H14   H     H_    0.100441 0.790589 0.545341 0.141862
H15   H     H_    0.093781 0.693911 0.355754 0.141429
H16   H     H_    0.633512 0.973967 0.262014 0.152020
H17   H     H_    0.714861 0.987444 0.419936 0.153834
H18   H     H_    0.706940 0.847548 0.257247 0.123093
H19   H     H_    0.645033 0.777683 0.426217 0.147736
H20   H     H_    0.557958 0.788084 0.287743 0.155948
H21   H     H_    0.651153 0.040868 0.792138 0.146931
H22   H     H_    0.725691 0.047908 0.674504 0.149326
H23   H     H_    0.495329 0.953304 0.672293 0.082778
H24   H     H_    0.723267 0.182579 0.839524 0.129918
H25   H     H_    0.652861 0.242486 0.635983 0.164968
H26   H     H_    0.574470 0.221093 0.740942 0.159183
H27   H     H_    0.661720 0.721831 0.810770 0.189052
H28   H     H_    0.585572 0.823041 0.912161 0.157099
H29   H     H_    0.692122 0.813736 0.997661 0.070404
H30   H     H_    0.591281 0.695882 0.066706 0.096648
H31   H     H_    0.665478 0.585663 0.976629 0.110389
H32   H     H_    0.347414 0.264264 0.179387 0.190396
H33   H     H_    0.282320 0.392906 0.142652 0.158795
H34   H     H_    0.479534 0.043599 0.322088 0.088092
H35   H     H_    0.279004 0.235479 0.009156 0.073066
H36   H     H_    0.357778 0.403264 0.960206 0.106464
H37   H     H_    0.420070 0.265506 0.968234 0.105089
H38   H     H_    0.459352 0.397132 0.836199 0.126770
H39   H     H_    0.574088 0.544791 0.150342 0.126046
H40   H     H_    0.976067 0.208807 0.219698 0.123185
H41   H     H_    0.058075 0.306659 0.187771 0.123753
H42   H     H_    0.085575 0.220236 0.314655 0.128265
N1    N     N_2   0.463210 0.445420 0.137360 -0.214735
N2    N     N_2   0.536790 0.554580 0.862640 -0.217195
O1    O     O_R   0.507840 0.332340 0.577400 -0.509643
O2    O     O_R   0.492160 0.667660 0.422600 -0.491214
O3    O     O_R   0.483020 0.295500 0.332650 -0.495684
O4    O     O_R   0.516980 0.704500 0.667350 -0.498190
O5    O     O_R   0.391490 0.518400 0.622350 -0.484355
O6    O     O_R   0.608510 0.481600 0.377650 -0.504591
O7    O     O_R   0.366660 0.481570 0.377600 -0.498758
O8    O     O_R   0.633340 0.518430 0.622400 -0.507270

loop_
_geom_bond_atom_site_label_1
_geom_bond_atom_site_label_2
_ccdc_geom_bond_type
C7    C36   S    
C2    C4    S    
C18   H9    S    
C22   H19   S    
C21   H11   S    
C30   H33   S    
C24   H17   S    
C32   N1    D    
Cu2   O7    S    
C29   C30   S    
Cu1   O8    S    
C5    C11   T    
C24   H16   S    
C6    C35   S    
C12   O2    A    
C18   C19   S    
C25   H25   S    
C17   H4    S    
C27   H30   S    
C32   H39   S    
C8    H1    S    
C33   N2    D    
C27   H31   S    
C21   H10   S    
C4    C7    S    
C18   H8    S    
C30   H32   S    
C19   H5    S    
C1    O3    A    
C22   C31   S    
Cu2   O3    S    
C2    C20   S    
Cu1   O4    S    
C28   H29   S    
C3    C8    S    
C30   H35   S    
C29   H36   S    
C25   C26   S    
Cu2   O6    S    
C16   H42   S    
C25   H26   S    
C23   C31   S    
C14   C23   D    
C28   H28   S    
C29   N1    S    
Cu1   Cu2   S    
C3    C9    S    
C35   O6    A    
C33   H38   S    
C12   C15   S    
C5    C34   S    
C15   H23   S    
C9    C11   S    
C4    C17   S    
Cu2   N1    S    
C22   C24   S    
Cu1   N2    S    
C1    O1    A    
C4    C10   S    
C21   H13   S    
C19   H6    S    
C26   H21   S    
C7    C9    S    
Cu2   O2    S    
C14   H34   S    
Cu1   O5    S    
C27   N2    S    
C2    C8    S    
C7    H12   S    
C20   H15   S    
C10   C13   S    
C22   H20   S    
C19   H7    S    
C15   C31   D    
C29   H37   S    
C24   H18   S    
C12   O4    A    
C16   H41   S    
C32   C33   S    
C28   H27   S    
C26   H24   S    
C34   O7    A    
C20   H14   S    
C6    C13   T    
C18   C36   S    
C3    C36   S    
C16   H40   S    
C34   O5    A    
C23   C25   S    
C17   H3    S    
C35   O8    A    
C20   C21   S    
C8    C10   S    
C27   C28   S    
Cu1   O1    S    
C10   C36   S    
C1    C14   S    
C2    C9    S    
C26   H22   S    
C17   H2    S    
C3    C16   S    
