data_mof_unit_30646.cif
_audit_creation_date              2012-12-10T20:30:10-0500
_audit_creation_method            fapswitch 2.2
_symmetry_space_group_name_H-M    P1
_symmetry_Int_Tables_number       1
_space_group_crystal_system       triclinic
_cell_length_a                    9.948111
_cell_length_b                    10.720754
_cell_length_c                    13.211553
_cell_angle_alpha                 91.192411
_cell_angle_beta                  68.411357
_cell_angle_gamma                 87.20199
_cell_volume                      1307.48176681

loop_
_atom_site_label
_atom_site_type_symbol
_atom_type_description
_atom_site_fract_x
_atom_site_fract_y
_atom_site_fract_z
_atom_type_partial_charge
C1    C     C_R   0.502766 0.739602 0.490266 0.937536
C2    C     C_R   0.460942 0.530789 0.968345 -0.137823
C3    C     C_R   0.473760 0.462645 0.872189 -0.176698
C4    C     C_R   0.564688 0.504964 0.016427 -0.109347
C5    C     C_R   0.694291 0.432713 0.957354 -0.368768
C6    C     C_R   0.707298 0.367903 0.860674 0.608158
C7    C     C_R   0.591707 0.373453 0.823666 0.462019
C8    C     C_R   0.533788 0.534099 0.126868 0.702324
C9    C     C_R   0.777644 0.461365 0.107314 0.237194
C10   C     C_R   0.370535 0.489595 0.823931 -0.204731
C11   C     C_R   0.396275 0.943743 0.462770 -0.196375
C12   C     C_R   0.419693 0.492176 0.704352 1.010297
C13   C     C_R   0.516334 0.869309 0.460198 -0.288262
C14   C     C_R   0.651663 0.926392 0.430341 0.414288
C15   C     C_R   0.651172 0.056444 0.441310 0.672579
C16   C     C_R   0.519551 0.127908 0.470488 -0.259621
C17   C     C_R   0.399274 0.071134 0.466578 -0.326869
C18   C     C_3   0.243218 0.090961 0.538633 0.918592
C19   C     C_3   0.239654 0.950399 0.534453 1.168793
C20   C     C_R   0.881174 0.537841 0.590578 -0.134281
C21   C     C_R   0.972933 0.442910 0.416812 0.392880
C22   C     C_R   0.116180 0.446255 0.415798 0.790285
C23   C     C_R   0.505698 0.259889 0.494120 1.003173
C24   C     C_R   0.022375 0.532361 0.593256 -0.150114
C25   C     C_3   0.983501 0.655632 0.656313 0.988055
C26   C     C_3   0.835836 0.661627 0.647784 0.826820
C27   C     C_R   0.581834 0.503400 0.294894 0.933105
C28   C     C_R   0.803674 0.419152 0.000769 0.776350
C29   C     C_R   0.635652 0.505224 0.174745 -0.445598
C30   C     C_R   0.238743 0.551644 0.886615 0.505070
C31   C     C_R   0.227535 0.624805 0.978630 0.285641
C32   C     C_R   0.345573 0.623905 0.011309 0.712964
N1    N     N_R   0.856940 0.500860 0.500710 -0.169808
N2    N     N_R   0.142580 0.500820 0.500710 -0.162074
O1    O     O_R   0.385310 0.683210 0.499990 -0.538182
O2    O     O_R   0.614650 0.683240 0.500000 -0.585293
O3    O     O_R   0.328390 0.499940 0.653610 -0.531494
O4    O     O_R   0.557730 0.499980 0.653620 -0.608778
O5    O     O_R   0.385350 0.316760 0.500000 -0.565142
O6    O     O_R   0.614690 0.316790 0.500010 -0.589847
O7    O     O_R   0.442270 0.500020 0.346380 -0.499482
O8    O     O_R   0.671610 0.500060 0.346390 -0.669080
Zn1   Zn    Zn3+2 0.346870 0.499980 0.499990 1.179718
Zn2   Zn    Zn3+2 0.653130 0.500020 0.500010 1.039533
O9    O     O_3   0.890018 0.449768 0.144151 -0.617713
H1    H     H_    0.882420 0.524597 0.191617 0.375501
F1    F     F_    0.777387 0.110829 0.425680 -0.564628
F2    F     F_    0.221843 0.141207 0.641329 -0.542881
O10   O     O_3   0.156108 0.154143 0.490275 -0.670298
H2    H     H_    0.192326 0.129067 0.411549 0.367616
F3    F     F_    0.215395 0.900337 0.635093 -0.559954
F4    F     F_    0.154466 0.909298 0.479385 -0.548243
O11   O     O_3   0.954243 0.377531 0.333009 -0.633347
H3    H     H_    0.852284 0.355930 0.358428 0.401572
F5    F     F_    0.226571 0.388755 0.331330 -0.573904
O12   O     O_3   0.977263 0.651949 0.763758 -0.626048
H4    H     H_    0.923967 0.577986 0.797072 0.353672
F6    F     F_    0.069123 0.744850 0.600363 -0.524518
O13   O     O_3   0.720067 0.657616 0.748169 -0.808111
H5    H     H_    0.632947 0.694376 0.737677 0.371821
F7    F     F_    0.826815 0.291400 0.807028 -0.560968
F8    F     F_    0.818120 0.755594 0.582306 -0.557398
F9    F     F_    0.934768 0.361380 0.941664 -0.489583
F10   F     F_    0.396444 0.572618 0.192095 -0.551850
F11   F     F_    0.127488 0.549912 0.852490 -0.581364
F12   F     F_    0.351136 0.720348 0.077744 -0.525871
O14   O     O_3   0.107976 0.704180 0.033711 -0.635714
H6    H     H_    0.033657 0.694530 0.001171 0.393786
O15   O     O_3   0.589029 0.290944 0.742460 -0.711614
H7    H     H_    0.677015 0.233515 0.717868 0.402855
O16   O     O_3   0.783730 0.859603 0.394576 -0.573194
H8    H     H_    0.776414 0.785395 0.351297 0.342673

loop_
_geom_bond_atom_site_label_1
_geom_bond_atom_site_label_2
_ccdc_geom_bond_type
C7    O15   S    
C2    C4    A    
O14   H6    S    
O3    Zn1   S    
C6    C7    A    
C15   F1    S    
C27   C29   S    
C5    C28   A    
O1    Zn1   S    
C26   O13   S    
C10   C30   A    
O6    Zn2   S    
C3    C7    A    
C31   C32   A    
C25   O12   S    
C9    C29   A    
C30   C31   A    
C4    C8    A    
C19   F4    S    
C31   O14   S    
C17   C18   S    
C26   F8    S    
O13   H5    S    
C3    C10   A    
O9    H1    S    
C24   C25   S    
C9    O9    S    
C11   C13   A    
C27   O8    A    
C11   C19   S    
C18   O10   S    
C22   F5    S    
O8    Zn2   S    
C8    F10   S    
C23   O5    A    
C20   N1    A    
C21   O11   S    
C6    F7    S    
C21   C22   A    
O4    Zn2   S    
C2    C3    A    
C16   C23   S    
C10   C12   S    
O15   H7    S    
N2    Zn1   S    
C12   O4    A    
C5    C6    A    
C22   N2    A    
C16   C17   A    
O2    Zn2   S    
C30   F11   S    
C1    C13   S    
C25   F6    S    
C8    C29   A    
O11   H3    S    
C15   C16   A    
C28   F9    S    
C19   F3    S    
O16   H8    S    
C21   N1    A    
O12   H4    S    
C32   F12   S    
C2    C32   A    
C18   C19   S    
C14   O16   S    
C12   O3    A    
O10   H2    S    
C1    O1    A    
C27   O7    A    
C14   C15   A    
C11   C17   A    
O5    Zn1   S    
C25   C26   S    
C13   C14   A    
N1    Zn2   S    
C9    C28   A    
C20   C24   A    
C24   N2    A    
O7    Zn1   S    
C23   O6    A    
C1    O2    A    
C4    C5    A    
C20   C26   S    
C18   F2    S    
