data_mof_unit_32636.cif
_audit_creation_date              2012-12-10T18:21:24-0500
_audit_creation_method            fapswitch 2.2
_symmetry_space_group_name_H-M    P1
_symmetry_Int_Tables_number       1
_space_group_crystal_system       triclinic
_cell_length_a                    15.010313
_cell_length_b                    13.985458
_cell_length_c                    10.648822
_cell_angle_alpha                 89.902835
_cell_angle_beta                  90.501281
_cell_angle_gamma                 90.685469
_cell_volume                      2235.21733404

loop_
_atom_site_label
_atom_site_type_symbol
_atom_type_description
_atom_site_fract_x
_atom_site_fract_y
_atom_site_fract_z
_atom_type_partial_charge
C1    C     C_R   0.326371 0.499141 0.494399 0.918453
C2    C     C_R   0.049005 0.667012 0.536989 -0.216930
C3    C     C_R   0.093317 0.582737 0.506360 0.123840
C4    C     C_R   0.499003 0.500218 0.257585 0.865729
C5    C     C_R   0.045322 0.499461 0.472040 0.049533
C6    C     C_R   0.089760 0.414734 0.437964 0.029006
C7    C     C_R   0.039225 0.333362 0.402344 -0.187572
C8    C     C_R   0.946983 0.334484 0.406447 -0.232772
C9    C     C_R   0.185018 0.580496 0.511663 -0.273536
C10   C     C_R   0.230149 0.497111 0.481044 -0.162103
C11   C     C_R   0.183293 0.414057 0.439686 -0.071484
C12   C     C_3   0.600333 0.450283 0.934084 0.045726
C13   C     C_R   0.549743 0.798807 0.413709 -0.071158
C14   C     C_R   0.549914 0.202763 0.413897 -0.086235
C15   C     C_R   0.450775 0.797331 0.586815 -0.067344
C16   C     C_R   0.450194 0.201268 0.586159 0.014624
C17   C     C_R   0.449758 0.898053 0.589124 0.014849
C18   C     C_R   0.449303 0.100560 0.588612 0.014335
C19   C     C_R   0.673336 0.500517 0.496476 0.873112
C20   C     C_R   0.500392 0.949431 0.500408 0.085549
C21   C     C_R   0.500273 0.050714 0.500274 0.071843
C22   C     C_R   0.551059 0.899569 0.411728 0.017992
C23   C     C_R   0.811702 0.417764 0.451021 -0.279761
C24   C     C_R   0.551090 0.102092 0.411759 0.015549
C25   C     C_R   0.399524 0.948360 0.677458 -0.218185
C26   C     C_R   0.399283 0.048793 0.677177 -0.187434
C27   C     C_R   0.601527 0.051832 0.323644 -0.214753
C28   C     C_R   0.601479 0.951388 0.323594 -0.211758
C29   C     C_R   0.506741 0.500025 0.742341 0.817734
C30   C     C_3   0.501922 0.604777 0.071813 -0.398580
C31   C     C_3   0.421566 0.445638 0.068004 -0.386810
C32   C     C_3   0.502160 0.604377 0.929667 -0.414682
C33   C     C_3   0.426456 0.444908 0.924647 -0.419366
C34   C     C_R   0.768538 0.501521 0.485327 -0.065485
C35   C     C_3   0.590805 0.453361 0.081298 -0.433848
C36   C     C_3   0.502839 0.500651 0.121733 0.131362
C37   C     C_3   0.511671 0.499791 0.879328 0.114318
C38   C     C_2   0.231394 0.328537 0.394777 0.926359
C39   C     C_R   0.691213 0.501480 0.906095 0.071305
C40   C     C_R   0.768981 0.465287 0.965183 -0.154200
C41   C     C_R   0.852451 0.508111 0.947610 -0.126899
C42   C     C_R   0.860927 0.587835 0.870089 -0.093484
C43   C     C_R   0.786296 0.623196 0.807832 -0.121515
C44   C     C_R   0.702987 0.578830 0.821969 -0.199849
C45   C     C_R   0.816147 0.586301 0.506878 -0.255888
C46   C     C_R   0.607966 0.345237 0.884882 0.097542
C47   C     C_R   0.564033 0.266517 0.942512 -0.181245
C48   C     C_R   0.571925 0.173755 0.895501 -0.155403
C49   C     C_R   0.623361 0.156706 0.789859 -0.121216
C50   C     C_R   0.666481 0.232541 0.730104 -0.118516
C51   C     C_R   0.658920 0.325408 0.776503 -0.077117
C52   C     C_R   0.908237 0.586094 0.504245 0.120799
C53   C     C_R   0.952432 0.501052 0.472531 0.075476
C54   C     C_R   0.903541 0.417393 0.442714 0.125266
C55   C     C_R   0.956624 0.668883 0.535034 -0.234649
H1    H     H_    0.561462 0.645261 0.106994 0.180735
H2    H     H_    0.411606 0.241108 0.653224 0.136899
H3    H     H_    0.360350 0.910055 0.746602 0.139967
H4    H     H_    0.360057 0.085957 0.746223 0.146167
H5    H     H_    0.640880 0.090172 0.254710 0.140200
H6    H     H_    0.640818 0.914263 0.254637 0.139952
H7    H     H_    0.441613 0.642641 0.104928 0.182348
H8    H     H_    0.358984 0.480806 0.097618 0.189766
H9    H     H_    0.438184 0.635139 0.895487 0.180582
H10   H     H_    0.365600 0.479497 0.885836 0.166911
H11   H     H_    0.554630 0.654413 0.897253 0.177661
H12   H     H_    0.418780 0.371247 0.104536 0.194139
H13   H     H_    0.423785 0.370165 0.889848 0.188680
H14   H     H_    0.645271 0.496397 0.126370 0.152541
H15   H     H_    0.598632 0.382136 0.125560 0.152978
H16   H     H_    0.773926 0.352934 0.430506 0.153711
H17   H     H_    0.781716 0.651708 0.529292 0.152793
H18   H     H_    0.923069 0.734338 0.559688 0.143111
H19   H     H_    0.314239 0.272993 0.266759 0.335195
H20   H     H_    0.764675 0.403467 0.026353 0.130373
H21   H     H_    0.910519 0.479646 0.994891 0.134794
H22   H     H_    0.925445 0.621654 0.857163 0.128560
H23   H     H_    0.085814 0.731231 0.563004 0.147617
H24   H     H_    0.793214 0.684838 0.747081 0.121365
H25   H     H_    0.650017 0.605886 0.764741 0.150325
H26   H     H_    0.522278 0.275142 0.023246 0.131261
H27   H     H_    0.537530 0.114879 0.940983 0.136863
H28   H     H_    0.628904 0.084844 0.753375 0.133954
H29   H     H_    0.705515 0.219571 0.646969 0.127805
H30   H     H_    0.692901 0.381959 0.726178 0.135829
H31   H     H_    0.221398 0.644029 0.541911 0.166601
H32   H     H_    0.069958 0.267753 0.372663 0.175465
H33   H     H_    0.909615 0.270364 0.381533 0.144970
H34   H     H_    0.588258 0.758993 0.346520 0.131203
H35   H     H_    0.588658 0.243765 0.346990 0.128684
H36   H     H_    0.412254 0.756376 0.654016 0.130028
N1    N     N_R   0.500070 0.750030 0.500050 -0.102789
N2    N     N_R   0.500070 0.249970 0.500050 -0.104661
O1    O     O_R   0.367860 0.580280 0.500020 -0.622237
O2    O     O_R   0.283266 0.335112 0.286693 -0.821426
O3    O     O_R   0.367860 0.419720 0.500020 -0.597265
O4    O     O_R   0.500000 0.580270 0.314790 -0.634641
O5    O     O_R   0.500000 0.419730 0.314790 -0.621353
O6    O     O_R   0.632160 0.580270 0.499960 -0.631691
O7    O     O_R   0.632160 0.419730 0.499960 -0.638407
O8    O     O_R   0.500030 0.580270 0.685200 -0.640945
O9    O     O_R   0.500030 0.419730 0.685200 -0.618755
O10   O     O_2   0.227036 0.253530 0.453743 -0.644220
Zn1   Zn    Zn3+2 0.500020 0.607200 0.499990 0.929763
Zn2   Zn    Zn3+2 0.500020 0.392800 0.499990 0.958074

loop_
_geom_bond_atom_site_label_1
_geom_bond_atom_site_label_2
_ccdc_geom_bond_type
O3    Zn2   S    
C4    C36   S    
C4    O5    A    
C18   C21   A    
C41   C42   A    
C35   C36   S    
C18   C26   A    
C24   C27   A    
C51   H30   S    
C33   H10   S    
C7    C8    A    
C53   C54   A    
C31   H12   S    
O7    Zn2   S    
O5    Zn2   S    
C3    C9    A    
C5    C53   A    
C27   H5    S    
C5    C6    A    
C43   H24   S    
C17   C20   A    
O9    Zn2   S    
C14   C24   A    
C12   C37   S    
C14   H35   S    
N2    Zn2   S    
C15   N1    A    
C7    H32   S    
C35   H15   S    
C1    O1    A    
C38   O2    S    
C29   O9    A    
C31   C33   S    
C9    C10   A    
C14   N2    A    
C52   C55   A    
C28   H6    S    
O6    Zn1   S    
O1    Zn1   S    
C22   C28   A    
C4    O4    A    
C45   H17   S    
C50   H29   S    
C31   H8    S    
C44   H25   S    
C32   H9    S    
C12   C46   S    
C8    C54   A    
C6    C11   A    
C19   O6    A    
C45   C52   A    
C25   C26   A    
C30   H1    S    
C46   C51   A    
C33   C37   S    
C8    H33   S    
C11   C38   S    
C43   C44   A    
C38   O10   D    
C2    H23   S    
C23   H16   S    
C9    H31   S    
C47   C48   A    
C23   C34   A    
C50   C51   A    
C16   N2    A    
C29   O8    A    
C34   C45   A    
C32   C37   S    
C12   C35   S    
C6    C7    A    
C48   C49   A    
C20   C22   A    
O8    Zn1   S    
C30   H7    S    
C13   N1    A    
C42   C43   A    
C39   C40   A    
C52   C53   A    
C23   C54   A    
C32   H11   S    
C26   H4    S    
C15   C17   A    
C46   C47   A    
C40   C41   A    
C13   H34   S    
H19   O2    S    
C1    C10   S    
C3    C5    A    
C19   C34   S    
C19   O7    A    
C39   C44   A    
C40   H20   S    
C30   C36   S    
C2    C55   A    
C17   C25   A    
C49   H28   S    
C12   C39   S    
C2    C3    A    
C41   H21   S    
C30   C32   S    
C1    O3    A    
C48   H27   S    
C13   C22   A    
C16   H2    S    
C47   H26   S    
O4    Zn1   S    
C10   C11   A    
N1    Zn1   S    
C15   H36   S    
C55   H18   S    
C20   C21   A    
C35   H14   S    
C42   H22   S    
C16   C18   A    
C49   C50   A    
C25   H3    S    
C21   C24   A    
C29   C37   S    
C27   C28   A    
C31   C36   S    
C33   H13   S    
