data_mof_unit_23369.cif
_audit_creation_date              2012-12-10T16:56:32-0500
_audit_creation_method            fapswitch 2.2
_symmetry_space_group_name_H-M    P1
_symmetry_Int_Tables_number       1
_space_group_crystal_system       triclinic
_cell_length_a                    7.803092
_cell_length_b                    8.627825
_cell_length_c                    15.698018
_cell_angle_alpha                 91.716607
_cell_angle_beta                  85.344419
_cell_angle_gamma                 93.041796
_cell_volume                      1051.52846531

loop_
_atom_site_label
_atom_site_type_symbol
_atom_type_description
_atom_site_fract_x
_atom_site_fract_y
_atom_site_fract_z
_atom_type_partial_charge
C1    C     C_R   0.544525 0.793933 0.498004 0.923173
C2    C     C_R   0.455474 0.206067 0.501996 0.923173
C3    C     C_R   0.501391 0.500297 0.661879 0.888446
C4    C     C_R   0.498609 0.499703 0.338121 0.888445
C5    C     C_2   0.565427 0.956018 0.508708 -0.102054
C6    C     C_2   0.434573 0.043982 0.491292 -0.102054
C7    C     C_3   0.538187 0.645011 0.029838 -0.255672
C8    C     C_3   0.461812 0.354990 0.970162 -0.255674
C9    C     C_3   0.656840 0.547277 0.968855 0.074806
C10   C     C_3   0.343159 0.452723 0.031145 0.074808
C11   C     C_1   0.504264 0.500150 0.750612 -0.144811
C12   C     C_1   0.495736 0.499851 0.249388 -0.144810
C13   C     C_3   0.383734 0.597399 0.976412 -0.249493
C14   C     C_3   0.616265 0.402602 0.023588 -0.249495
C15   C     C_3   0.504461 0.500309 0.916745 0.178397
C16   C     C_3   0.495538 0.499692 0.083255 0.178397
C17   C     C_1   0.505346 0.500140 0.825866 0.015209
C18   C     C_1   0.494653 0.499860 0.174134 0.015210
H1    H     H_    0.570052 0.763216 0.055818 0.149022
H2    H     H_    0.429947 0.236785 0.944182 0.149022
H3    H     H_    0.711761 0.323746 0.044518 0.154115
H4    H     H_    0.288238 0.676255 0.955482 0.154115
N1    N     N_2   0.950320 0.457950 0.477300 -0.001870
N2    N     N_2   0.049680 0.542050 0.522700 -0.001872
O1    O     O_R   0.389250 0.738570 0.505570 -0.600693
O2    O     O_R   0.610750 0.261430 0.494430 -0.600693
O3    O     O_R   0.678390 0.711630 0.491020 -0.624926
O4    O     O_R   0.321610 0.288370 0.508980 -0.624926
O5    O     O_R   0.355460 0.513480 0.630490 -0.623362
O6    O     O_R   0.644540 0.486520 0.369510 -0.623360
O7    O     O_R   0.644600 0.486540 0.615950 -0.593113
O8    O     O_R   0.355400 0.513460 0.384050 -0.593112
Zn1   Zn    Zn3+2 0.306940 0.517990 0.509710 0.982777
Zn2   Zn    Zn3+2 0.693060 0.482010 0.490290 0.982777
C19   C     C_2   0.834928 0.600791 0.935721 0.356463
H5    H     H_    0.930428 0.632854 0.980440 0.050614
O9    O     O_2   0.873609 0.608700 0.859043 -0.576106
C20   C     C_2   0.165070 0.399213 0.064280 0.356466
H6    H     H_    0.069567 0.367152 0.019562 0.050614
O10   O     O_2   0.126390 0.391309 0.140957 -0.576109
N3    N     N_3   0.716988 0.018033 0.547319 -0.432817
H7    H     H_    0.723590 0.964243 0.605715 0.181613
H8    H     H_    0.825337 0.990029 0.507346 0.187613
N4    N     N_3   0.283012 0.981967 0.452681 -0.432815
H9    H     H_    0.276408 0.035757 0.394286 0.181613
H10   H     H_    0.174663 0.009969 0.492655 0.187613
N5    N     N_3   0.032223 0.354273 0.420765 -0.312796
H11   H     H_    0.998229 0.379045 0.359811 0.206995
H12   H     H_    0.978171 0.243859 0.435090 0.168468
N6    N     N_3   0.967777 0.645717 0.579240 -0.312797
H13   H     H_    0.001769 0.620936 0.640192 0.206998
H14   H     H_    0.021830 0.756133 0.564921 0.168467

loop_
_geom_bond_atom_site_label_1
_geom_bond_atom_site_label_2
_ccdc_geom_bond_type
C13   H4    S    
C3    O7    A    
C9    C14   S    
C7    C9    S    
N2    Zn1   S    
C4    C12   S    
C2    O4    A    
N3    H7    S    
N6    H14   S    
N5    H11   S    
C10   C20   S    
N1    N2    D    
N1    Zn2   S    
C1    O3    A    
O8    Zn1   S    
N6    H13   S    
C9    C15   S    
O7    Zn2   S    
C2    O2    A    
C10   C16   S    
C1    O1    A    
N3    H8    S    
C3    O5    A    
C4    O8    A    
C8    H2    S    
C1    C5    S    
C14   H3    S    
C16   C18   S    
C7    C16   S    
C20   O10   D    
N4    H10   S    
O4    Zn1   S    
C8    C15   S    
C7    H1    S    
C13   C15   S    
O3    Zn2   S    
N2    N6    S    
C5    C6    D    
C14   C16   S    
C3    C11   S    
O6    Zn2   S    
C9    C19   S    
O5    Zn1   S    
C7    C13   S    
N1    N5    S    
N4    H9    S    
N5    H12   S    
C12   C18   T    
C15   C17   S    
C5    N3    S    
C11   C17   T    
C6    N4    S    
C19   H5    S    
C8    C14   S    
C19   O9    D    
O2    Zn2   S    
C8    C10   S    
C4    O6    A    
C2    C6    S    
O1    Zn1   S    
C10   C13   S    
C20   H6    S    
