data_mof_unit_52322.cif
_audit_creation_date              2012-12-11T14:39:26-0500
_audit_creation_method            fapswitch 2.2
_symmetry_space_group_name_H-M    P1
_symmetry_Int_Tables_number       1
_space_group_crystal_system       triclinic
_cell_length_a                    8.292735
_cell_length_b                    15.080915
_cell_length_c                    17.396617
_cell_angle_alpha                 99.367692
_cell_angle_beta                  97.656306
_cell_angle_gamma                 99.416971
_cell_volume                      2088.95678283

loop_
_atom_site_label
_atom_site_type_symbol
_atom_type_description
_atom_site_fract_x
_atom_site_fract_y
_atom_site_fract_z
_atom_type_partial_charge
Ba1   Ba    Ba6+2 0.844730 0.540500 0.462170 1.757937
Ba2   Ba    Ba6+2 0.345110 0.459580 0.537840 1.730932
C1    C     C_3   0.576499 0.840667 0.269158 -0.256509
C2    C     C_3   0.379690 0.504521 0.216553 0.031569
C3    C     C_2   0.307373 0.506683 0.133052 -0.099221
C4    C     C_3   0.081622 0.788699 0.259261 0.757223
C5    C     C_2   0.141393 0.481074 0.109226 0.042470
C6    C     C_2   0.034788 0.455610 0.169651 -0.078028
C7    C     C_1   0.100586 0.465445 0.245683 0.088648
C8    C     C_R   0.893555 0.456615 0.856582 -0.082988
C9    C     C_R   0.825457 0.447512 0.777462 0.075282
C10   C     C_R   0.084504 0.526833 0.749808 0.062063
C11   C     C_R   0.153116 0.536966 0.830393 -0.093633
C12   C     C_3   0.494288 0.739836 0.241738 0.682996
C13   C     C_R   0.059311 0.500431 0.884530 0.034111
C14   C     C_2   0.062660 0.472975 0.024981 -0.046782
C15   C     C_2   0.136198 0.511321 0.969592 -0.056619
C16   C     C_3   0.027696 0.846233 0.199869 -0.182193
C17   C     C_R   0.921751 0.479694 0.723898 -0.229718
C18   C     C_R   0.756991 0.236488 0.537637 -0.172909
C19   C     C_R   0.861993 0.178065 0.559311 0.106323
C20   C     C_R   0.802806 0.083366 0.544388 -0.124814
C21   C     C_R   0.639193 0.045466 0.504412 0.018931
C22   C     C_R   0.544808 0.106495 0.474565 -0.055066
C23   C     C_3   0.426838 0.292981 0.279397 0.923316
C24   C     C_R   0.604364 0.200513 0.489644 0.022058
C25   C     C_R   0.407592 0.907386 0.448820 -0.090180
C26   C     C_R   0.342503 0.814131 0.435467 -0.011575
C27   C     C_R   0.592758 0.788182 0.509943 0.091647
C28   C     C_3   0.284913 0.760062 0.661094 0.932077
C29   C     C_R   0.658994 0.882141 0.523130 -0.132726
C30   C     C_R   0.570136 0.943820 0.490365 0.011337
C31   C     C_R   0.439833 0.754081 0.461204 -0.213489
C32   C     C_3   0.243364 0.857109 0.681245 1.011040
C33   C     C_3   0.986532 0.249765 0.354840 0.588822
C34   C     C_3   0.515384 0.275512 0.207771 0.288575
C35   C     C_3   0.915957 0.146059 0.335543 0.554392
C36   C     C_3   0.780729 0.675324 0.703708 0.329586
C37   C     C_3   0.840810 0.715032 0.791517 0.131293
C38   C     C_3   0.134272 0.285305 0.751935 0.353291
C39   C     C_3   0.131716 0.260404 0.833598 0.223464
C40   C     C_3   0.569285 0.223525 0.712273 0.638734
C41   C     C_3   0.495777 0.129318 0.728103 0.264972
C42   C     C_2   0.252469 0.512893 0.270899 -0.231085
H1    H     H_    0.877174 0.642617 0.678703 -0.006623
H2    H     H_    0.047153 0.911163 0.685631 0.321613
H3    H     H_    0.841731 0.305264 0.417576 0.283217
H4    H     H_    0.119932 0.257863 0.358000 0.085191
H5    H     H_    0.696470 0.145743 0.279319 0.345182
H6    H     H_    0.966754 0.116163 0.385719 0.074594
H7    H     H_    0.920301 0.128276 0.222126 0.316909
H8    H     H_    0.665115 0.623993 0.696481 0.051759
H9    H     H_    0.670144 0.848524 0.323017 0.100509
H10   H     H_    0.971638 0.751102 0.799959 0.148496
H11   H     H_    0.713592 0.630321 0.843104 0.311191
H12   H     H_    0.490018 0.323601 0.167231 -0.017288
H13   H     H_    0.766256 0.766320 0.812833 0.072090
H14   H     H_    0.432182 0.743095 0.130384 0.311052
H15   H     H_    0.483692 0.883361 0.283355 0.075393
H16   H     H_    0.216577 0.211789 0.233183 0.318246
H17   H     H_    0.397187 0.403202 0.346689 0.289211
H18   H     H_    0.372601 0.182005 0.125866 0.317317
H19   H     H_    0.650259 0.289137 0.227567 0.090401
H20   H     H_    0.638874 0.866377 0.222295 0.118169
H21   H     H_    0.088403 0.832935 0.147058 0.101772
H22   H     H_    0.244548 0.338394 0.753849 0.078363
H23   H     H_    0.259308 0.553010 0.986548 0.080268
H24   H     H_    0.023951 0.315374 0.736777 -0.070065
H25   H     H_    0.096551 0.316263 0.874264 -0.042447
H26   H     H_    0.036919 0.197772 0.829026 0.124975
H27   H     H_    0.356823 0.304110 0.888149 0.313172
H28   H     H_    0.788558 0.238115 0.771981 0.299167
H29   H     H_    0.511824 0.227003 0.651636 0.010899
H30   H     H_    0.523967 0.150141 0.842399 0.359276
H31   H     H_    0.518274 0.076245 0.680683 0.055489
H32   H     H_    0.109880 0.662512 0.247552 0.275560
H33   H     H_    0.359739 0.121004 0.725888 0.117136
H34   H     H_    0.903018 0.429557 0.150825 0.077765
H35   H     H_    0.813280 0.431293 0.895275 0.056887
H36   H     H_    0.938450 0.432980 0.009663 0.065186
H37   H     H_    0.391779 0.520066 0.092039 0.062031
H38   H     H_    0.283201 0.559104 0.327697 0.020188
H39   H     H_    0.866584 0.472985 0.662798 0.053567
H40   H     H_    0.323761 0.949535 0.429354 0.063050
H41   H     H_    0.218485 0.807324 0.273491 -0.121447
H42   H     H_    0.776590 0.905405 0.561620 0.093773
H43   H     H_    0.427287 0.083579 0.436308 0.072521
H44   H     H_    0.388994 0.681608 0.450257 0.039404
H45   H     H_    0.278580 0.574403 0.851045 0.079084
H46   H     H_    0.801562 0.309768 0.550743 0.068888
H47   H     H_    0.891310 0.828802 0.180994 0.116990
H48   H     H_    0.063962 0.920128 0.226758 0.094615
H49   H     H_    0.495642 0.775320 0.730410 0.280373
H50   H     H_    0.282255 0.678105 0.562091 0.280927
H51   H     H_    0.888337 0.041189 0.562520 0.078740
H52   H     H_    0.432354 0.718678 0.290597 -0.105965
H53   H     H_    0.432562 0.921848 0.762131 0.302394
H54   H     H_    0.420933 0.915108 0.631543 0.265074
O1    O     O_2   0.823140 0.439340 0.307240 -0.436236
O2    O     O_2   0.197922 0.180898 0.552038 -0.498345
O3    O     O_3   0.136738 0.206675 0.696467 -0.609997
O4    O     O_3   0.097070 0.445850 0.405300 -0.463030
O5    O     O_3   0.592380 0.611270 0.541370 -0.508806
O6    O     O_2   0.323920 0.276750 0.459260 -0.467444
O7    O     O_3   0.460700 0.230268 0.329925 -0.634013
O8    O     O_2   0.499360 0.465905 0.782030 -0.513701
O9    O     O_3   0.533591 0.293866 0.767877 -0.622861
O10   O     O_3   0.627590 0.606740 0.357340 -0.472003
O11   O     O_2   0.724265 0.541150 0.224578 -0.438147
O12   O     O_3   0.751258 0.747878 0.666523 -0.589832
O13   O     O_3   0.926742 0.293476 0.294647 -0.675256
O14   O     O_3   0.616874 0.689449 0.223211 -0.579083
O15   O     O_2   0.865800 0.723280 0.540790 -0.382752
O16   O     O_3   0.060870 0.655550 0.397490 -0.465032
O17   O     O_2   0.042161 0.818431 0.476104 -0.396602
O18   O     O_3   0.312642 0.898732 0.759938 -0.734115
O19   O     O_3   0.299881 0.912241 0.628409 -0.741695
O20   O     O_3   0.070879 0.848398 0.673428 -0.672448
O21   O     O_3   0.951011 0.287350 0.428090 -0.749176
O22   O     O_3   0.742541 0.127484 0.328613 -0.738586
O23   O     O_3   0.009637 0.809865 0.326815 -0.611128
O24   O     O_3   0.966899 0.102824 0.267470 -0.752961
O25   O     O_3   0.831319 0.646123 0.836537 -0.759340
O26   O     O_3   0.373539 0.729361 0.174494 -0.758651
O27   O     O_3   0.256290 0.278689 0.250715 -0.819780
O28   O     O_3   0.483357 0.384624 0.316369 -0.743776
O29   O     O_3   0.467616 0.184240 0.167850 -0.732216
O30   O     O_3   0.286064 0.243540 0.864508 -0.702368
O31   O     O_3   0.740433 0.230378 0.715432 -0.804724
O32   O     O_3   0.571578 0.114749 0.800825 -0.710945
O33   O     O_3   0.027609 0.695884 0.224823 -0.670754
O34   O     O_2   0.366580 0.560690 0.692810 -0.481763
O35   O     O_3   0.456821 0.767391 0.672752 -0.828134
O36   O     O_3   0.216873 0.723777 0.581726 -0.688733
O37   O     O_3   0.092650 0.554230 0.594710 -0.471899
O38   O     O_3   0.562120 0.393340 0.642670 -0.488002
O39   O     O_3   0.217258 0.705995 0.712108 -0.664525
O40   O     O_3   0.597340 0.388800 0.458640 -0.456935
O41   O     O_3   0.128850 0.344520 0.602520 -0.466363
P1    P     P_3+3 0.993190 0.413330 0.319190 1.036820
P2    P     P_3+3 0.695930 0.711340 0.564320 1.079254
P3    P     P_3+3 0.117177 0.774229 0.406420 1.024165
P4    P     P_3+3 0.196530 0.586750 0.680820 1.011040
P5    P     P_3+3 0.081028 0.226878 0.601071 1.007818
P6    P     P_3+3 0.582419 0.584381 0.254371 1.053723
P7    P     P_3+3 0.497921 0.273462 0.433161 0.985186
P8    P     P_3+3 0.604866 0.400742 0.744035 0.954358

loop_
_geom_bond_atom_site_label_1
_geom_bond_atom_site_label_2
_ccdc_geom_bond_type
C32   O20   S    
C20   H51   S    
C33   O21   S    
Ba1   O1    S    
Ba1   O10   S    
C23   O7    S    
H28   O31   S    
C1    H20   S    
C16   H21   S    
C12   O14   S    
C9    C17   A    
C4    H41   S    
Ba2   O41   S    
O16   P3    S    
H16   O27   S    
C33   C35   S    
C31   H44   S    
C22   C24   A    
C42   H38   S    
C8    C13   A    
C36   C37   S    
H32   O33   S    
H5    O22   S    
C36   H8    S    
O7    P7    S    
C32   O18   S    
C37   H13   S    
C27   C31   A    
C37   O25   S    
O14   P6    S    
H2    O20   S    
Ba1   Ba2   S    
C24   P7    S    
C23   O27   S    
C36   H1    S    
H50   O36   S    
C38   O3    S    
C14   C15   D    
C28   O36   S    
O3    P5    S    
Ba2   O34   S    
C21   C22   A    
H17   O28   S    
C36   O12   S    
C34   H19   S    
C40   O9    S    
Ba1   O5    S    
C32   O19   S    
H3    O21   S    
O39   P4    S    
O17   P3    D    
C28   O39   S    
C38   H22   S    
C19   C20   A    
C6    H34   S    
Ba2   P4    S    
C39   O30   S    
Ba1   O15   S    
C17   H39   S    
C33   H4    S    
O5    P2    S    
C12   H52   S    
O13   P1    S    
C41   H31   S    
C4    C16   S    
H11   O25   S    
C15   H23   S    
C12   O26   S    
C28   C32   S    
Ba2   O40   S    
O6    P7    D    
C5    C6    S    
O2    P5    D    
C3    C5    D    
C6    C7    D    
C2    C42   S    
C18   H46   S    
Ba2   O38   S    
O8    P8    D    
C14   H36   S    
O12   P2    S    
C23   O28   S    
C34   H12   S    
O9    P8    S    
O41   P5    S    
C29   C30   A    
Ba2   O6    S    
C28   O35   S    
C27   P2    S    
O4    P1    S    
C18   C19   A    
H53   O18   S    
Ba1   P1    S    
C1    C12   S    
C38   C39   S    
C26   C31   A    
O11   P6    D    
C11   C13   A    
C38   H24   S    
O1    P1    D    
C34   O29   S    
C26   P3    S    
Ba1   O16   S    
C16   H47   S    
C3    H37   S    
C33   O13   S    
H54   O19   S    
C39   H25   S    
O10   P6    S    
C13   C15   S    
C25   H40   S    
C40   H29   S    
C11   H45   S    
C25   C30   A    
H14   O26   S    
O23   P3    S    
C41   O32   S    
C5    C14   S    
C4    O33   S    
C19   P5    S    
C2    C3    S    
C8    H35   S    
C41   H33   S    
H49   O35   S    
Ba2   O37   S    
C10   P4    S    
O40   P7    S    
C16   H48   S    
C21   C30   S    
H30   O32   S    
C27   C29   A    
C35   H6    S    
C1    H9    S    
C9    P8    S    
H18   O29   S    
C35   O22   S    
C18   C24   A    
Ba2   O5    S    
O34   P4    D    
C2    P6    S    
C10   C17   A    
O37   P4    S    
C7    P1    S    
O15   P2    D    
C40   O31   S    
H27   O30   S    
C22   H43   S    
O38   P8    S    
Ba1   P2    S    
C8    C9    A    
Ba1   O40   S    
C23   C34   S    
C35   O24   S    
C37   H10   S    
C10   C11   A    
C40   C41   S    
C25   C26   A    
C29   H42   S    
H7    O24   S    
Ba2   O4    S    
C20   C21   A    
C4    O23   S    
Ba1   O37   S    
Ba1   O4    S    
C7    C42   D    
C39   H26   S    
C1    H15   S    
