data_mof_unit_59487.cif
_audit_creation_date              2012-10-26T21:33:04-0400
_audit_creation_method            fapswitch 2.2
_symmetry_space_group_name_H-M    P1
_symmetry_Int_Tables_number       1
_space_group_crystal_system       triclinic
_cell_length_a                    28.237061
_cell_length_b                    18.452499
_cell_length_c                    17.026386
_cell_angle_alpha                 90.013235
_cell_angle_beta                  60.580854
_cell_angle_gamma                 90.018563
_cell_volume                      7727.51896323

loop_
_atom_site_label
_atom_site_type_symbol
_atom_type_description
_atom_site_fract_x
_atom_site_fract_y
_atom_site_fract_z
_atom_type_partial_charge
Br1   Br    Br    0.572088 0.297630 0.781779 -0.477133
Br2   Br    Br    0.427972 0.702488 0.218159 -0.506332
Br3   Br    Br    0.427930 0.297317 0.217946 -0.508648
Br4   Br    Br    0.572124 0.702599 0.781967 -0.505232
Br5   Br    Br    0.072021 0.797531 0.781836 -0.510019
Br6   Br    Br    0.927874 0.202797 0.217907 -0.513985
Br7   Br    Br    0.927906 0.797569 0.218112 -0.477146
Br8   Br    Br    0.072021 0.202167 0.781685 -0.470247
C1    C     C_R   0.700746 0.266699 0.676518 0.942792
C2    C     C_R   0.922499 0.612656 0.571880 -0.203119
C3    C     C_R   0.072460 0.898194 0.935316 0.941060
C4    C     C_R   0.572361 0.601879 0.935413 0.940082
C5    C     C_R   0.427528 0.398206 0.064677 0.941039
C6    C     C_R   0.427538 0.601802 0.064686 0.941149
C7    C     C_R   0.572344 0.398107 0.935412 0.938517
C8    C     C_R   0.558797 0.997876 0.471554 0.023472
C9    C     C_R   0.470229 0.998669 0.438415 0.023870
C10   C     C_R   0.047280 0.501397 0.508283 0.019466
C11   C     C_R   0.952923 0.498601 0.491038 0.019623
C12   C     C_R   0.546385 0.061586 0.438540 0.051661
C13   C     C_R   0.975861 0.379312 0.421555 -0.201992
C14   C     C_R   0.489413 0.932666 0.454458 0.046405
C15   C     C_R   0.498820 0.063645 0.429659 0.044161
C16   C     C_R   0.529481 0.933532 0.481274 0.045936
C17   C     C_R   0.010761 0.560605 0.540809 0.043217
C18   C     C_R   0.989453 0.439401 0.458449 0.044052
C19   C     C_R   0.962624 0.558323 0.534076 0.052995
C20   C     C_R   0.037582 0.441658 0.465242 0.055017
C21   C     C_R   0.613425 0.935448 0.527924 0.071464
C22   C     C_R   0.397873 0.065416 0.428540 0.064235
C23   C     C_R   0.396377 0.933274 0.432784 0.063055
C24   C     C_R   0.024332 0.620715 0.577709 -0.201538
C25   C     C_R   0.632622 0.060993 0.479694 0.063038
C26   C     C_R   0.128740 0.441433 0.492917 0.065544
C27   C     C_R   0.871390 0.558532 0.506684 0.063774
C28   C     C_R   0.891922 0.436322 0.447807 0.068524
C29   C     C_R   0.108184 0.563658 0.551771 0.067625
C30   C     C_R   0.659976 0.935858 0.540644 -0.121880
C31   C     C_R   0.343877 0.064947 0.440816 -0.120477
C32   C     C_R   0.343311 0.934680 0.442085 -0.118855
C33   C     C_R   0.670549 0.062466 0.512242 -0.109998
C34   C     C_R   0.169480 0.438503 0.518669 -0.116387
C35   C     C_R   0.539133 0.873111 0.521869 -0.219225
C36   C     C_R   0.830597 0.561478 0.481073 -0.115780
C37   C     C_R   0.841406 0.435611 0.448154 -0.127031
C38   C     C_R   0.158646 0.564365 0.551605 -0.126683
C39   C     C_R   0.683727 0.000262 0.541591 -0.291175
C40   C     C_R   0.319080 0.999899 0.443161 -0.287903
C41   C     C_R   0.184358 0.500126 0.546633 -0.280540
C42   C     C_R   0.815688 0.499857 0.453157 -0.282611
C43   C     C_R   0.601246 0.998266 0.493776 0.072031
C44   C     C_R   0.421648 0.999211 0.432566 0.075188
C45   C     C_R   0.094300 0.501989 0.518433 0.077652
C46   C     C_R   0.478434 0.128101 0.412953 -0.204795
C47   C     C_R   0.905855 0.497997 0.481040 0.077978
C48   C     C_R   0.122232 0.387292 0.441033 -0.173326
C49   C     C_R   0.877898 0.612605 0.558615 -0.171551
C50   C     C_R   0.928101 0.377819 0.416744 -0.157750
C51   C     C_R   0.072012 0.622173 0.582745 -0.157686
C52   C     C_R   0.579187 0.874806 0.546955 -0.153507
C53   C     C_R   0.429327 0.128833 0.411873 -0.156943
C54   C     C_R   0.425596 0.868703 0.423479 -0.150107
C55   C     C_R   0.625745 0.118924 0.432004 -0.171925
C56   C     C_R   0.469090 0.867850 0.439869 -0.219142
C57   C     C_R   0.582499 0.120334 0.414708 -0.208294
C58   C     C_R   0.721083 0.266706 0.953217 0.127494
C59   C     C_R   0.279125 0.733840 0.046553 0.120995
C60   C     C_R   0.278748 0.266836 0.046911 0.123418
C61   C     C_R   0.299292 0.733376 0.323499 0.922467
C62   C     C_R   0.721534 0.732589 0.952732 0.126619
C63   C     C_R   0.220844 0.766080 0.953473 0.120918
C64   C     C_R   0.778273 0.232253 0.047462 0.126912
C65   C     C_R   0.778709 0.766997 0.047011 0.127422
C66   C     C_R   0.220512 0.234556 0.953790 0.121758
C67   C     C_R   0.744523 0.197876 0.944891 -0.167864
C68   C     C_R   0.221899 0.735330 0.092497 -0.176366
C69   C     C_R   0.221515 0.265794 0.092747 -0.179004
C70   C     C_R   0.744963 0.801422 0.944489 -0.171045
C71   C     C_R   0.278070 0.764583 0.907528 -0.177108
C72   C     C_R   0.299240 0.266726 0.323514 0.900129
C73   C     C_R   0.754805 0.301062 0.055828 -0.170936
C74   C     C_R   0.755287 0.698157 0.055241 -0.169343
C75   C     C_R   0.277735 0.235634 0.907979 -0.176741
C76   C     C_R   0.772583 0.180841 0.991401 -0.176579
C77   C     C_R   0.193242 0.751221 0.046665 -0.167118
C78   C     C_R   0.192872 0.249869 0.046879 -0.168801
C79   C     C_R   0.773007 0.818439 0.991027 -0.177842
C80   C     C_R   0.306727 0.748694 0.953360 -0.168070
C81   C     C_R   0.726758 0.318100 0.009313 -0.177500
C82   C     C_R   0.727237 0.681143 0.008709 -0.178268
C83   C     C_R   0.700794 0.733202 0.676504 0.903048
C84   C     C_R   0.306371 0.251539 0.953832 -0.167285
C85   C     C_R   0.643288 0.327378 0.945770 -0.231467
C86   C     C_R   0.356569 0.672855 0.054359 -0.236824
C87   C     C_R   0.356357 0.327486 0.054524 -0.236947
C88   C     C_R   0.643541 0.672240 0.945551 -0.230860
C89   C     C_R   0.143410 0.827100 0.945663 -0.235980
C90   C     C_R   0.856307 0.171961 0.054586 -0.230020
C91   C     C_R   0.856597 0.827525 0.054330 -0.231656
C92   C     C_R   0.143157 0.173354 0.945930 -0.235419
C93   C     C_R   0.613199 0.341932 0.901296 -0.124795
C94   C     C_R   0.200706 0.766621 0.676504 0.917507
C95   C     C_R   0.386783 0.658191 0.098668 -0.122322
C96   C     C_R   0.386675 0.341942 0.098707 -0.124101
C97   C     C_R   0.613315 0.657930 0.901241 -0.125194
C98   C     C_R   0.113206 0.841790 0.901343 -0.122116
C99   C     C_R   0.886597 0.157802 0.098829 -0.124686
C100  C     C_R   0.886752 0.841981 0.098720 -0.124961
C101  C     C_R   0.113079 0.158391 0.901463 -0.125461
C102  C     C_R   0.625684 0.307407 0.821238 0.206871
C103  C     C_R   0.374362 0.692692 0.178725 0.208033
C104  C     C_R   0.374243 0.307411 0.178726 0.209835
C105  C     C_R   0.799186 0.233161 0.323512 0.896147
C106  C     C_R   0.625788 0.692516 0.821239 0.209491
C107  C     C_R   0.125628 0.807297 0.821280 0.207764
C108  C     C_R   0.874157 0.192474 0.178773 0.209516
C109  C     C_R   0.874277 0.807435 0.178749 0.206743
C110  C     C_R   0.125561 0.192733 0.821296 0.206749
C111  C     C_R   0.676603 0.276173 0.773399 -0.124920
C112  C     C_R   0.323427 0.723859 0.226685 -0.119034
C113  C     C_R   0.323233 0.276451 0.226796 -0.110523
C114  C     C_R   0.676770 0.723563 0.773295 -0.110648
C115  C     C_R   0.176559 0.776116 0.773324 -0.117962
C116  C     C_R   0.799242 0.766721 0.323482 0.940123
C117  C     C_R   0.823164 0.223449 0.226750 -0.107925
C118  C     C_R   0.823335 0.776258 0.226636 -0.123611
C119  C     C_R   0.176481 0.223998 0.773376 -0.124894
C120  C     C_R   0.707539 0.260904 0.816759 -0.242690
C121  C     C_R   0.292476 0.739340 0.183473 -0.235285
C122  C     C_R   0.292107 0.261304 0.183789 -0.245019
C123  C     C_R   0.707869 0.738531 0.816448 -0.254543
C124  C     C_R   0.207497 0.760606 0.816549 -0.235812
C125  C     C_R   0.792006 0.238272 0.183674 -0.254536
C126  C     C_R   0.792326 0.761096 0.183365 -0.243777
C127  C     C_R   0.200680 0.233431 0.676520 0.941042
C128  C     C_R   0.207333 0.239705 0.816710 -0.236228
C129  C     C_R   0.689813 0.283977 0.905358 0.076819
C130  C     C_R   0.310204 0.716595 0.094769 0.076800
C131  C     C_R   0.309852 0.284001 0.095086 0.077661
C132  C     C_R   0.690178 0.715434 0.905002 0.077573
C133  C     C_R   0.189767 0.783342 0.905258 0.076792
C134  C     C_R   0.809659 0.215118 0.095150 0.077476
C135  C     C_R   0.810026 0.784201 0.094802 0.076794
C136  C     C_R   0.189499 0.217157 0.905519 0.077550
C137  C     C_R   0.696876 0.127951 0.516748 0.905578
C138  C     C_R   0.077669 0.387242 0.427635 -0.205304
C139  C     C_R   0.308615 0.870594 0.465123 0.897323
C140  C     C_R   0.308959 0.129420 0.464255 0.894459
C141  C     C_R   0.691585 0.870957 0.532789 0.897317
C142  C     C_R   0.191029 0.629674 0.536313 0.893597
C143  C     C_R   0.808983 0.370310 0.463620 0.895262
C144  C     C_R   0.803443 0.627703 0.481787 0.904244
C145  C     C_R   0.196594 0.372289 0.518099 0.904935
C146  C     C_R   0.072415 0.101858 0.935370 0.939276
C147  C     C_R   0.927649 0.898111 0.064581 0.938009
C148  C     C_R   0.927604 0.101838 0.064627 0.939807
H1    H     H_    0.715544 0.001004 0.559826 0.195409
H2    H     H_    0.417666 0.179772 0.395292 0.201465
H3    H     H_    0.416100 0.817868 0.403189 0.202642
H4    H     H_    0.654056 0.163477 0.405238 0.174807
H5    H     H_    0.076386 0.344014 0.386224 0.138485
H6    H     H_    0.923762 0.655783 0.613405 0.142789
H7    H     H_    0.000665 0.331410 0.397319 0.148884
H8    H     H_    0.999581 0.668667 0.601751 0.150361
H9    H     H_    0.514217 0.824954 0.538598 0.150863
H10   H     H_    0.498568 0.179590 0.403925 0.150556
H11   H     H_    0.487925 0.816200 0.437227 0.152278
H12   H     H_    0.278227 0.000040 0.452558 0.201187
H13   H     H_    0.579322 0.167171 0.379631 0.144123
H14   H     H_    0.710241 0.372135 0.016324 0.130818
H15   H     H_    0.350738 0.749133 0.915881 0.146649
H16   H     H_    0.350383 0.250752 0.916476 0.148618
H17   H     H_    0.710711 0.627110 0.015648 0.130779
H18   H     H_    0.149231 0.750784 0.084143 0.148536
H19   H     H_    0.789135 0.126825 0.984364 0.130751
H20   H     H_    0.789514 0.872483 0.984104 0.131073
H21   H     H_    0.148859 0.250600 0.084226 0.144521
H22   H     H_    0.740301 0.156556 0.903574 0.136494
H23   H     H_    0.218993 0.499330 0.557855 0.198863
H24   H     H_    0.199059 0.722868 0.163737 0.138234
H25   H     H_    0.198680 0.278599 0.163904 0.129160
H26   H     H_    0.740718 0.842772 0.903256 0.137042
H27   H     H_    0.300911 0.777043 0.836287 0.136521
H28   H     H_    0.759037 0.342394 0.097123 0.136731
H29   H     H_    0.759527 0.656813 0.096483 0.136437
H30   H     H_    0.300579 0.222810 0.836837 0.138125
H31   H     H_    0.630556 0.350266 0.011727 0.166767
H32   H     H_    0.367934 0.648106 0.989783 0.168953
H33   H     H_    0.367751 0.352204 0.989927 0.169436
H34   H     H_    0.781008 0.500655 0.442059 0.198118
H35   H     H_    0.630836 0.649318 0.011477 0.167655
H36   H     H_    0.132044 0.851841 0.010243 0.169415
H37   H     H_    0.868981 0.148976 0.988695 0.168386
H38   H     H_    0.869311 0.850432 0.988395 0.167025
H39   H     H_    0.131726 0.148769 0.010611 0.168827
H40   H     H_    0.746403 0.233619 0.780677 0.169398
H41   H     H_    0.254417 0.768461 0.219118 0.166805
H42   H     H_    0.253931 0.232430 0.219545 0.164726
H43   H     H_    0.746811 0.765633 0.780261 0.165529
H44   H     H_    0.245551 0.731472 0.780909 0.166133
H45   H     H_    0.152366 0.345550 0.407184 0.167033
H46   H     H_    0.753049 0.265317 0.219899 0.164912
H47   H     H_    0.753434 0.733865 0.219485 0.168578
H48   H     H_    0.245394 0.268852 0.781094 0.166638
H49   H     H_    0.847728 0.654271 0.592624 0.169379
H50   H     H_    0.920844 0.331264 0.385444 0.192841
H51   H     H_    0.079222 0.668729 0.614087 0.193140
H52   H     H_    0.581606 0.828645 0.583853 0.193518
O1    O     O_R   0.746490 0.236330 0.638080 -0.642231
O2    O     O_R   0.325830 0.813840 0.483730 -0.639773
O3    O     O_R   0.325830 0.186160 0.483730 -0.636568
O4    O     O_R   0.674170 0.813840 0.516270 -0.634581
O5    O     O_R   0.174170 0.686160 0.516270 -0.629214
O6    O     O_R   0.825830 0.313840 0.483730 -0.627908
O7    O     O_R   0.825830 0.686160 0.483730 -0.624382
O8    O     O_R   0.174170 0.313840 0.516270 -0.624030
O9    O     O_R   0.739960 0.127620 0.525000 -0.631291
O10   O     O_R   0.260040 0.872380 0.475000 -0.626455
O11   O     O_R   0.260040 0.127620 0.475000 -0.625202
O12   O     O_R   0.253510 0.763670 0.361920 -0.644616
O13   O     O_R   0.739960 0.872380 0.525000 -0.623527
O14   O     O_R   0.239960 0.627620 0.525000 -0.624533
O15   O     O_R   0.760040 0.372380 0.475000 -0.625689
O16   O     O_R   0.760040 0.627620 0.475000 -0.632934
O17   O     O_R   0.239960 0.372380 0.525000 -0.631920
O18   O     O_R   0.680700 0.294870 0.629350 -0.566975
O19   O     O_R   0.319300 0.705130 0.370650 -0.577508
O20   O     O_R   0.319300 0.294870 0.370650 -0.582776
O21   O     O_R   0.680700 0.705130 0.629350 -0.580026
O22   O     O_R   0.180700 0.794870 0.629350 -0.577036
O23   O     O_R   0.253510 0.236330 0.361920 -0.660951
O24   O     O_R   0.819300 0.205130 0.370650 -0.581717
O25   O     O_R   0.819300 0.794870 0.370650 -0.567577
O26   O     O_R   0.180700 0.205130 0.629350 -0.567438
O27   O     O_R   0.062020 0.072840 0.007170 -0.630755
O28   O     O_R   0.937980 0.927160 0.992830 -0.632833
O29   O     O_R   0.937980 0.072840 0.992830 -0.632916
O30   O     O_R   0.062020 0.927160 0.007170 -0.631140
O31   O     O_R   0.562020 0.572840 0.007170 -0.632980
O32   O     O_R   0.437980 0.427160 0.992830 -0.631051
O33   O     O_R   0.437980 0.572840 0.992830 -0.631335
O34   O     O_R   0.746490 0.763670 0.638080 -0.660979
O35   O     O_R   0.562020 0.427160 0.007170 -0.632965
O36   O     O_R   0.947860 0.073950 0.109290 -0.575088
O37   O     O_R   0.052140 0.926050 0.890710 -0.574538
O38   O     O_R   0.052140 0.073950 0.890710 -0.576023
O39   O     O_R   0.947860 0.926050 0.109290 -0.576339
O40   O     O_R   0.447860 0.573950 0.109290 -0.574925
O41   O     O_R   0.552140 0.426050 0.890710 -0.576303
O42   O     O_R   0.552140 0.573950 0.890710 -0.575471
O43   O     O_R   0.447860 0.426050 0.109290 -0.575264
O44   O     O_R   0.246490 0.736330 0.638080 -0.646745
O45   O     O_R   0.753510 0.263670 0.361920 -0.664322
O46   O     O_R   0.753510 0.736330 0.361920 -0.644259
O47   O     O_R   0.246490 0.263670 0.638080 -0.643336
O48   O     O_R   0.674170 0.186160 0.516270 -0.627726
Zn1   Zn    Zn3+2 0.792340 0.208750 0.507670 0.995719
Zn2   Zn    Zn3+2 0.494040 0.500000 0.919480 1.034289
Zn3   Zn    Zn3+2 0.005960 0.000000 0.080520 1.034845
Zn4   Zn    Zn3+2 0.994040 0.000000 0.919480 1.033308
Zn5   Zn    Zn3+2 0.207660 0.791250 0.492330 0.997009
Zn6   Zn    Zn3+2 0.207660 0.208750 0.492330 0.997587
Zn7   Zn    Zn3+2 0.792340 0.791250 0.507670 0.996486
Zn8   Zn    Zn3+2 0.292340 0.708750 0.507670 0.987980
Zn9   Zn    Zn3+2 0.707660 0.291250 0.492330 0.991372
Zn10  Zn    Zn3+2 0.707660 0.708750 0.492330 0.990449
Zn11  Zn    Zn3+2 0.292340 0.291250 0.507670 0.989634
Zn12  Zn    Zn3+2 0.505960 0.500000 0.080520 1.030522

loop_
_geom_bond_atom_site_label_1
_geom_bond_atom_site_label_2
_ccdc_geom_bond_type
C2    C19   A    
C70   C79   A    
C88   C97   A    
C55   C57   A    
C62   C132  S    
C13   H7    S    
C115  C124  A    
C62   C70   A    
C61   O12   A    
Br7   C109  S    
O12   Zn5   S    
C26   C34   A    
C8    C43   A    
O41   Zn2   S    
O48   Zn9   S    
C104  C113  A    
C137  O9    A    
C63   C71   A    
C21   C30   A    
Br8   C110  S    
C126  H47   S    
C3    O30   A    
C26   C48   A    
C75   C84   A    
C10   C17   A    
C38   C41   A    
C59   C80   A    
C36   C144  S    
O47   Zn11  S    
C83   O21   A    
C94   O44   A    
C37   C42   A    
C88   H35   S    
C91   C135  A    
C72   O20   A    
C108  C117  A    
C119  C127  S    
C81   H14   S    
C113  C122  A    
C56   H11   S    
C28   C50   A    
C15   C46   A    
C39   H1    S    
C4    C97   S    
C51   H51   S    
C67   C76   A    
C92   H39   S    
C105  C117  S    
C50   H50   S    
C117  C125  A    
C49   H49   S    
C124  H44   S    
C4    O42   A    
C23   C32   A    
C11   C18   A    
C33   C137  S    
C95   C103  A    
O10   Zn5   S    
C142  O5    A    
O37   Zn4   S    
C67   H22   S    
C65   C79   A    
C54   C56   A    
C123  C132  A    
C148  O36   A    
C10   C45   A    
C126  C135  A    
C63   C77   A    
C89   H36   S    
C125  C134  A    
C121  C130  A    
C146  O38   A    
C1    O1    A    
C59   C130  S    
C83   C114  S    
C40   H12   S    
C31   C140  S    
O19   Zn8   S    
C69   H25   S    
O34   Zn7   S    
C21   C52   A    
O6    Zn1   S    
C1    O18   A    
C5    O32   A    
C139  O2    A    
C11   C19   A    
C109  C118  A    
C23   C44   A    
C30   C141  S    
C64   C73   A    
C25   C55   A    
O25   Zn7   S    
C31   C40   A    
C29   C45   A    
C111  C120  A    
C137  O48   A    
C17   C24   A    
C21   C43   A    
O22   Zn5   S    
O4    Zn10  S    
C92   C101  A    
C2    H6    S    
C80   H15   S    
Br5   C107  S    
C141  O4    A    
C142  O14   A    
C23   C54   A    
C120  H40   S    
C62   C82   A    
O36   Zn3   S    
C141  O13   A    
C55   H4    S    
C46   H10   S    
C122  C131  A    
C61   O19   A    
C9    C44   A    
C71   C80   A    
C138  H5    S    
C13   C18   A    
C101  C110  A    
C58   C81   A    
C6    O40   A    
C72   C113  S    
C35   H9    S    
O2    Zn8   S    
O18   Zn9   S    
C5    O43   A    
C144  O7    A    
C7    O35   A    
Br2   C103  S    
O28   Zn4   S    
C107  C115  A    
O33   Zn2   S    
C74   H29   S    
C27   C47   A    
C112  C121  A    
C3    O37   A    
C66   C75   A    
O7    Zn7   S    
C12   C57   A    
O30   Zn3   S    
C34   C145  S    
C105  O45   A    
C119  C128  A    
C116  O46   A    
C92   C136  A    
C140  O3    A    
C85   C93   A    
C96   C104  A    
O44   Zn8   S    
C52   H52   S    
C48   H45   S    
C7    O41   A    
O45   Zn9   S    
C93   C102  A    
C12   C15   A    
C143  O6    A    
C78   H21   S    
C7    C93   S    
C90   C99   A    
C90   H37   S    
O5    Zn5   S    
C103  C112  A    
Br4   C106  S    
C146  O27   A    
C123  H43   S    
C120  C129  A    
C143  O15   A    
C88   C132  A    
C101  C146  S    
O20   Zn11  S    
Br1   C102  S    
C6    O33   A    
C4    O31   A    
C97   C106  A    
O1    Zn1   S    
C82   H17   S    
C83   O34   A    
Br3   C104  S    
C8    C12   A    
C89   C133  A    
C65   C74   A    
C2    C49   A    
O29   Zn4   S    
O3    Zn11  S    
C77   H18   S    
C33   C39   A    
C127  O26   A    
C10   C20   A    
C28   C37   A    
C75   H30   S    
C70   H26   S    
C9    C15   A    
O35   Zn12  S    
C5    C96   S    
C27   C36   A    
Br6   C108  S    
C30   C39   A    
C64   C76   A    
C35   C52   A    
C89   C98   A    
C85   H31   S    
O27   Zn3   S    
C38   C142  S    
O23   Zn6   S    
C91   C100  A    
C69   C78   A    
C147  O39   A    
O24   Zn1   S    
C144  O16   A    
C86   C130  A    
C14   C16   A    
C22   C53   A    
C25   C43   A    
C124  C133  A    
C116  O25   A    
C72   O23   A    
C94   C115  S    
C76   H19   S    
C66   C78   A    
C114  C123  A    
C128  H48   S    
C87   C96   A    
C100  C147  S    
C105  O24   A    
C116  C118  S    
C65   C135  S    
O9    Zn1   S    
C36   C42   A    
C60   C69   A    
C32   C40   A    
C122  H42   S    
C66   C136  S    
O46   Zn10  S    
C20   C138  A    
C32   C139  S    
C24   C51   A    
C87   C131  A    
C100  C109  A    
O11   Zn6   S    
C13   C50   A    
C99   C148  S    
C86   H32   S    
C68   H24   S    
O42   Zn2   S    
C102  C111  A    
C86   C95   A    
O39   Zn3   S    
O21   Zn10  S    
O40   Zn12  S    
C46   C53   A    
C11   C47   A    
C148  O29   A    
C17   C19   A    
C61   C112  S    
C18   C20   A    
C9    C14   A    
C74   C82   A    
C63   C133  S    
C98   C107  A    
C27   C49   A    
C25   C33   A    
C68   C77   A    
O8    Zn6   S    
C29   C51   A    
C128  C136  A    
C139  O10   A    
C64   C134  S    
C53   H2    S    
C79   H20   S    
O16   Zn10  S    
C6    C95   S    
C127  O47   A    
C58   C129  S    
C22   C44   A    
C147  O28   A    
C84   H16   S    
C1    C111  S    
C58   C67   A    
C24   H8    S    
C3    C98   S    
C60   C84   A    
C71   H27   S    
O31   Zn12  S    
C145  O8    A    
C73   C81   A    
C48   C138  A    
C42   H34   S    
C140  O11   A    
C121  H41   S    
C99   C108  A    
O15   Zn9   S    
C85   C129  A    
C87   H33   S    
C34   C41   A    
C14   C56   A    
C106  C114  A    
O26   Zn6   S    
C91   H38   S    
C118  C126  A    
C26   C45   A    
C8    C16   A    
C110  C119  A    
C145  O17   A    
C57   H13   S    
C28   C47   A    
C16   C35   A    
C54   H3    S    
C125  H46   S    
C60   C131  S    
C94   O22   A    
C59   C68   A    
C73   H28   S    
O32   Zn2   S    
C29   C38   A    
O13   Zn7   S    
C37   C143  S    
O43   Zn12  S    
O17   Zn11  S    
O38   Zn4   S    
C90   C134  A    
C22   C31   A    
O14   Zn8   S    
C41   H23   S    
