data_mof_unit_64976.cif
_audit_creation_date              2012-12-10T18:06:03-0500
_audit_creation_method            fapswitch 2.2
_symmetry_space_group_name_H-M    P1
_symmetry_Int_Tables_number       1
_space_group_crystal_system       triclinic
_cell_length_a                    25.997381
_cell_length_b                    25.924063
_cell_length_c                    22.187991
_cell_angle_alpha                 89.999952
_cell_angle_beta                  54.16622
_cell_angle_gamma                 90.000055
_cell_volume                      12123.3011673

loop_
_atom_site_label
_atom_site_type_symbol
_atom_type_description
_atom_site_fract_x
_atom_site_fract_y
_atom_site_fract_z
_atom_type_partial_charge
C1    C     C_R   0.400297 0.250039 0.699500 0.515586
C2    C     C_3   0.230830 0.712756 0.975207 -0.096524
C3    C     C_3   0.246945 0.203658 0.975177 -0.098274
C4    C     C_3   0.746212 0.296089 0.975176 -0.098298
C5    C     C_3   0.253942 0.703966 0.024824 -0.098304
C6    C     C_3   0.253055 0.296341 0.024823 -0.098277
C7    C     C_3   0.747064 0.703619 0.975177 -0.098273
C8    C     C_3   0.689735 0.258977 0.024672 -0.097832
C9    C     C_3   0.310295 0.741184 0.975328 -0.097840
C10   C     C_3   0.310116 0.259740 0.975328 -0.097787
C11   C     C_3   0.689909 0.740136 0.024671 -0.097779
C12   C     C_3   0.189705 0.758817 0.024672 -0.097845
C13   C     C_3   0.230122 0.286627 0.975205 -0.096586
C14   C     C_3   0.810265 0.241022 0.975328 -0.097835
C15   C     C_3   0.810092 0.759864 0.975328 -0.097783
C16   C     C_3   0.189883 0.240259 0.024672 -0.097791
C17   C     C_1   0.639421 0.250049 0.221016 0.014631
C18   C     C_1   0.360579 0.749951 0.778984 0.014632
C19   C     C_1   0.360579 0.250049 0.778984 0.014631
C20   C     C_1   0.639420 0.749951 0.221016 0.014632
C21   C     C_1   0.139421 0.750049 0.221016 0.014646
C22   C     C_1   0.860579 0.249951 0.778984 0.014646
C23   C     C_1   0.860580 0.750049 0.778984 0.014647
C24   C     C_3   0.769972 0.713456 0.024795 -0.096595
C25   C     C_1   0.139420 0.249951 0.221016 0.014646
C26   C     C_3   0.269170 0.787245 0.024793 -0.096513
C27   C     C_3   0.730706 0.212862 0.975207 -0.096524
C28   C     C_3   0.730028 0.786544 0.975205 -0.096584
C29   C     C_3   0.269878 0.213372 0.024795 -0.096575
C30   C     C_3   0.713469 0.250026 0.072987 0.045953
C31   C     C_3   0.286532 0.749974 0.927013 0.045953
C32   C     C_3   0.286531 0.250026 0.927013 0.045952
C33   C     C_R   0.599703 0.749961 0.300499 0.515586
C34   C     C_3   0.713468 0.749974 0.072987 0.045952
C35   C     C_3   0.213468 0.750027 0.072987 0.045955
C36   C     C_3   0.786531 0.249973 0.927013 0.045954
C37   C     C_3   0.786532 0.750027 0.927013 0.045953
C38   C     C_3   0.213468 0.249973 0.072987 0.045954
C39   C     C_1   0.672846 0.250047 0.154173 -0.045614
C40   C     C_1   0.327154 0.749952 0.845827 -0.045613
C41   C     C_1   0.327154 0.250048 0.845827 -0.045613
C42   C     C_1   0.672845 0.749952 0.154173 -0.045612
C43   C     C_1   0.172845 0.750048 0.154173 -0.045603
C44   C     C_R   0.599703 0.250039 0.300499 0.515586
C45   C     C_1   0.827154 0.249952 0.845827 -0.045604
C46   C     C_1   0.827155 0.750048 0.845827 -0.045602
C47   C     C_1   0.172845 0.249952 0.154173 -0.045602
C48   C     C_R   0.300265 0.216519 0.452829 -0.130508
C49   C     C_R   0.699737 0.783484 0.547166 -0.130509
C50   C     C_R   0.699749 0.216500 0.547142 -0.130510
C51   C     C_R   0.300238 0.783518 0.452884 -0.130511
C52   C     C_R   0.800263 0.716516 0.452834 -0.130509
C53   C     C_R   0.199735 0.283481 0.547170 -0.130510
C54   C     C_R   0.199762 0.716482 0.547115 -0.130511
C55   C     C_R   0.400296 0.749961 0.699500 0.515587
C56   C     C_R   0.800251 0.283500 0.452858 -0.130510
C57   C     C_R   0.246887 0.216498 0.452840 -0.129070
C58   C     C_R   0.753115 0.783505 0.547156 -0.129069
C59   C     C_R   0.753127 0.216478 0.547131 -0.129067
C60   C     C_R   0.246860 0.783539 0.452895 -0.129066
C61   C     C_R   0.746885 0.716495 0.452845 -0.129062
C62   C     C_R   0.253113 0.283502 0.547160 -0.129063
C63   C     C_R   0.253140 0.716460 0.547105 -0.129058
C64   C     C_R   0.746873 0.283522 0.452869 -0.129060
C65   C     C_R   0.196329 0.249980 0.500009 0.040570
C66   C     C_R   0.900297 0.750039 0.699500 0.515586
C67   C     C_R   0.803671 0.750020 0.499991 0.040570
C68   C     C_R   0.803671 0.249980 0.499991 0.040567
C69   C     C_R   0.196329 0.750020 0.500009 0.040565
C70   C     C_R   0.696329 0.749980 0.500009 0.040576
C71   C     C_R   0.303671 0.250020 0.499991 0.040576
C72   C     C_R   0.303671 0.749980 0.499991 0.040571
C73   C     C_R   0.696329 0.250020 0.500009 0.040573
C74   C     C_R   0.490135 0.026727 0.452837 -0.133405
C75   C     C_R   0.509865 0.973273 0.547163 -0.133404
C76   C     C_R   0.509865 0.026727 0.547163 -0.133406
C77   C     C_R   0.099703 0.249961 0.300499 0.515585
C78   C     C_R   0.490135 0.973273 0.452837 -0.133408
C79   C     C_R   0.990131 0.526727 0.452840 -0.133399
C80   C     C_R   0.009869 0.473273 0.547160 -0.133400
C81   C     C_R   0.009869 0.526727 0.547160 -0.133402
C82   C     C_R   0.990131 0.473273 0.452840 -0.133401
C83   C     C_R   0.500000 0.946298 0.500000 0.040391
C84   C     C_R   0.500000 0.053702 0.500000 0.040391
C85   C     C_R   1.000000 0.446298 0.500000 0.040393
C86   C     C_R   0.000000 0.553702 0.500000 0.040393
C87   C     C_R   0.640253 0.250034 0.500001 0.511270
C88   C     C_R   0.099704 0.750039 0.300499 0.515587
C89   C     C_R   0.359747 0.749966 0.499999 0.511270
C90   C     C_R   0.359747 0.250034 0.499999 0.511270
C91   C     C_R   0.640253 0.749966 0.500001 0.511271
C92   C     C_R   0.140253 0.750034 0.500001 0.511252
C93   C     C_R   0.859747 0.249966 0.499999 0.511252
C94   C     C_R   0.859747 0.750034 0.499999 0.511253
C95   C     C_R   0.140253 0.249966 0.500001 0.511253
C96   C     C_R   0.500000 0.109794 0.500000 0.506959
C97   C     C_R   0.500000 0.890206 0.500000 0.506958
C98   C     C_R   1.000000 0.609794 0.500000 0.506966
C99   C     C_R   0.900297 0.249961 0.699500 0.515586
C100  C     C_R   1.000000 0.390206 0.500000 0.506967
C101  C     C_R   0.500000 0.390153 0.499999 0.558288
C102  C     C_R   0.500000 0.609846 0.500000 0.558287
C103  C     C_R   1.000000 0.890153 0.499999 0.558238
C104  C     C_R   1.000000 0.109847 0.499999 0.558237
C105  C     C_R   0.517065 0.472947 0.435459 0.072096
C106  C     C_R   0.482934 0.527053 0.564540 0.072096
C107  C     C_R   0.482936 0.472946 0.564539 0.072097
C108  C     C_R   0.517063 0.527053 0.435460 0.072096
C109  C     C_R   0.017207 0.972947 0.435402 0.072108
C110  C     C_3   0.769295 0.287137 0.024793 -0.096535
C111  C     C_R   0.982790 0.027053 0.564598 0.072111
C112  C     C_R   0.982791 0.972947 0.564597 0.072110
C113  C     C_R   0.017208 0.027053 0.435402 0.072109
C114  C     C_R   0.499999 0.553751 0.500000 0.009173
C115  C     C_R   0.500001 0.446249 0.499999 0.009174
C116  C     C_R   0.999999 0.053751 0.500000 0.009122
C117  C     C_R   0.999999 0.946249 0.499999 0.009123
C118  C     C_3   0.246058 0.796034 0.975176 -0.098300
C119  C     C_3   0.753788 0.203910 0.024824 -0.098296
C120  C     C_3   0.752936 0.796382 0.024823 -0.098271
H1    H     H_    0.639695 0.266357 0.045983 0.118368
H2    H     H_    0.756382 0.166034 0.046254 0.117419
H3    H     H_    0.754831 0.834498 0.046252 0.117435
H4    H     H_    0.244952 0.165574 0.953747 0.117433
H5    H     H_    0.743618 0.333965 0.953746 0.117420
H6    H     H_    0.256663 0.666136 0.046255 0.117417
H7    H     H_    0.255048 0.334425 0.046253 0.117433
H8    H     H_    0.745169 0.665503 0.953747 0.117436
H9    H     H_    0.215600 0.682147 0.953796 0.121000
H10   H     H_    0.784628 0.317658 0.046204 0.120973
H11   H     H_    0.785862 0.683423 0.046208 0.120827
H12   H     H_    0.360359 0.733937 0.954019 0.118348
H13   H     H_    0.214309 0.316728 0.953792 0.120846
H14   H     H_    0.715373 0.182341 0.953796 0.120994
H15   H     H_    0.284400 0.817853 0.046204 0.121021
H16   H     H_    0.285691 0.183271 0.046208 0.120868
H17   H     H_    0.714139 0.816577 0.953792 0.120848
H18   H     H_    0.338759 0.190330 0.415949 0.141661
H19   H     H_    0.661246 0.809675 0.584042 0.141660
H20   H     H_    0.661268 0.190295 0.583998 0.141664
H21   H     H_    0.338709 0.809738 0.416050 0.141663
H22   H     H_    0.838754 0.690325 0.415958 0.141658
H23   H     H_    0.360034 0.267747 0.954020 0.118460
H24   H     H_    0.161241 0.309670 0.584050 0.141659
H25   H     H_    0.161292 0.690262 0.583950 0.141661
H26   H     H_    0.838732 0.309705 0.416002 0.141661
H27   H     H_    0.245262 0.190294 0.415965 0.144955
H28   H     H_    0.754742 0.809712 0.584027 0.144955
H29   H     H_    0.754764 0.190258 0.583983 0.144962
H30   H     H_    0.245212 0.809774 0.416065 0.144967
H31   H     H_    0.745258 0.690288 0.415973 0.144950
H32   H     H_    0.254738 0.309706 0.584035 0.144950
H33   H     H_    0.254788 0.690226 0.583935 0.144961
H34   H     H_    0.640011 0.732028 0.045980 0.118476
H35   H     H_    0.745236 0.309742 0.416017 0.144957
H36   H     H_    0.482415 0.046840 0.415976 0.140906
H37   H     H_    0.517585 0.953160 0.584024 0.140906
H38   H     H_    0.517585 0.046840 0.584024 0.140905
H39   H     H_    0.482415 0.953160 0.415976 0.140903
H40   H     H_    0.982409 0.546840 0.415981 0.140907
H41   H     H_    0.017591 0.453160 0.584019 0.140906
H42   H     H_    0.017591 0.546840 0.584019 0.140903
H43   H     H_    0.982409 0.453160 0.415981 0.140905
H44   H     H_    0.139641 0.766063 0.045981 0.118336
H45   H     H_    0.860305 0.233642 0.954017 0.118355
H46   H     H_    0.859989 0.767972 0.954020 0.118463
H47   H     H_    0.139965 0.232252 0.045980 0.118447
H48   H     H_    0.243336 0.833865 0.953744 0.117416
I1    I     I_    0.539759 0.430884 0.339483 -0.288461
I2    I     I_    0.460237 0.569116 0.660517 -0.288460
I3    I     I_    0.460254 0.430883 0.660509 -0.288458
I4    I     I_    0.539748 0.569117 0.339489 -0.288458
I5    I     I_    0.040104 0.930890 0.339333 -0.288410
I6    I     I_    0.959895 0.069110 0.660666 -0.288405
I7    I     I_    0.959905 0.930889 0.660661 -0.288402
I8    I     I_    0.040107 0.069110 0.339332 -0.288403
O1    O     O_3   0.500000 0.250030 0.500000 -0.446740
O2    O     O_R   0.112550 0.219620 0.335580 -0.524419
O3    O     O_R   0.112550 0.780380 0.335580 -0.524417
O4    O     O_R   0.887450 0.219620 0.664420 -0.524418
O5    O     O_R   0.594260 0.219670 0.543090 -0.547373
O6    O     O_R   0.405740 0.780330 0.456910 -0.547372
O7    O     O_R   0.405740 0.219670 0.456910 -0.547375
O8    O     O_R   0.594260 0.780330 0.543090 -0.547374
O9    O     O_R   0.094260 0.719670 0.543090 -0.547377
O10   O     O_R   0.905740 0.280330 0.456910 -0.547377
O11   O     O_R   0.905740 0.719670 0.456910 -0.547379
O12   O     O_3   0.500000 0.749970 0.500000 -0.446741
O13   O     O_R   0.094260 0.280330 0.543090 -0.547379
O14   O     O_R   0.508800 0.134220 0.543090 -0.549543
O15   O     O_R   0.491200 0.865780 0.456910 -0.549544
O16   O     O_R   0.491200 0.134220 0.456910 -0.549540
O17   O     O_R   0.508800 0.865780 0.543090 -0.549540
O18   O     O_R   0.008800 0.634220 0.543090 -0.549539
O19   O     O_R   0.991200 0.365780 0.456910 -0.549537
O20   O     O_R   0.991200 0.634220 0.456910 -0.549535
O21   O     O_R   0.008800 0.365780 0.543090 -0.549535
O22   O     O_R   0.448100 0.365830 0.543110 -0.513682
O23   O     O_3   0.000000 0.750030 0.500000 -0.446746
O24   O     O_R   0.551900 0.634170 0.456890 -0.513681
O25   O     O_R   0.551900 0.365830 0.456890 -0.513683
O26   O     O_R   0.448100 0.634170 0.543110 -0.513685
O27   O     O_R   0.948100 0.865830 0.543110 -0.513670
O28   O     O_R   0.051900 0.134170 0.456890 -0.513669
O29   O     O_R   0.051900 0.865830 0.456890 -0.513674
O30   O     O_R   0.948100 0.134170 0.543110 -0.513674
O31   O     O_R   0.637370 0.280400 0.456880 -0.544669
O32   O     O_R   0.362630 0.719600 0.543120 -0.544671
O33   O     O_R   0.362630 0.280400 0.543120 -0.544671
O34   O     O_3   1.000000 0.249970 0.500000 -0.446746
O35   O     O_R   0.637370 0.719600 0.456880 -0.544671
O36   O     O_R   0.137370 0.780400 0.456880 -0.544673
O37   O     O_R   0.862630 0.219600 0.543120 -0.544673
O38   O     O_R   0.862630 0.780400 0.543120 -0.544674
O39   O     O_R   0.137370 0.219600 0.456880 -0.544673
O40   O     O_R   0.448170 0.219660 0.664410 -0.539681
O41   O     O_R   0.551830 0.780340 0.335590 -0.539680
O42   O     O_R   0.551830 0.219660 0.335590 -0.539683
O43   O     O_R   0.448170 0.780340 0.664410 -0.539683
O44   O     O_R   0.948170 0.719660 0.664410 -0.539695
O45   O     O_R   0.387450 0.280380 0.664420 -0.524462
O46   O     O_R   0.051830 0.280340 0.335590 -0.539697
O47   O     O_R   0.051830 0.719660 0.335590 -0.539698
O48   O     O_R   0.948170 0.280340 0.664410 -0.539698
O49   O     O_R   0.612550 0.719620 0.335580 -0.524461
O50   O     O_R   0.612550 0.280380 0.335580 -0.524460
O51   O     O_R   0.387450 0.719620 0.664420 -0.524458
O52   O     O_R   0.887450 0.780380 0.664420 -0.524420
Zn1   Zn    Zn3+2 0.574170 0.293410 0.438410 0.978232
Zn2   Zn    Zn3+2 0.487410 0.793350 0.438420 0.942435
Zn3   Zn    Zn3+2 0.487410 0.206650 0.438420 0.942434
Zn4   Zn    Zn3+2 0.512590 0.793350 0.561580 0.942435
Zn5   Zn    Zn3+2 0.012590 0.706650 0.561580 0.942423
Zn6   Zn    Zn3+2 0.987410 0.293350 0.438420 0.942422
Zn7   Zn    Zn3+2 0.987410 0.706650 0.438420 0.942422
Zn8   Zn    Zn3+2 0.012590 0.293350 0.561580 0.942422
Zn9   Zn    Zn3+2 0.425830 0.706590 0.561590 0.978231
Zn10  Zn    Zn3+2 0.425830 0.293410 0.561590 0.978231
Zn11  Zn    Zn3+2 0.574170 0.706590 0.438410 0.978232
Zn12  Zn    Zn3+2 0.074170 0.793410 0.438410 0.978232
Zn13  Zn    Zn3+2 0.925830 0.206590 0.561590 0.978231
Zn14  Zn    Zn3+2 0.925830 0.793410 0.561590 0.978232
Zn15  Zn    Zn3+2 0.074170 0.206590 0.438410 0.978232
Zn16  Zn    Zn3+2 0.512590 0.206650 0.561580 0.942436

loop_
_geom_bond_atom_site_label_1
_geom_bond_atom_site_label_2
_ccdc_geom_bond_type
C61   C70   A    
O40   Zn16  S    
O16   Zn3   S    
O9    Zn5   S    
C4    C36   S    
O14   Zn16  S    
C111  I6    S    
C95   O39   A    
C81   H42   S    
C13   C32   S    
C111  C112  A    
C34   C42   S    
O15   Zn2   S    
O43   Zn4   S    
C4    C8    S    
C68   C93   S    
C2    C12   S    
O23   Zn12  S    
C76   C84   A    
O26   Zn9   S    
C57   H27   S    
C59   H29   S    
C109  C117  A    
C48   C57   A    
O27   Zn14  S    
C107  I3    S    
O4    Zn13  S    
C31   C40   S    
C7    C11   S    
C71   C90   S    
C64   H35   S    
C76   H38   S    
O3    Zn12  S    
C62   H32   S    
C4    H5    S    
C106  C114  A    
C25   C77   S    
C50   C59   A    
C104  O28   A    
C23   C66   S    
C6    H7    S    
C33   O49   A    
C52   C61   A    
O23   Zn5   S    
C14   C36   S    
C112  C117  A    
C59   C68   A    
C58   H28   S    
C8    H1    S    
C9    H12   S    
C89   O32   A    
C54   C63   A    
C16   H47   S    
C55   O51   A    
C7    C24   S    
O51   Zn9   S    
C2    H9    S    
C15   C120  S    
C98   O18   A    
C1    O45   A    
C84   C96   S    
C97   O17   A    
C3    C29   S    
O13   Zn8   S    
C17   C39   T    
C73   C87   S    
C66   O44   A    
C26   H15   S    
O22   Zn10  S    
C11   H34   S    
C17   C44   S    
C104  C116  S    
C78   C83   A    
O6    Zn2   S    
C15   C37   S    
C70   C91   S    
C29   C38   S    
C62   C71   A    
C67   C94   S    
C32   C41   S    
C56   C64   A    
O19   Zn6   S    
C111  C116  A    
O12   Zn9   S    
O34   Zn8   S    
C7    H8    S    
C69   C92   S    
C53   C65   A    
C25   C47   T    
C74   C78   A    
C81   C86   A    
C120  H3    S    
C109  C113  A    
C113  C116  A    
C93   O10   A    
C75   H37   S    
C90   O33   A    
O25   Zn1   S    
C21   C88   S    
C77   O46   A    
C23   C46   T    
C21   C43   T    
C91   O8    A    
C106  I2    S    
C82   H43   S    
C103  C117  S    
C96   O14   A    
O12   Zn2   S    
O47   Zn7   S    
C87   O5    A    
O21   Zn8   S    
C9    C26   S    
C103  O27   A    
C51   H21   S    
C34   C120  S    
C80   H41   S    
C105  C108  A    
C94   O38   A    
C1    C19   S    
C65   C95   S    
C93   O37   A    
O52   Zn14  S    
C11   C28   S    
C103  O29   A    
O44   Zn5   S    
C44   O42   A    
O33   Zn10  S    
O8    Zn4   S    
C91   O35   A    
C22   C45   T    
C28   C120  S    
C50   C73   A    
C57   C65   A    
C79   H40   S    
C9    C31   S    
C101  O22   A    
O31   Zn1   S    
C55   O43   A    
C100  O19   A    
C56   C68   A    
C24   C34   S    
C49   C58   A    
C2    C31   S    
C14   H45   S    
C5    H6    S    
O29   Zn12  S    
C108  C114  A    
C75   C76   A    
C31   C118  S    
C5    C9    S    
C80   C85   A    
C102  C114  S    
C102  O24   A    
O41   Zn2   S    
C12   H44   S    
C53   C62   A    
C26   C35   S    
C78   H39   S    
C64   C73   A    
C87   O31   A    
C112  I7    S    
C1    O40   A    
C6    C38   S    
C7    C37   S    
C88   O47   A    
C98   O20   A    
C36   C45   S    
C15   H46   S    
C60   H30   S    
C106  C107  A    
C94   O11   A    
C12   C35   S    
C61   H31   S    
C107  C115  A    
C38   C47   S    
O36   Zn12  S    
C52   C67   A    
C105  I1    S    
C18   C55   S    
C113  I8    S    
C12   C118  S    
C20   C33   S    
C60   C69   A    
C15   C24   S    
C30   C110  S    
C14   C119  S    
C104  O30   A    
C49   C70   A    
C49   H19   S    
C83   C97   S    
C24   H11   S    
C101  C115  S    
O35   Zn11  S    
C92   O36   A    
O30   Zn13  S    
C51   C72   A    
C48   C71   A    
C82   C85   A    
O7    Zn3   S    
O23   Zn7   S    
C75   C83   A    
O28   Zn15  S    
C35   C43   S    
C3    H4    S    
C88   O3    A    
O2    Zn15  S    
C119  H2    S    
C14   C110  S    
C4    C110  S    
C99   O48   A    
O46   Zn6   S    
C22   C99   S    
C92   O9    A    
C27   H14   S    
C13   H13   S    
C105  C115  A    
C11   C34   S    
C28   H17   S    
C26   C118  S    
O34   Zn13  S    
C74   C84   A    
C80   C81   A    
O32   Zn9   S    
O34   Zn15  S    
C79   C82   A    
C20   C42   T    
O5    Zn16  S    
O20   Zn7   S    
C27   C119  S    
C27   C36   S    
C33   O41   A    
O50   Zn1   S    
O1    Zn16  S    
O39   Zn15  S    
C54   H25   S    
C48   H18   S    
O45   Zn10  S    
O38   Zn14  S    
C77   O2    A    
C8    C30   S    
C89   O6    A    
C53   H24   S    
O37   Zn13  S    
C102  O26   A    
O24   Zn11  S    
C99   O4    A    
C85   C100  S    
C101  O25   A    
C100  O21   A    
C6    C13   S    
O1    Zn1   S    
C72   C89   S    
C10   C29   S    
C96   O16   A    
C54   C69   A    
C28   C37   S    
C108  I4    S    
O49   Zn11  S    
C5    C35   S    
C118  H48   S    
C63   C72   A    
C30   C39   S    
C110  H10   S    
C50   H20   S    
C10   H23   S    
O34   Zn6   S    
C56   H26   S    
C3    C32   S    
C86   C98   S    
C52   H22   S    
O42   Zn3   S    
O48   Zn8   S    
C6    C10   S    
C95   O13   A    
C2    C5    S    
C10   C32   S    
C58   C67   A    
C97   O15   A    
C29   H16   S    
C18   C40   T    
C90   O7    A    
O1    Zn3   S    
C30   C119  S    
C13   C16   S    
C66   O52   A    
O12   Zn11  S    
C8    C27   S    
C74   H36   S    
C51   C60   A    
O18   Zn5   S    
O17   Zn4   S    
C37   C46   S    
O12   Zn4   S    
C63   H33   S    
C44   O50   A    
C109  I5    S    
C79   C86   A    
O11   Zn7   S    
C3    C16   S    
C19   C41   T    
O23   Zn14  S    
C16   C38   S    
O1    Zn10  S    
O10   Zn6   S    
