data_mof_unit_51052.cif
_audit_creation_date              2013-03-05T15:42:21-0500
_audit_creation_method            fapswitch 2.2
_symmetry_space_group_name_H-M    P1
_symmetry_Int_Tables_number       1
_space_group_crystal_system       triclinic
_cell_length_a                    16.879658
_cell_length_b                    16.719216
_cell_length_c                    19.492157
_cell_angle_alpha                 117.780739
_cell_angle_beta                  62.134221
_cell_angle_gamma                 100.988407
_cell_volume                      4299.96363602

loop_
_atom_site_label
_atom_site_type_symbol
_atom_site_description
_atom_site_fract_x
_atom_site_fract_y
_atom_site_fract_z
_atom_type_partial_charge
C1    C     C_R   0.022887 0.761695 0.027932 -0.091861
H1    H     H_    0.052946 0.813052 0.066649 0.170389
N1    N     N_R   0.036080 0.671900 0.995420 -0.037563
C2    C     C_R   0.748600 0.481406 0.173024 -0.089016
H2    H     H_    0.694824 0.461772 0.154614 0.157201
N2    N     N_R   0.834710 0.454650 0.119760 -0.034926
C3    C     C_R   0.818044 0.510886 0.911928 -0.191353
H3    H     H_    0.845573 0.527867 0.858225 0.128883
N3    N     N_R   0.867430 0.509300 0.948100 -0.065316
C4    C     C_R   0.013640 0.657310 0.239448 -0.212493
H4    H     H_    0.000927 0.623238 0.278807 0.119532
N4    N     N_R   0.003360 0.617250 0.167070 -0.062931
C5    C     C_R   0.747778 0.434187 0.989078 0.323719
N5    N     N_R   0.825450 0.461270 0.995400 -0.088206
C6    C     C_R   0.080151 0.737568 0.165379 0.331368
N6    N     N_R   0.045340 0.665280 0.119770 -0.087781
C7    C     C_R   0.828181 0.549478 0.248575 -0.125888
H5    H     H_    0.849081 0.591424 0.298742 0.101558
N7    N     N_R   0.883740 0.497640 0.167070 -0.045632
C8    C     C_R   0.944690 0.691390 0.950976 -0.123367
H6    H     H_    0.901637 0.676330 0.919677 0.107738
N8    N     N_R   0.987050 0.628910 0.948110 -0.044627
C9    C     C_R   0.964561 0.776463 0.002166 0.020865
C10   C     C_R   0.742311 0.542392 0.254128 0.034562
C11   C     C_R   0.740238 0.465566 0.936909 -0.063758
C12   C     C_R   0.063226 0.733637 0.241131 -0.054288
C13   C     C_R   0.260825 0.515132 0.957380 -0.072664
H7    H     H_    0.306649 0.544112 0.914803 0.098579
N9    N     N_R   0.174550 0.538730 0.004600 -0.036227
C14   C     C_R   0.976662 0.247254 0.828827 -0.088920
H8    H     H_    0.952079 0.194574 0.849755 0.096032
N10   N     N_R   0.954660 0.334720 0.880230 -0.037879
C15   C     C_R   0.158207 0.511610 0.759541 -0.143196
H9    H     H_    0.127609 0.496424 0.717187 0.090964
N11   N     N_R   0.116260 0.502360 0.832930 -0.044477
C16   C     C_R   0.025057 0.313202 0.076459 -0.138461
H10   H     H_    0.051470 0.331171 0.122538 0.100279
N12   N     N_R   0.012950 0.371090 0.051890 -0.046667
C17   C     C_R   0.946659 0.245016 0.001911 -0.106881
H11   H     H_    0.899975 0.199913 0.979588 0.117648
N13   N     N_R   0.963920 0.328100 0.004580 -0.039355
C18   C     C_R   0.236392 0.580899 0.835505 -0.126789
H12   H     H_    0.277413 0.629900 0.863304 0.130352
N14   N     N_R   0.165290 0.545350 0.880240 -0.039891
C19   C     C_R   0.195458 0.434651 0.032763 -0.129661
H13   H     H_    0.183899 0.387271 0.059226 0.100152
N15   N     N_R   0.132570 0.490700 0.051900 -0.046805
C20   C     C_R   0.047592 0.325248 0.751396 -0.136416
H14   H     H_    0.090319 0.344647 0.700118 0.101515
N16   N     N_R   0.996640 0.382750 0.832930 -0.047544
Ni1   Ni    Ni4+2 0.104370 0.604370 0.000010 0.286156
Ni2   Ni    Ni4+2 0.895630 0.395630 0.999990 0.285422
Ni3   Ni    Ni4+2 0.991920 0.505780 0.891500 0.202593
Ni4   Ni    Ni4+2 0.008080 0.494220 0.108500 0.203741
C21   C     C_R   0.276776 0.446896 0.971016 0.033780
C22   C     C_R   0.037869 0.238764 0.747372 0.054359
C23   C     C_R   0.234050 0.561310 0.759200 0.065326
C24   C     C_R   0.985380 0.232121 0.045227 0.058992
C25   C     C_R   0.144169 0.152874 0.592735 -0.250717
C26   C     C_R   0.081043 0.153540 0.672095 0.116690
C27   C     C_R   0.051415 0.071245 0.677326 -0.250188
C28   C     C_R   0.069520 0.991197 0.602868 0.137570
C29   C     C_R   0.123223 0.992485 0.522259 0.032723
C30   C     C_R   0.165529 0.072221 0.517215 0.136558
C31   C     C_R   0.026247 0.912372 0.607750 -0.196252
C32   C     C_R   0.027186 0.838708 0.533587 -0.202788
C33   C     C_R   0.073136 0.842966 0.454162 0.134892
C34   C     C_R   0.126415 0.917178 0.447362 0.032145
C35   C     C_R   0.175224 0.919950 0.366949 0.100952
C36   C     C_R   0.226677 0.995165 0.361316 -0.165959
C37   C     C_R   0.220872 0.071601 0.436359 -0.203054
C38   C     C_R   0.058501 0.779491 0.383878 -0.248647
C39   C     C_R   0.098236 0.787657 0.305967 0.126716
C40   C     C_R   0.164631 0.851774 0.295393 -0.196717
H15   H     H_    0.171270 0.215411 0.588484 0.121863
H16   H     H_    0.006377 0.069319 0.738084 0.118868
H17   H     H_    0.985793 0.910352 0.669453 0.132221
H18   H     H_    0.987447 0.780997 0.539153 0.129769
H19   H     H_    0.009669 0.728877 0.393528 0.119999
H20   H     H_    0.204537 0.853017 0.233840 0.184728
H21   H     H_    0.265624 0.997677 0.299705 0.150049
H22   H     H_    0.255358 0.131761 0.431385 0.136284
C41   C     C_R   0.282063 0.572255 0.622093 -0.251618
C42   C     C_R   0.293661 0.596596 0.696024 0.113597
C43   C     C_R   0.367245 0.647982 0.705520 -0.236177
C44   C     C_R   0.435880 0.663821 0.637066 0.065534
C45   C     C_R   0.428338 0.628836 0.558967 0.017462
C46   C     C_R   0.349284 0.587145 0.553114 0.152959
C47   C     C_R   0.515218 0.706593 0.641878 0.036013
C48   C     C_R   0.589097 0.704511 0.567072 -0.263550
C49   C     C_R   0.584688 0.660791 0.487850 0.121047
C50   C     C_R   0.502797 0.627517 0.484433 0.029385
C51   C     C_R   0.497803 0.584773 0.404862 0.136713
C52   C     C_R   0.416136 0.552217 0.401692 -0.185530
C53   C     C_R   0.342109 0.553311 0.475601 -0.209755
C54   C     C_R   0.662659 0.641842 0.411272 -0.231046
C55   C     C_R   0.659686 0.587364 0.331784 0.112465
C56   C     C_R   0.576266 0.566721 0.328973 -0.245631
H23   H     H_    0.224374 0.535358 0.614681 0.115969
H24   H     H_    0.374867 0.669798 0.763580 0.131682
H25   H     H_    0.651680 0.732369 0.569837 0.139535
H26   H     H_    0.725996 0.662772 0.414538 0.118269
H27   H     H_    0.572037 0.529220 0.268271 0.144906
H28   H     H_    0.411166 0.520487 0.341098 0.146909
H29   H     H_    0.281145 0.522556 0.470848 0.133112
C57   C     C_R   0.673469 0.445499 0.902109 0.071930
C58   C     C_R   0.365214 0.402667 0.930240 0.125771
C59   C     C_R   0.466284 0.317904 0.931039 -0.167001
C60   C     C_R   0.379159 0.338047 0.950876 -0.171397
C61   C     C_R   0.439639 0.436549 0.879608 -0.244693
C62   C     C_R   0.523404 0.428127 0.872201 0.162742
C63   C     C_R   0.537431 0.368884 0.898421 0.147155
C64   C     C_R   0.617996 0.371032 0.902545 -0.219935
C65   C     C_R   0.658712 0.504260 0.874437 0.068556
C66   C     C_R   0.587947 0.489654 0.852779 -0.275936
H30   H     H_    0.632024 0.319429 0.914053 0.181758
H31   H     H_    0.475947 0.271588 0.951253 0.151168
H32   H     H_    0.575880 0.535806 0.833483 0.141284
H33   H     H_    0.323188 0.307482 0.986560 0.123535
H34   H     H_    0.432161 0.481536 0.857321 0.115851
C67   C     C_R   0.799073 0.185658 0.186454 0.136843
C68   C     C_R   0.926447 0.864714 0.028199 0.129648
C69   C     C_R   0.844864 0.952990 0.009596 -0.217252
C70   C     C_R   0.885717 0.871614 0.982435 -0.156692
C71   C     C_R   0.927000 0.941822 0.101132 -0.262909
C72   C     C_R   0.885672 0.023726 0.129101 0.182408
C73   C     C_R   0.843616 0.029116 0.083268 0.173432
C74   C     C_R   0.800353 0.110386 0.112541 -0.271881
C75   C     C_R   0.841165 0.180700 0.231365 -0.177445
C76   C     C_R   0.884395 0.100142 0.202977 -0.209783
H35   H     H_    0.767528 0.115837 0.078557 0.145765
H36   H     H_    0.840008 0.239454 0.288397 0.127684
H37   H     H_    0.813487 0.956111 0.973422 0.135330
H38   H     H_    0.916290 0.097426 0.238910 0.141800
H39   H     H_    0.885079 0.814047 0.925481 0.123361
H40   H     H_    0.957231 0.937858 0.137770 0.141214
C77   C     C_1   0.524766 0.748358 0.721261 0.053151
N17   N     N_1   0.532415 0.781844 0.784810 -0.074728
C78   C     C_1   0.706464 0.586358 0.876875 0.038273
N18   N     N_1   0.744024 0.652448 0.878886 -0.100676
N19   N     N_R   0.695110 0.366653 0.014821 0.200511
O1    O     O_R   0.608977 0.380861 0.062084 -0.446170
O2    O     O_R   0.734647 0.301766 0.007763 -0.440825
N20   N     N_R   0.143851 0.792990 0.128943 0.199105
O3    O     O_R   0.129371 0.880238 0.167754 -0.448428
O4    O     O_R   0.204346 0.756057 0.049532 -0.443341

loop_
_geom_bond_atom_site_label_1
_geom_bond_atom_site_label_2
_geom_bond_distance
_ccdc_geom_bond_type
C45   C46   1.411780 A    
C51   C52   1.400929 A    
C54   H26   1.081534 S    
C13   N9    1.323311 A    
C39   C40   1.407008 A    
C62   C63   1.404559 A    
N6    Ni1   1.864319 S    
C55   C56   1.405033 A    
C69   C70   1.397097 A    
C17   N13   1.345243 A    
C19   H13   1.076822 S    
N2    N7    1.385914 A    
C60   H33   1.081902 S    
C25   C30   1.397880 A    
C72   C73   1.415095 A    
C57   C65   1.425134 A    
C16   H10   1.080528 S    
C33   C38   1.387555 A    
C38   H19   1.080937 S    
C16   C24   1.386573 A    
C35   C36   1.403901 A    
N19   O2    1.300887 A    
C14   H8    1.073169 S    
C2    C10   1.389941 A    
C13   C21   1.382502 A    
N11   Ni3   1.859210 S    
C72   C76   1.404583 A    
C56   H27   1.080998 S    
C12   C39   1.480802 S    
C59   C60   1.400570 A    
C3    N3    1.329669 A    
C1    H1    1.073340 S    
C30   C37   1.403161 A    
C36   H21   1.083825 S    
C61   C62   1.380569 A    
N10   Ni2   1.864319 S    
C53   H29   1.083942 S    
C37   H22   1.083910 S    
C49   C54   1.393676 A    
N5    Ni2   1.817121 S    
N4    N6    1.363643 A    
C34   C35   1.408447 A    
C36   C37   1.397723 A    
C5    N19   1.430217 S    
C9    C68   1.485683 S    
N13   Ni2   1.816100 S    
C28   C31   1.401563 A    
C64   H30   1.076431 S    
C67   C75   1.396271 A    
C4    C12   1.381885 A    
C20   N16   1.342729 A    
C41   C46   1.391215 A    
C46   C53   1.402030 A    
C52   H28   1.084015 S    
C25   C26   1.405723 A    
C41   H23   1.081244 S    
C5    N5    1.346040 A    
C58   C60   1.405346 A    
C5    C11   1.403289 A    
C76   H38   1.083502 S    
C18   N14   1.336754 A    
C33   C34   1.407951 A    
C18   C23   1.384542 A    
C71   H40   1.082822 S    
C63   C64   1.392098 A    
C11   C57   1.483671 S    
C65   C66   1.388793 A    
N8    Ni3   1.823330 S    
C19   N15   1.351794 A    
C27   H16   1.079885 S    
C32   H18   1.084223 S    
C7    C10   1.387986 A    
C31   H17   1.084107 S    
C57   C64   1.408878 A    
C10   C55   1.472093 S    
N16   Ni3   1.824610 S    
C3    H3    1.079053 S    
C42   C43   1.405334 A    
C67   C74   1.396792 A    
C2    N2    1.339766 A    
C61   H34   1.078159 S    
C17   H11   1.080307 S    
N1    Ni1   1.816101 S    
C44   C45   1.413693 A    
C2    H2    1.068442 S    
C6    C12   1.398291 A    
C43   C44   1.400034 A    
C17   C24   1.387766 A    
C14   C22   1.385952 A    
C59   C63   1.405042 A    
C21   C58   1.473382 S    
C26   C27   1.405143 A    
C1    N1    1.346762 A    
N3    N5    1.363645 A    
C48   H25   1.085365 S    
C28   C29   1.408414 A    
C69   C73   1.400262 A    
C41   C42   1.402595 A    
N12   Ni4   1.823330 S    
C8    C9    1.392560 A    
C66   H32   1.086471 S    
C54   C55   1.404452 A    
C69   H37   1.083655 S    
C7    H5    1.077691 S    
C23   C42   1.472960 S    
C35   C40   1.396442 A    
C65   C78   1.445436 S    
N11   N14   1.385914 A    
N10   N16   1.363643 A    
C4    N4    1.331463 A    
N12   N13   1.385914 A    
N15   Ni4   1.858965 S    
N14   Ni1   1.864565 S    
N20   O4    1.300700 A    
C20   H14   1.078666 S    
N9    N15   1.363642 A    
C1    C9    1.397478 A    
C52   C53   1.392309 A    
C47   C77   1.445982 S    
C71   C72   1.404202 A    
C58   C61   1.401425 A    
N3    Ni3   1.858963 S    
C18   H12   1.079304 S    
C68   C70   1.407527 A    
C73   C74   1.403976 A    
C74   H35   1.082940 S    
C25   H15   1.082742 S    
C49   C50   1.408194 A    
N7    Ni4   1.859212 S    
C75   C76   1.398281 A    
N9    Ni1   1.817118 S    
C20   C22   1.392730 A    
C29   C34   1.399421 A    
C15   C23   1.386036 A    
C70   H39   1.081707 S    
C59   H31   1.083580 S    
C8    N8    1.341121 A    
C38   C39   1.407476 A    
C40   H20   1.075228 S    
C44   C47   1.415432 A    
C78   N18   1.157686 T    
C77   N17   1.157576 T    
C3    C11   1.379445 A    
N20   O3    1.301644 A    
C75   H36   1.081765 S    
C68   C71   1.407999 A    
C16   N12   1.344154 A    
C43   H24   1.078799 S    
N19   O1    1.301733 A    
C14   N10   1.331799 A    
C15   N11   1.337639 A    
C48   C49   1.399612 A    
C29   C30   1.410850 A    
C50   C51   1.410489 A    
C7    N7    1.337224 A    
C15   H9    1.079800 S    
C32   C33   1.400936 A    
C27   C28   1.386205 A    
C4    H4    1.079828 S    
C6    N20   1.427910 S    
C22   C26   1.470265 S    
C8    H6    1.079468 S    
C19   C21   1.397434 A    
C31   C32   1.390411 A    
C13   H7    1.074090 S    
N1    N8    1.385914 A    
C62   C66   1.392372 A    
N2    Ni2   1.864565 S    
C47   C48   1.397099 A    
C45   C50   1.401647 A    
C51   C56   1.392165 A    
N4    Ni4   1.824610 S    
C6    N6    1.346229 A    
