data_mof_unit_34282.cif
_audit_creation_date              2012-12-11T14:21:15-0500
_audit_creation_method            fapswitch 2.2
_symmetry_space_group_name_H-M    P1
_symmetry_Int_Tables_number       1
_space_group_crystal_system       triclinic
_cell_length_a                    11.538425
_cell_length_b                    11.583534
_cell_length_c                    19.497731
_cell_angle_alpha                 90.680784
_cell_angle_beta                  90.117404
_cell_angle_gamma                 59.776144
_cell_volume                      2251.55773084

loop_
_atom_site_label
_atom_site_type_symbol
_atom_type_description
_atom_site_fract_x
_atom_site_fract_y
_atom_site_fract_z
_atom_type_partial_charge
C1    C     C_R   0.640751 0.117598 0.599074 0.563452
C2    C     C_1   0.641893 0.703590 0.667853 0.007962
C3    C     C_1   0.127081 0.198256 0.859410 0.004020
C4    C     C_1   0.171166 0.170634 0.727623 -0.029286
C5    C     C_1   0.150309 0.182003 0.798940 -0.030729
C6    C     C_1   0.194782 0.161579 0.667205 0.007214
C7    C     C_1   0.678028 0.191023 0.860955 0.004877
C8    C     C_1   0.658442 0.167509 0.729002 -0.029571
C9    C     C_1   0.665207 0.180876 0.800404 -0.030125
C10   C     C_1   0.653171 0.150034 0.668490 0.006741
C11   C     C_R   0.667905 0.655612 0.197430 0.004401
C12   C     C_R   0.612852 0.745691 0.598483 0.552302
C13   C     C_R   0.543089 0.701119 0.229824 -0.000214
C14   C     C_R   0.543881 0.669064 0.298787 0.055032
C15   C     C_R   0.775447 0.615506 0.308580 -0.166381
C16   C     C_R   0.784850 0.604179 0.237578 -0.137166
C17   C     C_R   0.420569 0.762395 0.193676 -0.094596
C18   C     C_R   0.306681 0.770007 0.222218 -0.168298
C19   C     C_R   0.312618 0.719343 0.287041 -0.114863
C20   C     C_R   0.431850 0.662452 0.324299 0.193609
C21   C     C_R   0.652473 0.656217 0.339734 0.025268
C22   C     C_R   0.149617 0.193701 0.191731 -0.011008
C23   C     C_R   0.240790 0.145570 0.598020 0.541442
C24   C     C_R   0.183951 0.278046 0.227692 0.026034
C25   C     C_R   0.166736 0.287888 0.298986 0.037476
C26   C     C_R   0.156164 0.083557 0.298395 -0.147247
C27   C     C_R   0.134806 0.097356 0.227994 -0.144904
C28   C     C_R   0.226212 0.359044 0.194902 -0.090924
C29   C     C_R   0.232040 0.460146 0.231397 -0.145853
C30   C     C_R   0.191548 0.483927 0.299740 -0.142034
C31   C     C_R   0.151524 0.403840 0.332033 -0.085786
C32   C     C_R   0.173841 0.177786 0.334857 -0.002375
C33   C     C_R   0.652919 0.171373 0.184077 -0.011092
C34   C     C_R   0.621499 0.081376 0.393967 0.551155
C35   C     C_R   0.717204 0.036301 0.203840 0.033316
C36   C     C_R   0.722301 0.005229 0.274167 0.021178
C37   C     C_R   0.553347 0.238290 0.296568 -0.121930
C38   C     C_R   0.567014 0.270935 0.229983 -0.150848
C39   C     C_R   0.785848 0.931841 0.155223 -0.084196
C40   C     C_R   0.882740 0.806045 0.176260 -0.117791
C41   C     C_R   0.903266 0.780434 0.245656 -0.146116
C42   C     C_R   0.817957 0.873925 0.293883 -0.104715
C43   C     C_R   0.635115 0.107697 0.321099 -0.003380
C44   C     C_R   0.081966 0.230916 0.928739 0.543053
C45   C     C_R   0.619364 0.730604 0.404938 0.556164
C46   C     C_R   0.683578 0.604606 0.929608 0.543058
C47   C     C_R   0.707903 0.206457 0.930320 0.539040
C48   C     C_R   0.086479 0.234013 0.124320 0.533762
C49   C     C_R   0.683124 0.611274 0.126270 0.536381
C50   C     C_R   0.703519 0.208203 0.124100 0.537326
C51   C     C_R   0.239051 0.144017 0.402523 0.527856
C52   C     C_1   0.669930 0.646698 0.860248 0.003879
C53   C     C_1   0.655201 0.683507 0.728381 -0.029383
C54   C     C_1   0.663326 0.666773 0.799735 -0.030794
Cr1   Cr    Cr6+3 0.404720 0.198220 0.499960 1.062425
Cr2   Cr    Cr6+3 0.698290 0.897110 0.500380 1.022986
Cr3   Cr    Cr6+3 0.396970 0.904720 0.499610 1.070655
Cr4   Cr    Cr6+3 0.926180 0.151990 0.028120 1.019706
Cr5   Cr    Cr6+3 0.921330 0.451820 0.027470 1.015185
Cr6   Cr    Cr6+3 0.626260 0.446870 0.028710 1.024693
H1    H     H_    0.862176 0.595670 0.338826 0.113940
H2    H     H_    0.263020 0.522886 0.206073 0.119930
H3    H     H_    0.187921 0.565583 0.328266 0.133695
H4    H     H_    0.112576 0.431207 0.383799 0.140552
H5    H     H_    0.484125 0.318256 0.330115 0.196460
H6    H     H_    0.769921 0.948954 0.100653 0.126294
H7    H     H_    0.515994 0.375123 0.215651 0.148199
H8    H     H_    0.941844 0.728483 0.138914 0.119579
H9    H     H_    0.977960 0.683337 0.262100 0.117141
H10   H     H_    0.832575 0.838912 0.345543 0.163250
H11   H     H_    0.413882 0.800081 0.142379 0.132678
H12   H     H_    0.883419 0.557549 0.214102 0.155758
H13   H     H_    0.215096 0.809949 0.192912 0.112873
H14   H     H_    0.223509 0.725885 0.308321 0.121886
H15   H     H_    0.156842 0.001170 0.324397 0.145624
H16   H     H_    0.255704 0.343971 0.141411 0.132483
H17   H     H_    0.103112 0.035014 0.202149 0.145046
O1    O     O_R   0.267740 0.231960 0.575440 -0.504606
O2    O     O_R   0.685970 0.784660 0.430010 -0.536234
O3    O     O_R   0.502530 0.767000 0.423990 -0.467425
O4    O     O_R   0.288330 0.026350 0.429250 -0.493425
O5    O     O_3   0.499990 0.000020 0.499980 -0.281738
O6    O     O_R   0.821500 0.119340 0.952830 -0.511504
O7    O     O_R   0.037130 0.162530 0.957360 -0.494703
O8    O     O_R   0.056440 0.344740 0.951340 -0.507363
O9    O     O_R   0.797900 0.560360 0.957470 -0.494862
O10   O     O_R   0.596130 0.579390 0.952730 -0.507230
O11   O     O_R   0.639060 0.321160 0.958670 -0.496018
O12   O     O_R   0.527280 0.186640 0.570530 -0.477980
O13   O     O_R   0.821240 0.124200 0.104370 -0.520086
O14   O     O_R   0.036890 0.167040 0.097840 -0.501661
O15   O     O_R   0.056180 0.349610 0.102880 -0.527116
O16   O     O_R   0.797660 0.564870 0.097950 -0.508096
O17   O     O_R   0.595880 0.584250 0.104270 -0.517328
O18   O     O_R   0.638830 0.325670 0.099150 -0.501149
O19   O     O_3   0.824590 0.350230 0.028100 -0.245103
O20   O     O_R   0.728090 0.003450 0.576380 -0.499266
O21   O     O_R   0.682970 0.789190 0.570490 -0.498510
O22   O     O_R   0.499290 0.771880 0.575530 -0.483596
O23   O     O_R   0.285330 0.030870 0.569730 -0.492406
O24   O     O_R   0.270980 0.227080 0.423890 -0.528795
O25   O     O_R   0.530280 0.182120 0.430050 -0.471374
O26   O     O_R   0.731330 0.998570 0.424830 -0.522205
Br1   Br    Br    0.442592 0.559079 0.403330 -0.535643

loop_
_geom_bond_atom_site_label_1
_geom_bond_atom_site_label_2
_ccdc_geom_bond_type
C25   C31   A    
C22   C48   S    
C26   C32   A    
C41   C42   A    
C36   C42   A    
C35   C36   A    
C16   H12   S    
Cr2   O21   S    
C2    C12   S    
Cr6   O11   S    
C53   C54   S    
Cr1   O25   S    
C26   C27   A    
C29   C30   A    
Cr2   O2    S    
C14   C21   A    
C28   C29   A    
C30   C31   A    
C50   O18   A    
C15   C16   A    
Cr3   O22   S    
C46   C52   S    
C42   H10   S    
C18   C19   A    
Cr4   O19   S    
C12   O22   A    
C50   O13   A    
C19   C20   A    
C8    C9    S    
C48   O14   A    
C37   H5    S    
C47   O6    A    
C49   O17   A    
Cr4   O14   S    
C51   O4    A    
C12   O21   A    
C25   C32   A    
C23   O23   A    
C30   H3    S    
Cr3   O3    S    
Cr2   O20   S    
Cr6   O10   S    
C52   C54   T    
C26   H15   S    
C21   C45   S    
C3    C44   S    
C34   C43   S    
C14   C20   A    
C24   C25   A    
C4    C6    T    
C1    O20   A    
C39   C40   A    
Cr1   O1    S    
C27   H17   S    
C33   C50   S    
Cr3   O23   S    
C7    C47   S    
C37   C43   A    
C35   C39   A    
Cr5   O8    S    
C32   C51   S    
C37   C38   A    
C11   C49   S    
Cr4   O7    S    
C11   C16   A    
C17   C18   A    
C15   H1    S    
C45   O2    A    
C34   O25   A    
Cr1   O5    S    
Cr4   O13   S    
Cr6   O19   S    
C40   C41   A    
C17   H11   S    
C18   H13   S    
C22   C27   A    
C40   H8    S    
C39   H6    S    
C22   C24   A    
Cr5   O19   S    
C44   O8    A    
C28   H16   S    
C3    C5    T    
C41   H9    S    
C46   O10   A    
C7    C9    T    
C29   H2    S    
C1    O12   A    
C31   H4    S    
C19   H14   S    
C1    C10   S    
C24   C28   A    
Cr2   O26   S    
C4    C5    S    
C44   O7    A    
C2    C53   T    
Cr2   O5    S    
C20   Br1   S    
C51   O24   A    
Cr1   O24   S    
C33   C38   A    
C13   C17   A    
C47   O11   A    
Cr5   O9    S    
Cr1   O12   S    
Cr4   O6    S    
C11   C13   A    
C6    C23   S    
C34   O26   A    
C33   C35   A    
C45   O3    A    
Cr3   O4    S    
Cr5   O15   S    
C23   O1    A    
Cr6   O18   S    
C15   C21   A    
C38   H7    S    
C8    C10   T    
C48   O15   A    
Cr3   O5    S    
C36   C43   A    
Cr5   O16   S    
C49   O16   A    
C13   C14   A    
C46   O9    A    
Cr6   O17   S    
