data_mof_unit_9271.cif
_audit_creation_date              2012-12-10T17:32:59-0500
_audit_creation_method            fapswitch 2.2
_symmetry_space_group_name_H-M    P1
_symmetry_Int_Tables_number       1
_space_group_crystal_system       triclinic
_cell_length_a                    12.320174
_cell_length_b                    13.478061
_cell_length_c                    14.343614
_cell_angle_alpha                 93.456143
_cell_angle_beta                  107.569177
_cell_angle_gamma                 116.991431
_cell_volume                      1968.02999377

loop_
_atom_site_label
_atom_site_type_symbol
_atom_type_description
_atom_site_fract_x
_atom_site_fract_y
_atom_site_fract_z
_atom_type_partial_charge
C1    C     C_R   0.653511 0.713314 0.512455 0.803886
C2    C     C_R   0.854592 0.512259 0.922287 -0.015413
C3    C     C_R   0.782830 0.494811 0.986365 0.102398
C4    C     C_R   0.965627 0.495981 0.950352 0.066908
C5    C     C_R   0.016720 0.483262 0.048961 0.104555
C6    C     C_R   0.946850 0.474381 0.113298 -0.204277
C7    C     C_R   0.830780 0.477897 0.081545 -0.209730
C8    C     C_R   0.020036 0.482381 0.880247 -0.240540
C9    C     C_R   0.127259 0.465482 0.907270 -0.221546
C10   C     C_R   0.185095 0.461364 0.005751 0.057087
C11   C     C_R   0.132661 0.474407 0.078319 0.032070
C12   C     C_R   0.618925 0.517582 0.686604 0.846535
C13   C     C_R   0.295171 0.444831 0.033435 0.461772
C14   C     C_R   0.359368 0.452174 0.134150 -0.272620
C15   C     C_R   0.200220 0.481711 0.178764 -0.256242
C16   C     C_R   0.153766 0.968961 0.379770 0.391897
C17   C     C_R   0.251608 0.164917 0.468694 -0.160164
C18   C     C_R   0.765905 0.903213 0.619874 -0.267750
C19   C     C_R   0.874414 0.010187 0.661720 -0.235387
C20   C     C_R   0.967739 0.055991 0.616531 0.475412
C21   C     C_R   0.955691 0.986523 0.529753 -0.001897
C22   C     C_R   0.845023 0.874630 0.489658 0.016374
C23   C     C_R   0.345202 0.286134 0.485378 0.825030
C24   C     C_R   0.051112 0.020839 0.483267 0.040507
C25   C     C_R   0.047126 0.938610 0.412697 0.044849
C26   C     C_R   0.935166 0.830610 0.374339 -0.220160
C27   C     C_R   0.831797 0.803813 0.405740 -0.168703
C28   C     C_R   0.147434 0.134885 0.501025 -0.211780
C29   C     C_R   0.258179 0.080766 0.412939 -0.216545
C30   C     C_R   0.750979 0.834165 0.535561 -0.088730
C31   C     C_R   0.257579 0.695935 0.651001 0.365291
C32   C     C_R   0.654943 0.343415 0.364177 0.059882
C33   C     C_R   0.733838 0.314088 0.330587 -0.263303
C34   C     C_R   0.380969 0.482541 0.313567 0.822932
C35   C     C_R   0.869928 0.376656 0.378466 -0.204519
C36   C     C_R   0.929355 0.469889 0.461334 0.035909
C37   C     C_R   0.844341 0.498855 0.490961 0.260395
C38   C     C_R   0.068996 0.533772 0.517231 -0.085739
C39   C     C_R   0.121016 0.630157 0.596373 0.030601
C40   C     C_R   0.036335 0.658903 0.621291 -0.239531
C41   C     C_R   0.901809 0.593743 0.571132 -0.134778
C42   C     C_R   0.159777 0.504834 0.499964 -0.012076
C43   C     C_R   0.339921 0.659937 0.631831 -0.005231
C44   C     C_R   0.679603 0.520332 0.792708 -0.082814
C45   C     C_R   0.312838 0.471506 0.207021 -0.121037
C46   C     C_R   0.661980 0.491929 0.953585 -0.195521
C47   C     C_R   0.607569 0.498506 0.855517 -0.253298
C48   C     C_R   0.808992 0.541610 0.830790 0.334782
Cu1   Cu    Cu3+1 0.416420 0.526630 0.522910 0.935148
Cu2   Cu    Cu3+1 0.583580 0.473370 0.477090 0.931292
H1    H     H_    0.777163 0.465579 0.131444 0.144404
H2    H     H_    0.338781 0.103559 0.387218 0.177147
H3    H     H_    0.922817 0.766174 0.317298 0.148412
H4    H     H_    0.138004 0.203197 0.532859 0.220233
H5    H     H_    0.697824 0.871216 0.658421 0.166472
H6    H     H_    0.885560 0.057263 0.730856 0.146814
H7    H     H_    0.742685 0.724233 0.364759 0.167815
H8    H     H_    0.444319 0.707814 0.674805 0.136464
H9    H     H_    0.170008 0.500593 0.237356 0.168040
H10   H     H_    0.073672 0.731061 0.682425 0.196266
H11   H     H_    0.128493 0.432635 0.441741 0.129803
H12   H     H_    0.549572 0.294755 0.326040 0.128375
H13   H     H_    0.926199 0.350387 0.349206 0.128579
H14   H     H_    0.689305 0.242601 0.267079 0.150558
H15   H     H_    0.846135 0.620079 0.599234 0.239549
H16   H     H_    0.446594 0.443986 0.155148 0.163826
H17   H     H_    0.165540 0.456845 0.850463 0.168022
H18   H     H_    0.606935 0.479161 0.002300 0.177078
H19   H     H_    0.509346 0.486594 0.828872 0.195514
H20   H     H_    0.974443 0.456916 0.186548 0.138672
H21   H     H_    0.977354 0.479699 0.802274 0.201283
N1    N     N_R   0.290690 0.566960 0.557640 -0.207582
N2    N     N_R   0.709100 0.433710 0.442970 -0.211922
O1    O     O_R   0.545970 0.684450 0.528810 -0.580931
O2    O     O_R   0.687130 0.639470 0.490120 -0.613682
O3    O     O_R   0.519670 0.535100 0.660030 -0.596454
O4    O     O_R   0.660830 0.490120 0.621340 -0.558447
O5    O     O_R   0.312870 0.360530 0.509880 -0.591674
O6    O     O_R   0.454030 0.315550 0.471190 -0.592899
O7    O     O_R   0.339170 0.509880 0.378660 -0.582980
O8    O     O_R   0.480330 0.464900 0.339970 -0.598810
O9    O     O_3   0.347613 0.430162 0.964375 -0.638907
C49   C     C_3   0.276887 0.314015 0.911363 0.026656
H22   H     H_    0.284890 0.312446 0.836309 0.198397
H23   H     H_    0.170282 0.271948 0.898238 0.129018
C50   C     C_3   0.335535 0.244636 0.964766 -0.368974
H24   H     H_    0.442134 0.287319 0.979680 0.221632
H25   H     H_    0.321900 0.239206 0.037751 0.208729
C51   C     C_3   0.269678 0.123575 0.900715 -0.858851
H26   H     H_    0.162756 0.078448 0.885259 0.258475
H27   H     H_    0.312828 0.074751 0.941405 0.251124
H28   H     H_    0.285054 0.126432 0.828245 0.262836
O10   O     O_3   0.160430 0.893206 0.315724 -0.732726
H29   H     H_    0.073322 0.846650 0.261491 0.317720
O11   O     O_3   0.072714 0.166310 0.659489 -0.650689
C52   C     C_3   0.032456 0.246999 0.677470 0.000377
H30   H     H_    0.119169 0.333731 0.696936 0.163226
H31   H     H_    0.005625 0.239489 0.744919 0.143095
C53   C     C_3   0.922559 0.242488 0.586299 -0.380109
H32   H     H_    0.964049 0.279863 0.530045 0.213337
H33   H     H_    0.841539 0.153997 0.548307 0.224836
C54   C     C_3   0.861695 0.307480 0.619404 -0.852494
H34   H     H_    0.829279 0.276772 0.681509 0.243434
H35   H     H_    0.774293 0.293119 0.555655 0.269174
H36   H     H_    0.934319 0.400035 0.644639 0.258733
O12   O     O_3   0.310956 0.791685 0.727152 -0.620284
C55   C     C_3   0.330864 0.888611 0.685761 0.046195
H37   H     H_    0.317875 0.946679 0.734136 0.173064
H38   H     H_    0.257820 0.867873 0.608462 0.145756
C56   C     C_3   0.470609 0.952440 0.686309 -0.364785
H39   H     H_    0.542163 0.971968 0.763408 0.228907
H40   H     H_    0.483735 0.897725 0.634678 0.212723
C57   C     C_3   0.498933 0.063983 0.652623 -0.874584
H41   H     H_    0.430395 0.045987 0.574767 0.269828
H42   H     H_    0.600724 0.108027 0.654060 0.254857
H43   H     H_    0.488535 0.121594 0.703688 0.253520
O13   O     O_3   0.891019 0.602172 0.782812 -0.775734
H44   H     H_    0.980315 0.651084 0.834393 0.328360

loop_
_geom_bond_atom_site_label_1
_geom_bond_atom_site_label_2
_ccdc_geom_bond_type
C19   H6    S    
C26   H3    S    
O10   H29   S    
C40   H10   S    
C17   C29   A    
O11   C52   S    
C4    C8    A    
Cu2   O6    S    
C16   O10   S    
C17   C23   S    
C31   C43   A    
C1    O1    A    
C36   C37   A    
C5    C11   A    
C3    C7    A    
C5    C6    A    
C50   H25   S    
O12   C55   S    
C52   C53   S    
Cu1   O5    S    
C54   H36   S    
C18   C19   A    
C56   H39   S    
C47   H19   S    
C31   O12   S    
C43   H8    S    
C34   O7    A    
C11   C15   A    
C19   C20   A    
C8    C9    A    
Cu1   N1    S    
C52   H31   S    
C55   H37   S    
C18   C30   A    
C34   O8    A    
C51   H27   S    
C9    C10   A    
C44   C47   A    
C57   H43   S    
C13   C14   A    
C12   O4    A    
C55   H38   S    
C14   C45   A    
C14   H16   S    
C1    O2    A    
C24   C25   A    
C27   H7    S    
Cu2   N2    S    
C39   C40   A    
C28   H4    S    
C50   H24   S    
C41   H15   S    
C2    C48   A    
C16   C29   A    
C13   O9    S    
C10   C13   A    
C35   C36   A    
C2    C4    A    
C9    H17   S    
C46   H18   S    
C49   H22   S    
C42   H11   S    
C52   H30   S    
C53   C54   S    
C42   N1    A    
C26   C27   A    
Cu1   O3    S    
C34   C45   S    
C51   H28   S    
C54   H35   S    
C56   C57   S    
C6    C7    A    
C18   H5    S    
C40   C41   A    
C49   H23   S    
C20   O11   S    
Cu1   Cu2   S    
C22   C27   A    
C12   O3    A    
C55   C56   S    
C15   C45   A    
Cu2   O4    S    
C32   N2    A    
C57   H41   S    
C16   C25   A    
C6    H20   S    
C43   N1    A    
C37   N2    A    
C46   C47   A    
C8    H21   S    
C22   C30   A    
C53   H33   S    
C17   C28   A    
C15   H9    S    
C24   C28   A    
C4    C5    A    
C50   C51   S    
Cu1   O7    S    
C38   C42   A    
C48   O13   S    
C3    C46   A    
O13   H44   S    
C53   H32   S    
C32   C33   A    
C36   C38   A    
C2    C3    A    
C25   C26   A    
C7    H1    S    
C12   C44   S    
Cu2   O2    S    
C38   C39   A    
C33   H14   S    
C1    C30   S    
C33   C35   A    
C31   C39   A    
C23   O5    A    
C37   C41   A    
C54   H34   S    
C56   H40   S    
C10   C11   A    
C32   H12   S    
C49   C50   S    
C20   C21   A    
O9    C49   S    
C21   C24   A    
Cu1   O1    S    
C35   H13   S    
C23   O6    A    
C51   H26   S    
C21   C22   A    
C44   C48   A    
Cu2   O8    S    
C57   H42   S    
C29   H2    S    
