data_mof_unit_64784.cif
_audit_creation_date              2013-03-05T16:19:00-0500
_audit_creation_method            fapswitch 2.2
_symmetry_space_group_name_H-M    P1
_symmetry_Int_Tables_number       1
_space_group_crystal_system       triclinic
_cell_length_a                    24.438164
_cell_length_b                    24.438163
_cell_length_c                    43.108435
_cell_angle_alpha                 90.000122
_cell_angle_beta                  90.000122
_cell_angle_gamma                 90.000776
_cell_volume                      25745.38488

loop_
_atom_site_label
_atom_site_type_symbol
_atom_site_description
_atom_site_fract_x
_atom_site_fract_y
_atom_site_fract_z
_atom_type_partial_charge
Zn1   Zn    Zn3+2 0.500000 0.064990 0.224050 0.964796
Zn2   Zn    Zn3+2 0.500000 0.935010 0.775950 0.964837
Zn3   Zn    Zn3+2 0.935010 0.500000 0.224050 0.964838
Zn4   Zn    Zn3+2 0.064990 0.500000 0.775950 0.964795
Zn5   Zn    Zn3+2 0.500000 0.935010 0.224050 0.964796
Zn6   Zn    Zn3+2 0.500000 0.064990 0.775950 0.964838
Zn7   Zn    Zn3+2 0.064990 0.500000 0.224050 0.964837
Zn8   Zn    Zn3+2 0.935010 0.500000 0.775950 0.964795
Zn9   Zn    Zn3+2 0.000000 0.564990 0.724050 0.964795
Zn10  Zn    Zn3+2 1.000000 0.435010 0.275950 0.964836
Zn11  Zn    Zn3+2 0.435010 0.000000 0.724050 0.964837
Zn12  Zn    Zn3+2 0.564990 0.000000 0.275950 0.964796
Zn13  Zn    Zn3+2 0.000000 0.435010 0.724050 0.964795
Zn14  Zn    Zn3+2 1.000000 0.564990 0.275950 0.964837
Zn15  Zn    Zn3+2 0.564990 0.000000 0.724050 0.964837
Zn16  Zn    Zn3+2 0.435010 0.000000 0.275950 0.964796
C1    C     C_R   0.271332 0.228668 0.250000 0.113437
C2    C     C_R   0.728668 0.771331 0.750000 0.113901
C3    C     C_R   0.771331 0.271331 0.250000 0.113898
C4    C     C_R   0.228669 0.728669 0.750000 0.113448
C5    C     C_R   0.728669 0.771331 0.250000 0.113439
C6    C     C_R   0.271332 0.228668 0.750000 0.113902
C7    C     C_R   0.228669 0.728668 0.250000 0.113898
C8    C     C_R   0.771332 0.271331 0.750000 0.113449
C9    C     C_R   0.271331 0.771331 0.750000 0.113897
C10   C     C_R   0.728668 0.228668 0.250000 0.113448
C11   C     C_R   0.771332 0.728668 0.750000 0.113439
C12   C     C_R   0.228669 0.271331 0.250000 0.113902
C13   C     C_R   0.728669 0.228668 0.750000 0.113897
C14   C     C_R   0.271332 0.771331 0.250000 0.113448
C15   C     C_R   0.228668 0.271332 0.750000 0.113438
C16   C     C_R   0.771332 0.728668 0.250000 0.113902
O1    O     O_3   0.500000 0.000000 0.250000 -0.470289
O2    O     O_3   0.500000 0.000000 0.750000 -0.470320
O3    O     O_3   1.000000 0.500000 0.250000 -0.470319
O4    O     O_3   1.000000 0.500000 0.750000 -0.470289
O5    O     O_R   0.454480 0.000000 0.319300 -0.648263
O6    O     O_R   0.545520 0.000000 0.680700 -0.645627
O7    O     O_R   1.000000 0.454480 0.319300 -0.645630
O8    O     O_R   1.000000 0.545520 0.680700 -0.648266
O9    O     O_R   0.545520 0.000000 0.319300 -0.648264
O10   O     O_R   0.454480 0.000000 0.680700 -0.645628
O11   O     O_R   1.000000 0.545520 0.319300 -0.645630
O12   O     O_R   0.000000 0.454480 0.680700 -0.648267
O13   O     O_R   0.954480 0.500000 0.819300 -0.648264
O14   O     O_R   0.045520 0.500000 0.180700 -0.645628
O15   O     O_R   0.500000 0.954480 0.819300 -0.645628
O16   O     O_R   0.500000 0.045520 0.180700 -0.648265
O17   O     O_R   0.045520 0.500000 0.819300 -0.648265
O18   O     O_R   0.954480 0.500000 0.180700 -0.645628
O19   O     O_R   0.500000 0.045520 0.819300 -0.645628
O20   O     O_R   0.500000 0.954480 0.180700 -0.648264
O21   O     O_R   0.609440 0.064000 0.268180 -0.645608
O22   O     O_R   0.390560 0.936000 0.731820 -0.646909
O23   O     O_R   0.936000 0.609440 0.268180 -0.646954
O24   O     O_R   0.064000 0.390560 0.731820 -0.645649
O25   O     O_R   0.390560 0.936000 0.268180 -0.645606
O26   O     O_R   0.609440 0.064000 0.731820 -0.646908
O27   O     O_R   0.064000 0.390560 0.268180 -0.646956
O28   O     O_R   0.936000 0.609440 0.731820 -0.645649
O29   O     O_R   0.609440 0.936000 0.731820 -0.646938
O30   O     O_R   0.390560 0.064000 0.268180 -0.645634
O31   O     O_R   0.936000 0.390560 0.731820 -0.645595
O32   O     O_R   0.064000 0.609440 0.268180 -0.646893
O33   O     O_R   0.390560 0.064000 0.731820 -0.646939
O34   O     O_R   0.609440 0.936000 0.268180 -0.645636
O35   O     O_R   0.064000 0.609440 0.731820 -0.645594
O36   O     O_R   0.936000 0.390560 0.268180 -0.646892
O37   O     O_R   0.109440 0.564000 0.768180 -0.645612
O38   O     O_R   0.890560 0.436000 0.231820 -0.646913
O39   O     O_R   0.436000 0.109440 0.768180 -0.646953
O40   O     O_R   0.564000 0.890560 0.231820 -0.645647
O41   O     O_R   0.890560 0.436000 0.768180 -0.645611
O42   O     O_R   0.109440 0.564000 0.231820 -0.646912
O43   O     O_R   0.564000 0.890560 0.768180 -0.646954
O44   O     O_R   0.436000 0.109440 0.231820 -0.645645
O45   O     O_R   0.109440 0.436000 0.231820 -0.646935
O46   O     O_R   0.890560 0.564000 0.768180 -0.645632
O47   O     O_R   0.436000 0.890560 0.231820 -0.645597
O48   O     O_R   0.564000 0.109440 0.768180 -0.646894
O49   O     O_R   0.890560 0.564000 0.231820 -0.646934
O50   O     O_R   0.109440 0.436000 0.768180 -0.645632
O51   O     O_R   0.564000 0.109440 0.231820 -0.645594
O52   O     O_R   0.436000 0.890560 0.768180 -0.646893
C17   C     C_R   0.500000 1.000000 0.032365 0.145393
C18   C     C_R   0.500001 0.000000 0.967637 0.145244
C19   C     C_R   1.000000 0.499999 0.032363 0.145243
C20   C     C_R   0.000000 0.499999 0.967635 0.145391
C21   C     C_R   0.000003 0.499999 0.532366 0.145382
C22   C     C_R   0.000002 0.500000 0.467637 0.145234
C23   C     C_R   0.499999 1.000000 0.532363 0.145246
C24   C     C_R   0.500000 1.000000 0.467635 0.145393
C25   C     C_R   0.000595 0.450437 0.384748 -0.197127
C26   C     C_R   0.999405 0.549563 0.615253 -0.199819
C27   C     C_R   0.549567 0.999637 0.384748 -0.199818
C28   C     C_R   0.450433 0.000367 0.615250 -0.197124
C29   C     C_R   0.999407 0.549564 0.384749 -0.197124
C30   C     C_R   0.000598 0.450436 0.615253 -0.199817
C31   C     C_R   0.450434 0.000363 0.384748 -0.199819
C32   C     C_R   0.549566 0.999633 0.615250 -0.197124
C33   C     C_R   0.500582 0.950436 0.884749 -0.197123
C34   C     C_R   0.499439 0.049564 0.115253 -0.199817
C35   C     C_R   0.049567 0.499699 0.884748 -0.199819
C36   C     C_R   0.950433 0.500303 0.115250 -0.197125
C37   C     C_R   0.499421 0.049564 0.884749 -0.197120
C38   C     C_R   0.500560 0.950435 0.115253 -0.199817
C39   C     C_R   0.950433 0.500301 0.884748 -0.199820
C40   C     C_R   0.049566 0.499696 0.115250 -0.197126
H1    H     H_    0.001081 0.411995 0.372230 0.170499
H2    H     H_    0.998916 0.588005 0.627772 0.168936
H3    H     H_    0.588010 0.999338 0.372228 0.168939
H4    H     H_    0.411990 0.000668 0.627769 0.170501
H5    H     H_    0.998920 0.588005 0.372230 0.170498
H6    H     H_    0.001086 0.411994 0.627773 0.168936
H7    H     H_    0.411990 0.000662 0.372228 0.168939
H8    H     H_    0.588009 0.999332 0.627769 0.170501
H9    H     H_    0.501058 0.911995 0.872229 0.170499
H10   H     H_    0.498980 0.088006 0.127773 0.168938
H11   H     H_    0.088011 0.499451 0.872229 0.168940
H12   H     H_    0.911989 0.500552 0.127769 0.170501
H13   H     H_    0.498944 0.088006 0.872230 0.170498
H14   H     H_    0.501020 0.911994 0.127773 0.168938
H15   H     H_    0.911989 0.500548 0.872228 0.168939
H16   H     H_    0.088010 0.499447 0.127769 0.170501
C41   C     C_R   0.000613 0.449916 0.417220 0.175129
C42   C     C_R   0.999388 0.550084 0.582782 0.175819
C43   C     C_R   0.550087 0.999626 0.417218 0.175826
C44   C     C_R   0.449913 0.000378 0.582779 0.175134
C45   C     C_R   0.999390 0.550085 0.417220 0.175129
C46   C     C_R   0.000617 0.449915 0.582782 0.175820
C47   C     C_R   0.449913 0.000374 0.417218 0.175826
C48   C     C_R   0.550086 0.999622 0.582779 0.175134
C49   C     C_R   0.500600 0.949915 0.917220 0.175133
C50   C     C_R   0.499422 0.050085 0.082782 0.175828
C51   C     C_R   0.050088 0.499690 0.917219 0.175824
C52   C     C_R   0.949913 0.500312 0.082779 0.175131
C53   C     C_R   0.499404 0.050085 0.917220 0.175134
C54   C     C_R   0.500577 0.949914 0.082782 0.175827
C55   C     C_R   0.949913 0.500310 0.917219 0.175824
C56   C     C_R   0.050087 0.499687 0.082779 0.175131
C57   C     C_R   0.000002 0.500000 0.433552 0.055234
C58   C     C_R   0.000003 0.500000 0.566450 0.055462
C59   C     C_R   0.500000 1.000000 0.433551 0.055451
C60   C     C_R   0.499999 1.000000 0.566447 0.055223
C61   C     C_R   0.500002 0.000000 0.933553 0.055231
C62   C     C_R   0.500000 1.000000 0.066449 0.055457
C63   C     C_R   0.000000 0.499999 0.933551 0.055447
C64   C     C_R   1.000000 0.499999 0.066447 0.055220
C65   C     C_R   0.500000 0.000000 0.334166 0.810870
C66   C     C_R   0.500000 0.000000 0.665833 0.813630
C67   C     C_R   0.000000 0.500000 0.334166 0.813634
C68   C     C_R   0.000000 0.500000 0.665834 0.810876
C69   C     C_R   0.000000 0.500000 0.834166 0.810873
C70   C     C_R   1.000000 0.500000 0.165833 0.813631
C71   C     C_R   0.500000 0.000000 0.834166 0.813631
C72   C     C_R   0.500000 1.000000 0.165834 0.810871
C73   C     C_R   0.605150 0.105150 0.250000 0.785292
C74   C     C_R   0.394850 0.894850 0.750000 0.783943
C75   C     C_R   0.894849 0.605151 0.250000 0.783911
C76   C     C_R   0.105150 0.394850 0.750000 0.785263
C77   C     C_R   0.394850 0.894850 0.250000 0.785292
C78   C     C_R   0.605150 0.105150 0.750000 0.783944
C79   C     C_R   0.105150 0.394849 0.250000 0.783912
C80   C     C_R   0.894849 0.605150 0.750000 0.785261
C81   C     C_R   0.605150 0.894849 0.750000 0.783909
C82   C     C_R   0.394850 0.105150 0.250000 0.785259
C83   C     C_R   0.894850 0.394850 0.750000 0.785292
C84   C     C_R   0.105150 0.605150 0.250000 0.783944
C85   C     C_R   0.394849 0.105150 0.750000 0.783911
C86   C     C_R   0.605151 0.894849 0.250000 0.785264
C87   C     C_R   0.105150 0.605150 0.750000 0.785294
C88   C     C_R   0.894850 0.394850 0.250000 0.783943
C89   C     C_R   0.000000 0.500000 0.368358 -0.102010
C90   C     C_R   0.000001 0.500000 0.631643 -0.100716
C91   C     C_R   0.500000 1.000000 0.368357 -0.100731
C92   C     C_R   0.500000 0.000000 0.631641 -0.102025
C93   C     C_R   0.500001 0.000000 0.868358 -0.102020
C94   C     C_R   0.500000 1.000000 0.131643 -0.100726
C95   C     C_R   0.000000 0.500000 0.868357 -0.100729
C96   C     C_R   1.000000 0.500000 0.131641 -0.102023
C97   C     C_R   0.049625 0.502406 0.483835 -0.188333
C98   C     C_R   0.950380 0.497594 0.516168 -0.188496
C99   C     C_R   0.498365 0.950346 0.483832 -0.188515
C100  C     C_R   0.501635 0.049654 0.516166 -0.188354
C101  C     C_R   0.950380 0.497594 0.483835 -0.188335
C102  C     C_R   0.049625 0.502406 0.516168 -0.188496
C103  C     C_R   0.501635 0.049654 0.483832 -0.188515
C104  C     C_R   0.498365 0.950346 0.516166 -0.188353
C105  C     C_R   0.549627 0.002324 0.983835 -0.188349
C106  C     C_R   0.450374 0.997676 0.016168 -0.188507
C107  C     C_R   0.998662 0.450336 0.983831 -0.188517
C108  C     C_R   0.001338 0.549662 0.016166 -0.188355
C109  C     C_R   0.450374 0.997676 0.983834 -0.188347
C110  C     C_R   0.549627 0.002323 0.016168 -0.188508
C111  C     C_R   0.001339 0.549662 0.983832 -0.188518
C112  C     C_R   0.998661 0.450336 0.016166 -0.188355
H17   H     H_    0.088101 0.504283 0.471405 0.136376
H18   H     H_    0.911903 0.495716 0.528597 0.136136
H19   H     H_    0.497089 0.911845 0.471403 0.136144
H20   H     H_    0.502911 0.088154 0.528595 0.136385
H21   H     H_    0.911903 0.495717 0.471405 0.136377
H22   H     H_    0.088102 0.504283 0.528597 0.136135
H23   H     H_    0.502911 0.088154 0.471403 0.136143
H24   H     H_    0.497089 0.911845 0.528594 0.136385
H25   H     H_    0.588106 0.004136 0.971406 0.136384
H26   H     H_    0.411895 0.995864 0.028596 0.136141
H27   H     H_    0.997618 0.411829 0.971403 0.136144
H28   H     H_    0.002382 0.588170 0.028595 0.136385
H29   H     H_    0.411896 0.995864 0.971405 0.136384
H30   H     H_    0.588105 0.004136 0.028597 0.136142
H31   H     H_    0.002383 0.588170 0.971403 0.136144
H32   H     H_    0.997617 0.411829 0.028594 0.136385
C113  C     C_R   0.276506 0.192815 0.275297 -0.180528
C114  C     C_R   0.739721 0.823412 0.737723 -0.180543
C115  C     C_R   0.823410 0.260280 0.262279 -0.180556
C116  C     C_R   0.192808 0.723501 0.724705 -0.180551
C117  C     C_R   0.723502 0.807193 0.275294 -0.180529
C118  C     C_R   0.260280 0.176589 0.737722 -0.180544
C119  C     C_R   0.176588 0.739721 0.262277 -0.180555
C120  C     C_R   0.807191 0.276499 0.724706 -0.180547
C121  C     C_R   0.260278 0.823412 0.737724 -0.180555
C122  C     C_R   0.723496 0.192813 0.275296 -0.180542
C123  C     C_R   0.807191 0.723499 0.724705 -0.180527
C124  C     C_R   0.176591 0.260282 0.262282 -0.180544
C125  C     C_R   0.739721 0.176587 0.737725 -0.180554
C126  C     C_R   0.276501 0.807190 0.275295 -0.180546
C127  C     C_R   0.192810 0.276502 0.724704 -0.180528
C128  C     C_R   0.823413 0.739722 0.262276 -0.180543
C129  C     C_R   0.776500 0.692809 0.775295 -0.180531
C130  C     C_R   0.239718 0.323409 0.237718 -0.180545
C131  C     C_R   0.323412 0.760278 0.762275 -0.180555
C132  C     C_R   0.692813 0.223496 0.224703 -0.180549
C133  C     C_R   0.223498 0.307189 0.775295 -0.180528
C134  C     C_R   0.760278 0.676587 0.237724 -0.180544
C135  C     C_R   0.676588 0.239722 0.762275 -0.180554
C136  C     C_R   0.307190 0.776500 0.224705 -0.180547
C137  C     C_R   0.760280 0.323410 0.237721 -0.180556
C138  C     C_R   0.223501 0.692809 0.775294 -0.180542
C139  C     C_R   0.307185 0.223494 0.224703 -0.180526
C140  C     C_R   0.676588 0.760279 0.762277 -0.180543
C141  C     C_R   0.239721 0.676588 0.237723 -0.180556
C142  C     C_R   0.776499 0.307191 0.775295 -0.180546
C143  C     C_R   0.692807 0.776498 0.224706 -0.180530
C144  C     C_R   0.323411 0.239720 0.762278 -0.180543
H33   H     H_    0.250100 0.196488 0.295357 0.130161
H34   H     H_    0.779791 0.833402 0.728626 0.129904
H35   H     H_    0.833400 0.220211 0.271376 0.129910
H36   H     H_    0.196476 0.749912 0.704648 0.130166
H37   H     H_    0.749914 0.803526 0.295352 0.130162
H38   H     H_    0.220210 0.166598 0.728624 0.129904
H39   H     H_    0.166598 0.779791 0.271373 0.129910
H40   H     H_    0.803523 0.250087 0.704648 0.130165
H41   H     H_    0.220208 0.833403 0.728629 0.129909
H42   H     H_    0.749904 0.196485 0.295355 0.130164
H43   H     H_    0.803521 0.749910 0.704647 0.130161
H44   H     H_    0.166602 0.220214 0.271381 0.129904
H45   H     H_    0.779792 0.166596 0.728630 0.129909
H46   H     H_    0.250091 0.803521 0.295353 0.130164
H47   H     H_    0.196480 0.250092 0.704646 0.130161
H48   H     H_    0.833404 0.779792 0.271371 0.129904
H49   H     H_    0.750090 0.696478 0.795353 0.130162
H50   H     H_    0.279786 0.333398 0.228619 0.129905
H51   H     H_    0.333403 0.720208 0.771370 0.129910
H52   H     H_    0.696485 0.249903 0.204644 0.130165
H53   H     H_    0.249908 0.303520 0.795354 0.130161
H54   H     H_    0.720208 0.666595 0.228629 0.129905
H55   H     H_    0.666597 0.279792 0.771370 0.129910
H56   H     H_    0.303520 0.750090 0.204647 0.130165
H57   H     H_    0.720211 0.333399 0.228623 0.129910
H58   H     H_    0.249912 0.696477 0.795352 0.130164
H59   H     H_    0.303512 0.249900 0.204643 0.130161
H60   H     H_    0.666598 0.720209 0.771374 0.129904
H61   H     H_    0.279790 0.666598 0.228627 0.129910
H62   H     H_    0.750088 0.303523 0.795352 0.130164
H63   H     H_    0.696474 0.750086 0.204648 0.130161
H64   H     H_    0.333401 0.279790 0.771375 0.129904
C145  C     C_R   0.316509 0.152290 0.275188 -0.188947
C146  C     C_R   0.699321 0.863539 0.737514 -0.190073
C147  C     C_R   0.863538 0.300680 0.262487 -0.190045
C148  C     C_R   0.152284 0.683497 0.724815 -0.188935
C149  C     C_R   0.683499 0.847717 0.275185 -0.188950
C150  C     C_R   0.300679 0.136462 0.737513 -0.190072
C151  C     C_R   0.136461 0.699321 0.262486 -0.190045
C152  C     C_R   0.847716 0.316502 0.724815 -0.188940
C153  C     C_R   0.300678 0.863540 0.737516 -0.190055
C154  C     C_R   0.683493 0.152288 0.275187 -0.188948
C155  C     C_R   0.847715 0.683496 0.724814 -0.188954
C156  C     C_R   0.136464 0.300681 0.262490 -0.190083
C157  C     C_R   0.699322 0.136460 0.737516 -0.190056
C158  C     C_R   0.316504 0.847714 0.275186 -0.188942
C159  C     C_R   0.152286 0.316505 0.724814 -0.188951
C160  C     C_R   0.863540 0.699322 0.262484 -0.190084
C161  C     C_R   0.816503 0.652285 0.775185 -0.188947
C162  C     C_R   0.199319 0.363536 0.237510 -0.190070
C163  C     C_R   0.363540 0.800678 0.762484 -0.190046
C164  C     C_R   0.652288 0.183492 0.224813 -0.188935
C165  C     C_R   0.183495 0.347714 0.775186 -0.188948
C166  C     C_R   0.800678 0.636460 0.237516 -0.190070
C167  C     C_R   0.636460 0.199322 0.762484 -0.190046
C168  C     C_R   0.347715 0.816504 0.224814 -0.188939
C169  C     C_R   0.800680 0.363538 0.237512 -0.190058
C170  C     C_R   0.183498 0.652284 0.775185 -0.188949
C171  C     C_R   0.347710 0.183491 0.224812 -0.188953
C172  C     C_R   0.636461 0.800679 0.762486 -0.190083
C173  C     C_R   0.199321 0.636461 0.237514 -0.190057
C174  C     C_R   0.816503 0.347716 0.775185 -0.188943
C175  C     C_R   0.652283 0.816501 0.224815 -0.188950
C176  C     C_R   0.363538 0.199321 0.762487 -0.190083
H65   H     H_    0.319781 0.125216 0.294996 0.155215
H66   H     H_    0.708866 0.903430 0.727989 0.154061
H67   H     H_    0.903428 0.291137 0.272014 0.154077
H68   H     H_    0.125204 0.680230 0.705009 0.155272
H69   H     H_    0.680233 0.874797 0.294991 0.155220
H70   H     H_    0.291135 0.096571 0.727987 0.154061
H71   H     H_    0.096570 0.708865 0.272011 0.154074
H72   H     H_    0.874796 0.319769 0.705009 0.155273
H73   H     H_    0.291133 0.903432 0.727992 0.154071
H74   H     H_    0.680222 0.125212 0.294994 0.155256
H75   H     H_    0.874793 0.680229 0.705008 0.155205
H76   H     H_    0.096575 0.291139 0.272019 0.154063
H77   H     H_    0.708866 0.096568 0.727992 0.154071
H78   H     H_    0.319773 0.874793 0.294992 0.155258
H79   H     H_    0.125208 0.319773 0.705007 0.155203
H80   H     H_    0.903432 0.708867 0.272008 0.154057
H81   H     H_    0.819771 0.625206 0.794992 0.155222
H82   H     H_    0.208861 0.403425 0.227981 0.154066
H83   H     H_    0.403432 0.791134 0.772008 0.154074
H84   H     H_    0.625212 0.180222 0.205005 0.155267
H85   H     H_    0.180227 0.374792 0.794993 0.155221
H86   H     H_    0.791132 0.596568 0.227992 0.154060
H87   H     H_    0.596568 0.208867 0.772008 0.154073
H88   H     H_    0.374793 0.819772 0.205008 0.155269
H89   H     H_    0.791137 0.403428 0.227986 0.154073
H90   H     H_    0.180231 0.625204 0.794991 0.155257
H91   H     H_    0.374784 0.180219 0.205004 0.155203
H92   H     H_    0.596570 0.791134 0.772011 0.154059
H93   H     H_    0.208865 0.596570 0.227989 0.154072
H94   H     H_    0.819770 0.374796 0.794991 0.155256
H95   H     H_    0.625203 0.819767 0.205009 0.155207
H96   H     H_    0.403429 0.208865 0.772013 0.154060
C177  C     C_R   0.352488 0.147512 0.250000 0.001206
C178  C     C_R   0.647512 0.852487 0.750000 0.002111
C179  C     C_R   0.852488 0.352488 0.250000 0.002104
C180  C     C_R   0.147512 0.647512 0.750000 0.001178
C181  C     C_R   0.647512 0.852487 0.250000 0.001199
C182  C     C_R   0.352488 0.147512 0.750000 0.002109
C183  C     C_R   0.147512 0.647512 0.250000 0.002106
C184  C     C_R   0.852488 0.352488 0.750000 0.001177
C185  C     C_R   0.352488 0.852488 0.750000 0.002108
C186  C     C_R   0.647512 0.147512 0.250000 0.001182
C187  C     C_R   0.852487 0.647512 0.750000 0.001201
C188  C     C_R   0.147513 0.352487 0.250000 0.002106
C189  C     C_R   0.647512 0.147512 0.750000 0.002108
C190  C     C_R   0.352488 0.852488 0.250000 0.001178
C191  C     C_R   0.147512 0.352488 0.750000 0.001201
C192  C     C_R   0.852487 0.647512 0.250000 0.002111
C193  C     C_3   0.001403 0.395921 0.434138 -0.915482
H97   H     H_    0.038394 0.393422 0.449025 0.246631
H98   H     H_    0.964332 0.392174 0.448872 0.245953
H99   H     H_    0.002094 0.360719 0.417842 0.236759
C194  C     C_3   0.998597 0.604079 0.565864 -0.917477
H100  H     H_    0.035668 0.607827 0.551130 0.246111
H101  H     H_    0.961606 0.606577 0.550977 0.246790
H102  H     H_    0.997904 0.639281 0.582160 0.236149
C195  C     C_3   0.604085 0.999133 0.434137 -0.917488
H103  H     H_    0.607601 0.036199 0.448894 0.246214
H104  H     H_    0.606809 0.962132 0.449002 0.246700
H105  H     H_    0.639290 0.998688 0.417843 0.236154
C196  C     C_3   0.395916 0.000874 0.565860 -0.915489
H106  H     H_    0.393194 0.037876 0.550995 0.246539
H107  H     H_    0.392397 0.963809 0.551103 0.246057
H108  H     H_    0.360710 0.001322 0.582154 0.236764
C197  C     C_3   0.998601 0.604079 0.434138 -0.915482
H109  H     H_    0.961611 0.606578 0.449026 0.246631
H110  H     H_    0.035672 0.607827 0.448871 0.245952
H111  H     H_    0.997907 0.639281 0.417843 0.236760
C198  C     C_3   0.001410 0.395920 0.565864 -0.917476
H112  H     H_    0.964340 0.392171 0.551130 0.246111
H113  H     H_    0.038401 0.393423 0.550978 0.246789
H114  H     H_    0.002103 0.360719 0.582160 0.236149
C199  C     C_3   0.395916 0.000866 0.434137 -0.917484
H115  H     H_    0.392399 0.963801 0.448894 0.246214
H116  H     H_    0.393192 0.037867 0.449002 0.246699
H117  H     H_    0.360710 0.001312 0.417843 0.236153
C200  C     C_3   0.604083 0.999126 0.565860 -0.915488
H118  H     H_    0.606805 0.962125 0.550995 0.246539
H119  H     H_    0.607602 0.036191 0.551103 0.246058
H120  H     H_    0.639289 0.998679 0.582154 0.236764
C201  C     C_3   0.501372 0.895920 0.934138 -0.915496
H121  H     H_    0.538365 0.893407 0.949022 0.246620
H122  H     H_    0.464303 0.892190 0.948875 0.245970
H123  H     H_    0.502045 0.860719 0.917843 0.236766
C202  C     C_3   0.498674 0.104081 0.065865 -0.917495
H124  H     H_    0.535745 0.107797 0.051129 0.246121
H125  H     H_    0.461684 0.106610 0.050979 0.246783
H126  H     H_    0.498014 0.139282 0.082159 0.236155
C203  C     C_3   0.104085 0.499283 0.934138 -0.917481
H127  H     H_    0.107531 0.536342 0.948905 0.246260
H128  H     H_    0.106878 0.462274 0.948993 0.246656
H129  H     H_    0.139292 0.498916 0.917844 0.236154
C204  C     C_3   0.895915 0.500722 0.065859 -0.915481
H130  H     H_    0.893125 0.537730 0.051004 0.246497
H131  H     H_    0.892467 0.463662 0.051092 0.246103
H132  H     H_    0.860708 0.501090 0.082153 0.236764
C205  C     C_3   0.498634 0.104080 0.934138 -0.915503
H133  H     H_    0.461641 0.106595 0.949022 0.246619
H134  H     H_    0.535702 0.107809 0.948876 0.245971
H135  H     H_    0.497964 0.139281 0.917844 0.236768
C206  C     C_3   0.501325 0.895918 0.065864 -0.917497
H136  H     H_    0.464254 0.892202 0.051128 0.246121
H137  H     H_    0.538315 0.893389 0.050979 0.246785
H138  H     H_    0.501985 0.860717 0.082159 0.236155
C207  C     C_3   0.895916 0.500717 0.934138 -0.917477
H139  H     H_    0.860708 0.501084 0.917844 0.236153
H140  H     H_    0.892469 0.463657 0.948905 0.246260
H141  H     H_    0.893123 0.537725 0.948993 0.246655
C208  C     C_3   0.104084 0.499277 0.065860 -0.915480
H142  H     H_    0.139291 0.498909 0.082153 0.236763
H143  H     H_    0.106875 0.462268 0.051004 0.246496
H144  H     H_    0.107532 0.536337 0.051092 0.246103

loop_
_geom_bond_atom_site_label_1
_geom_bond_atom_site_label_2
_geom_bond_distance
_ccdc_geom_bond_type
C48   C60   1.412103 A    
C141  C173  1.391576 A    
C23   C104  1.400560 A    
Zn4   O4    1.942649 S    
C115  H35   1.082715 S    
C193  H97   1.110300 S    
C116  C148  1.391581 A    
C21   C102  1.400582 A    
C176  C182  1.402034 A    
C76   C191  1.464069 S    
C171  H91   1.083204 S    
C86   C181  1.464070 S    
C130  H50   1.082714 S    
C24   C103  1.400560 A    
C16   C134  1.404611 A    
C124  H44   1.082716 S    
C133  C165  1.391585 A    
C54   C206  1.507788 S    
O17   C69   1.283809 A    
C203  H128  1.110278 S    
C18   C109  1.400574 A    
C201  H122  1.110201 S    
C30   H6    1.083494 S    
O9    C65   1.283811 A    
C102  H22   1.083213 S    
C138  H58   1.082715 S    
C27   C91   1.402363 A    
C107  C112  1.393881 A    
C198  H114  1.110764 S    
C72   C94   1.473929 S    
C105  C110  1.393855 A    
C106  H26   1.083175 S    
C99   C104  1.393881 A    
O44   C82   1.279259 A    
C164  H84   1.083213 S    
C196  H108  1.110728 S    
Zn2   O2    1.942655 S    
C26   C42   1.399854 A    
C207  H140  1.110220 S    
C147  C179  1.402030 A    
C23   C100  1.400565 A    
C118  H38   1.082716 S    
O47   C77   1.279258 A    
C6    C144  1.404610 A    
Zn4   O37   1.933488 S    
C170  C180  1.402039 A    
C122  H42   1.082717 S    
Zn6   O39   1.933511 S    
C50   C62   1.412121 A    
C194  H102  1.110767 S    
C7    C119  1.404607 A    
C166  H86   1.083213 S    
C29   C89   1.402338 A    
C19   C64   1.469308 S    
C108  C111  1.393881 A    
C125  H45   1.082718 S    
C51   C203  1.507775 S    
C197  H111  1.110760 S    
O5    C65   1.283811 A    
Zn12  O34   1.933511 S    
C65   C91   1.473925 S    
C98   C101  1.393838 A    
C194  H101  1.110301 S    
Zn6   O48   1.933488 S    
Zn13  O31   1.933488 S    
Zn14  O32   1.933488 S    
Zn3   O38   1.933488 S    
C50   C202  1.507786 S    
C160  C192  1.402030 A    
Zn15  O29   1.933511 S    
C120  C152  1.391583 A    
C43   C59   1.412110 A    
C121  C153  1.391576 A    
C150  H70   1.083215 S    
C8    C120  1.404607 A    
C156  C188  1.402034 A    
C11   C129  1.404618 A    
C193  H99   1.110764 S    
C33   C49   1.399828 A    
C120  H40   1.082713 S    
C201  H121  1.110291 S    
C195  H105  1.110727 S    
C150  C182  1.402031 A    
O26   C78   1.279258 A    
C18   C61   1.469321 S    
C12   C130  1.404611 A    
C81   C178  1.464072 S    
C47   C59   1.412107 A    
C174  H94   1.083208 S    
C170  H90   1.083201 S    
C39   C95   1.402361 A    
C11   C123  1.404618 A    
C37   C93   1.402356 A    
C32   C48   1.399828 A    
Zn1   O16   1.928378 S    
Zn10  O36   1.933486 S    
Zn2   O15   1.928378 S    
C116  H36   1.082709 S    
C202  H124  1.110194 S    
C149  C181  1.402036 A    
Zn4   O17   1.928379 S    
O35   C87   1.279258 A    
C172  H92   1.083214 S    
C144  C176  1.391581 A    
C122  C154  1.391585 A    
C195  H103  1.110210 S    
C175  C181  1.402029 A    
C145  H65   1.083205 S    
Zn12  O1    1.942649 S    
C4    C138  1.404604 A    
C25   C89   1.402336 A    
C158  C190  1.402027 A    
C3    C115  1.404604 A    
C143  C175  1.391586 A    
C22   C57   1.469334 S    
C112  H32   1.083187 S    
O25   C77   1.279260 A    
Zn16  O30   1.933511 S    
C56   C208  1.507778 S    
C75   C192  1.464070 S    
Zn13  O12   1.928379 S    
Zn2   O43   1.933511 S    
Zn14  O11   1.928379 S    
C200  H119  1.110211 S    
C20   C107  1.400563 A    
C161  H81   1.083202 S    
C14   C126  1.404613 A    
C97   H17   1.083215 S    
C204  H130  1.110278 S    
C157  H77   1.083213 S    
C131  C163  1.391574 A    
C80   C187  1.464070 S    
O19   C71   1.283817 A    
O12   C68   1.283800 A    
C127  C159  1.391586 A    
Zn5   O40   1.933511 S    
C136  C168  1.391583 A    
Zn8   O4    1.942655 S    
C137  C169  1.391576 A    
C132  C164  1.391585 A    
C101  H21   1.083215 S    
O7    C67   1.283813 A    
O8    C68   1.283800 A    
C3    C10   1.474457 S    
C13   C135  1.404606 A    
Zn8   O13   1.928378 S    
C109  H29   1.083168 S    
C41   C57   1.412091 A    
C142  C174  1.391583 A    
Zn5   O1    1.942654 S    
Zn3   O49   1.933511 S    
C199  H117  1.110731 S    
Zn10  O3    1.942655 S    
Zn5   O47   1.933488 S    
C35   C95   1.402362 A    
Zn12  O21   1.933488 S    
C5    C143  1.404622 A    
Zn13  O24   1.933511 S    
O31   C83   1.279258 A    
Zn14  O23   1.933511 S    
C5    C117  1.404614 A    
C134  C166  1.391579 A    
C2    C114  1.404611 A    
C117  H37   1.082712 S    
C173  C183  1.402028 A    
C159  C191  1.402027 A    
C208  H143  1.110282 S    
Zn3   O18   1.928379 S    
C2    C140  1.404610 A    
C135  H55   1.082716 S    
C202  H126  1.110726 S    
C121  H41   1.082717 S    
Zn7   O14   1.928378 S    
C78   C189  1.464050 S    
C128  C160  1.391583 A    
C205  H135  1.110718 S    
O52   C74   1.279258 A    
C104  H24   1.083183 S    
Zn9   O35   1.933486 S    
C110  H30   1.083170 S    
C88   C179  1.464054 S    
C22   C97   1.400585 A    
Zn3   O3    1.942654 S    
C12   C124  1.404609 A    
C38   H14   1.083486 S    
C152  C184  1.402033 A    
C107  H27   1.083188 S    
C206  H138  1.110724 S    
C113  H33   1.082714 S    
O48   C78   1.279256 A    
C52   C64   1.412092 A    
Zn11  O22   1.933488 S    
C139  C171  1.391586 A    
C174  C184  1.402029 A    
C140  C172  1.391581 A    
C125  C157  1.391574 A    
C34   C94   1.402347 A    
Zn15  O26   1.933486 S    
C143  H63   1.082709 S    
C204  H132  1.110736 S    
C8    C142  1.404612 A    
C136  H56   1.082714 S    
C131  H51   1.082716 S    
C36   C52   1.399840 A    
O30   C82   1.279260 A    
Zn1   O44   1.933511 S    
C97   C102  1.393838 A    
C128  H48   1.082715 S    
C147  H67   1.083213 S    
C129  H49   1.082710 S    
C118  C150  1.391579 A    
C51   C63   1.412098 A    
C52   C204  1.507780 S    
C100  C103  1.393877 A    
C154  H74   1.083202 S    
C206  H136  1.110196 S    
C154  C186  1.402038 A    
C151  H71   1.083216 S    
C203  H127  1.110219 S    
C49   C201  1.507791 S    
C53   C205  1.507787 S    
C54   C62   1.412119 A    
C148  H68   1.083210 S    
O28   C80   1.279261 A    
O29   C81   1.279264 A    
C39   C55   1.399832 A    
C46   C58   1.412098 A    
C198  H113  1.110303 S    
O27   C79   1.279259 A    
C37   C53   1.399823 A    
C31   C91   1.402361 A    
C144  H64   1.082716 S    
C163  H83   1.083214 S    
C19   C108  1.400563 A    
C14   C136  1.404608 A    
C79   C188  1.464076 S    
C38   C94   1.402346 A    
C25   H1    1.083478 S    
C196  H107  1.110213 S    
C69   C95   1.473933 S    
C207  H139  1.110735 S    
C70   C96   1.473972 S    
C47   C199  1.507778 S    
Zn2   O52   1.933486 S    
C32   H8    1.083489 S    
C39   H15   1.083492 S    
O41   C83   1.279260 A    
C126  H46   1.082713 S    
O42   C84   1.279258 A    
C146  H66   1.083212 S    
C119  C151  1.391574 A    
C15   C133  1.404615 A    
C67   C89   1.473977 S    
C4    C116  1.404616 A    
C53   C61   1.412113 A    
C169  C179  1.402028 A    
C40   H16   1.083488 S    
C196  H106  1.110280 S    
C3    C137  1.404605 A    
C84   C183  1.464050 S    
C31   H7    1.083493 S    
C17   C110  1.400576 A    
C45   C57   1.412091 A    
C4    C9    1.474453 S    
C21   C58   1.469329 S    
C103  H23   1.083185 S    
C28   C44   1.399828 A    
Zn11  O10   1.928379 S    
O37   C87   1.279256 A    
C141  H61   1.082714 S    
C176  H96   1.083213 S    
C24   C59   1.469312 S    
O38   C88   1.279259 A    
C8    C13   1.474455 S    
C106  C109  1.393855 A    
C16   C128  1.404609 A    
C105  H25   1.083168 S    
C32   C92   1.402368 A    
O39   C85   1.279261 A    
C74   C185  1.464052 S    
C132  H52   1.082713 S    
Zn15  O2    1.942656 S    
Zn16  O5    1.928378 S    
O23   C75   1.279258 A    
O16   C72   1.283806 A    
C193  H98   1.110201 S    
C119  H39   1.082716 S    
C20   C111  1.400562 A    
C56   C64   1.412094 A    
C73   C186  1.464045 S    
C87   C180  1.464047 S    
Zn7   O42   1.933486 S    
C113  C145  1.391588 A    
C138  C170  1.391581 A    
C167  H87   1.083215 S    
O14   C70   1.283822 A    
C153  H73   1.083217 S    
C155  H75   1.083202 S    
C156  H76   1.083212 S    
C203  H129  1.110731 S    
C42   C194  1.507780 S    
C17   C106  1.400576 A    
C26   H2    1.083490 S    
Zn9   O8    1.928378 S    
Zn6   O2    1.942649 S    
O33   C85   1.279256 A    
Zn10  O7    1.928378 S    
Zn12  O9    1.928379 S    
C28   H4    1.083489 S    
C148  C180  1.402025 A    
C30   C46   1.399849 A    
Zn4   O50   1.933511 S    
C55   C207  1.507776 S    
C207  H141  1.110280 S    
C172  C178  1.402032 A    
O13   C69   1.283809 A    
C82   C177  1.464067 S    
C175  H95   1.083210 S    
O11   C67   1.283813 A    
C200  H118  1.110280 S    
C9    C131  1.404605 A    
C28   C92   1.402368 A    
C167  C189  1.402031 A    
C164  C186  1.402021 A    
C160  H80   1.083213 S    
C100  H20   1.083185 S    
C22   C101  1.400582 A    
C139  H59   1.082714 S    
Zn1   O51   1.933486 S    
Zn9   O28   1.933511 S    
C33   H9    1.083491 S    
C21   C98   1.400581 A    
C205  H134  1.110189 S    
Zn10  O27   1.933511 S    
O32   C84   1.279256 A    
O36   C88   1.279260 A    
Zn8   O41   1.933486 S    
C20   C63   1.469304 S    
C42   C58   1.412096 A    
C157  C189  1.402028 A    
Zn16  O25   1.933486 S    
C25   C41   1.399866 A    
C33   C93   1.402350 A    
C165  H85   1.083204 S    
C27   C43   1.399819 A    
C83   C184  1.464047 S    
C130  C162  1.391579 A    
C199  H116  1.110279 S    
C137  H57   1.082716 S    
C71   C93   1.473968 S    
C36   H12   1.083487 S    
O45   C79   1.279264 A    
C66   C92   1.473968 S    
C162  H82   1.083214 S    
O46   C80   1.279260 A    
O49   C75   1.279259 A    
C15   C127  1.404621 A    
C98   H18   1.083213 S    
C13   C125  1.404603 A    
C158  H78   1.083209 S    
C208  H142  1.110737 S    
Zn1   O1    1.942656 S    
C36   C96   1.402365 A    
C44   C196  1.507783 S    
C202  H125  1.110292 S    
C55   C63   1.412100 A    
C45   C197  1.507781 S    
C171  C177  1.402030 A    
C19   C112  1.400565 A    
C195  H104  1.110278 S    
C30   C90   1.402332 A    
C134  H54   1.082713 S    
O50   C76   1.279256 A    
C161  C187  1.402032 A    
C173  H93   1.083215 S    
C168  H88   1.083209 S    
C35   C51   1.399832 A    
C163  C185  1.402031 A    
C168  C190  1.402032 A    
O51   C73   1.279258 A    
C165  C191  1.402035 A    
Zn5   O20   1.928379 S    
C9    C121  1.404607 A    
Zn6   O19   1.928379 S    
C206  H137  1.110287 S    
C34   H10   1.083493 S    
C127  H47   1.082708 S    
C200  H120  1.110730 S    
C68   C90   1.473938 S    
C6    C118  1.404612 A    
C115  C147  1.391576 A    
Zn8   O46   1.933511 S    
C108  H28   1.083187 S    
C149  H69   1.083200 S    
C1    C113  1.404618 A    
C204  H131  1.110222 S    
C43   C195  1.507780 S    
C41   C193  1.507780 S    
C152  H72   1.083204 S    
C5    C16   1.474482 S    
C145  C177  1.402032 A    
C6    C15   1.474477 S    
C7    C14   1.474455 S    
C17   C62   1.469317 S    
C142  H62   1.082712 S    
Zn13  O4    1.942654 S    
O43   C81   1.279257 A    
C77   C190  1.464045 S    
Zn14  O3    1.942649 S    
C40   C56   1.399836 A    
C10   C132  1.404613 A    
C133  H53   1.082716 S    
C99   H19   1.083185 S    
O40   C86   1.279259 A    
C34   C50   1.399819 A    
Zn15  O6    1.928378 S    
C10   C122  1.404604 A    
C48   C200  1.507781 S    
C166  C192  1.402032 A    
Zn16  O1    1.942655 S    
Zn9   O4    1.942656 S    
C44   C60   1.412104 A    
C111  H31   1.083187 S    
C117  C149  1.391586 A    
C159  H79   1.083207 S    
C85   C182  1.464070 S    
C37   H13   1.083493 S    
C114  H34   1.082716 S    
C135  C167  1.391576 A    
C129  C161  1.391586 A    
C198  H112  1.110204 S    
C26   C90   1.402328 A    
C123  C155  1.391586 A    
C124  C156  1.391583 A    
C38   C54   1.399828 A    
C114  C146  1.391581 A    
Zn7   O45   1.933511 S    
C7    C141  1.404604 A    
C29   H5    1.083485 S    
C1    C139  1.404621 A    
C208  H144  1.110220 S    
C40   C96   1.402368 A    
C23   C60   1.469312 S    
C18   C105  1.400576 A    
C1    C12   1.474480 S    
Zn7   O3    1.942656 S    
O34   C86   1.279258 A    
Zn11  O2    1.942654 S    
C35   H11   1.083489 S    
C2    C11   1.474482 S    
C24   C99   1.400563 A    
O20   C72   1.283807 A    
C194  H100  1.110200 S    
O21   C73   1.279256 A    
C31   C47   1.399823 A    
C140  H60   1.082716 S    
C29   C45   1.399862 A    
O24   C76   1.279259 A    
C27   H3    1.083493 S    
C197  H109  1.110303 S    
C153  C185  1.402027 A    
C199  H115  1.110212 S    
O15   C71   1.283817 A    
O18   C70   1.283822 A    
C155  C187  1.402032 A    
C126  C158  1.391583 A    
C197  H110  1.110203 S    
C205  H133  1.110297 S    
O22   C74   1.279258 A    
C146  C178  1.402032 A    
O10   C66   1.283822 A    
C201  H123  1.110730 S    
C151  C183  1.402031 A    
C123  H43   1.082712 S    
C49   C61   1.412113 A    
C46   C198  1.507778 S    
C162  C188  1.402032 A    
C169  H89   1.083215 S    
O6    C66   1.283822 A    
Zn11  O33   1.933511 S    
