data_mof_unit_60077.cif
_audit_creation_date              2012-12-10T20:53:48-0500
_audit_creation_method            fapswitch 2.2
_symmetry_space_group_name_H-M    P1
_symmetry_Int_Tables_number       1
_space_group_crystal_system       triclinic
_cell_length_a                    10.937673
_cell_length_b                    15.869284
_cell_length_c                    15.109892
_cell_angle_alpha                 89.990742
_cell_angle_beta                  105.21492
_cell_angle_gamma                 89.949327
_cell_volume                      2530.73934071

loop_
_atom_site_label
_atom_site_type_symbol
_atom_type_description
_atom_site_fract_x
_atom_site_fract_y
_atom_site_fract_z
_atom_type_partial_charge
C1    C     C_R   0.500007 0.339005 0.499980 0.893650
C2    C     C_1   0.499913 0.500054 0.193101 0.133237
C3    C     C_R   0.258518 0.501084 0.461143 0.930131
C4    C     C_R   0.741481 0.498916 0.538856 0.930131
C5    C     C_2   0.122332 0.494202 0.436838 -0.320530
C6    C     C_2   0.877668 0.505798 0.563161 -0.320530
C7    C     C_2   0.063627 0.514737 0.501517 0.479668
C8    C     C_2   0.936373 0.485263 0.498483 0.479667
C9    C     C_R   0.512706 0.957099 0.583519 -0.225962
C10   C     C_R   0.487294 0.042901 0.416481 -0.225962
C11   C     C_R   0.500222 0.912953 0.501076 -0.146255
C12   C     C_R   0.499993 0.660995 0.500019 0.893650
C13   C     C_R   0.499778 0.087047 0.498924 -0.146255
C14   C     C_R   0.487587 0.955298 0.418014 0.633664
C15   C     C_R   0.512413 0.044702 0.581986 0.633664
C16   C     C_1   0.500135 0.823938 0.500443 0.101711
C17   C     C_1   0.499865 0.176062 0.499557 0.101711
C18   C     C_1   0.499941 0.250779 0.499902 -0.127487
C19   C     C_1   0.500059 0.749221 0.500098 -0.127487
C20   C     C_1   0.940188 0.543081 0.651038 0.289936
C21   C     C_1   0.059812 0.456919 0.348962 0.289936
C22   C     C_1   0.525814 0.913619 0.669666 0.337484
C23   C     C_R   0.392688 0.472141 0.932488 -0.037017
C24   C     C_1   0.474186 0.086381 0.330334 0.337484
C25   C     C_1   0.281333 0.443874 0.053285 0.194353
C26   C     C_1   0.718667 0.556126 0.946715 0.194353
C27   C     C_1   0.281965 0.442996 0.863636 0.223132
C28   C     C_1   0.718035 0.557003 0.136364 0.223132
C29   C     C_R   0.607312 0.527859 0.067512 -0.037017
C30   C     C_R   0.500096 0.499912 0.905004 -0.048423
C31   C     C_R   0.499904 0.500088 0.094995 -0.048423
C32   C     C_R   0.607457 0.527696 0.973337 -0.037039
C33   C     C_R   0.392543 0.472303 0.026663 -0.037039
C34   C     C_1   0.500087 0.499946 0.806899 0.133237
F1    F     F_    0.874491 0.435881 0.426719 -0.658612
F2    F     F_    0.125508 0.564119 0.573280 -0.658612
F3    F     F_    0.524381 0.088815 0.661013 -0.632211
F4    F     F_    0.475619 0.911185 0.338987 -0.632211
N1    N     N_1   0.499960 0.500020 0.270540 -0.071276
N2    N     N_1   0.806301 0.580343 0.191358 -0.151332
N3    N     N_1   0.500040 0.499980 0.729460 -0.071276
N4    N     N_1   0.989494 0.572836 0.721257 -0.118646
N5    N     N_1   0.010506 0.427163 0.278743 -0.118646
N6    N     N_1   0.536298 0.878784 0.738557 -0.154522
N7    N     N_1   0.463702 0.121216 0.261443 -0.154522
N8    N     N_1   0.192585 0.421222 0.074580 -0.158217
N9    N     N_1   0.807415 0.578778 0.925420 -0.158217
N10   N     N_1   0.193699 0.419657 0.808641 -0.151331
O1    O     O_R   0.500000 0.378020 0.573650 -0.601580
O2    O     O_R   0.500000 0.621980 0.426350 -0.601580
O3    O     O_R   0.500060 0.378020 0.426320 -0.603500
O4    O     O_R   0.499940 0.621980 0.573680 -0.603500
O5    O     O_R   0.317790 0.500010 0.546150 -0.537230
O6    O     O_R   0.682210 0.499990 0.453850 -0.537230
O7    O     O_R   0.317850 0.500010 0.398830 -0.631291
O8    O     O_R   0.682150 0.499990 0.601170 -0.631291
Zn1   Zn    Zn3+2 0.499960 0.500000 0.598370 1.044164
Zn2   Zn    Zn3+2 0.500040 0.500000 0.401630 1.044164

loop_
_geom_bond_atom_site_label_1
_geom_bond_atom_site_label_2
_ccdc_geom_bond_type
C27   N10   T    
O1    Zn1   S    
C12   O2    A    
C31   C33   A    
C26   C32   S    
C23   C27   S    
C14   F4    S    
C3    O5    A    
C7    F2    S    
C20   N4    T    
C1    O3    A    
C13   C17   S    
C4    O6    A    
C17   C18   T    
C9    C15   A    
N3    Zn1   S    
C7    C8    S    
C29   C31   A    
O3    Zn2   S    
C10   C13   A    
C4    O8    A    
C30   C32   A    
C9    C11   A    
C1    C18   S    
C34   N3    T    
C3    O7    A    
C26   N9    T    
C16   C19   T    
C24   N7    T    
C25   N8    T    
C12   C19   S    
C28   C29   S    
C12   O4    A    
C29   C32   A    
C13   C15   A    
C10   C14   A    
C11   C14   A    
C9    C22   S    
C11   C16   S    
O4    Zn1   S    
C28   N2    T    
O2    Zn2   S    
C23   C30   A    
C6    C20   S    
O8    Zn1   S    
C23   C33   A    
C4    C6    S    
O6    Zn2   S    
O7    Zn2   S    
C5    C7    D    
C30   C34   S    
C15   F3    S    
C6    C8    D    
C10   C24   S    
C21   N5    T    
N1    Zn2   S    
C1    O1    A    
C2    N1    T    
C8    F1    S    
C22   N6    T    
C25   C33   S    
C2    C31   S    
C3    C5    S    
C5    C21   S    
O5    Zn1   S    
