data_mof_unit_67184.cif
_audit_creation_date              2012-12-11T17:48:54-0500
_audit_creation_method            fapswitch 2.2
_symmetry_space_group_name_H-M    P1
_symmetry_Int_Tables_number       1
_space_group_crystal_system       triclinic
_cell_length_a                    8.194243
_cell_length_b                    12.74773
_cell_length_c                    14.922894
_cell_angle_alpha                 96.755426
_cell_angle_beta                  97.669756
_cell_angle_gamma                 98.667928
_cell_volume                      1512.05570069

loop_
_atom_site_label
_atom_site_type_symbol
_atom_type_description
_atom_site_fract_x
_atom_site_fract_y
_atom_site_fract_z
_atom_type_partial_charge
Ba1   Ba    Ba6+2 0.843750 0.550210 0.455600 1.778091
Ba2   Ba    Ba6+2 0.346090 0.449880 0.544410 1.686825
C1    C     C_3   0.604518 0.904968 0.263061 -0.302673
C2    C     C_R   0.895415 0.436890 0.921953 -0.046457
C3    C     C_R   0.038485 0.450795 0.108878 -0.017108
C4    C     C_3   0.089796 0.845540 0.212301 1.001645
C5    C     C_R   0.877250 0.393656 0.075688 -0.038006
C6    C     C_R   0.806004 0.388731 0.984821 -0.091819
C7    C     C_R   0.108159 0.463857 0.203155 0.064310
C8    C     C_R   0.271378 0.518199 0.230801 -0.238421
C9    C     C_R   0.083675 0.530766 0.795751 0.001528
C10   C     C_R   0.155590 0.538589 0.889219 -0.051427
C11   C     C_R   0.061684 0.490171 0.951976 0.014428
C12   C     C_3   0.531183 0.812135 0.188323 0.702617
C13   C     C_R   0.319486 0.591329 0.921941 0.049981
C14   C     C_R   0.393432 0.589992 0.011184 -0.023861
C15   C     C_R   0.300940 0.547399 0.075041 -0.016383
C16   C     C_3   0.018151 0.898287 0.132915 -0.187376
C17   C     C_R   0.133404 0.496591 0.045480 0.063429
C18   C     C_R   0.369783 0.556534 0.168103 -0.036422
C19   C     C_R   0.921127 0.474890 0.767696 -0.293494
C20   C     C_R   0.776691 0.181823 0.534091 -0.379323
C21   C     C_R   0.435383 0.809217 0.452480 -0.198862
C22   C     C_R   0.393094 0.987721 0.432383 -0.089495
C23   C     C_3   0.412656 0.284191 0.266286 0.382396
C24   C     C_R   0.333161 0.878721 0.420454 -0.052315
C25   C     C_R   0.586916 0.848830 0.510333 0.125430
C26   C     C_R   0.651475 0.961231 0.523210 -0.163218
C27   C     C_R   0.554060 0.030253 0.479581 -0.110855
C28   C     C_3   0.244954 0.784411 0.656225 0.823260
C29   C     C_R   0.617962 0.140707 0.486099 0.043124
C30   C     C_R   0.874768 0.115571 0.575246 -0.030751
C31   C     C_R   0.810096 0.007819 0.575040 0.526041
C32   C     C_3   0.335520 0.899377 0.680165 -0.306114
C33   C     C_3   0.936971 0.215271 0.345754 0.298345
C34   C     C_3   0.366643 0.251794 0.163419 0.546248
C35   C     C_3   0.000770 0.110305 0.331570 -0.351401
C36   C     C_3   0.775072 0.697272 0.730465 0.330213
C37   C     C_3   0.810503 0.729186 0.833612 -0.347026
C38   C     C_3   0.121193 0.229859 0.797730 0.356901
C39   C     C_3   0.159236 0.203917 0.894528 -0.317178
C40   C     C_3   0.610287 0.169011 0.755971 0.319907
C41   C     C_3   0.674499 0.089876 0.814877 -0.363814
C42   C     C_R   0.824683 0.431739 0.829542 -0.005255
F1    F     F_    0.505429 0.229170 0.126359 -0.679134
F2    F     F_    0.065285 0.735602 0.186354 -0.703872
F3    F     F_    0.904843 0.952300 0.626533 -0.702212
F4    F     F_    0.321537 0.730059 0.593468 -0.754549
H1    H     H_    0.412953 0.771443 0.206440 -0.086751
H2    H     H_    0.889437 0.676516 0.706343 -0.053919
H3    H     H_    0.673434 0.626625 0.714389 0.055984
H4    H     H_    0.647111 0.874638 0.327267 0.064014
H5    H     H_    0.915555 0.797743 0.852031 0.146006
H6    H     H_    0.844199 0.661180 0.867854 0.063476
H7    H     H_    0.697587 0.752746 0.858457 0.160771
H8    H     H_    0.511675 0.957844 0.274593 0.073452
H9    H     H_    0.300435 0.304908 0.293642 -0.143814
H10   H     H_    0.513028 0.355663 0.279536 0.028500
H11   H     H_    0.266817 0.180050 0.148150 0.000164
H12   H     H_    0.468971 0.900298 0.706287 0.093750
H13   H     H_    0.320080 0.317919 0.131356 -0.136518
H14   H     H_    0.712372 0.952483 0.241911 0.141354
H15   H     H_    0.049453 0.862276 0.067571 0.146889
H16   H     H_    0.201373 0.306701 0.792910 0.080716
H17   H     H_    0.988188 0.239173 0.784695 -0.083015
H18   H     H_    0.293404 0.197993 0.911118 0.180145
H19   H     H_    0.130242 0.268012 0.943955 0.051272
H20   H     H_    0.082404 0.126533 0.901306 0.126996
H21   H     H_    0.715036 0.204898 0.723067 -0.058722
H22   H     H_    0.510592 0.125162 0.700811 0.071409
H23   H     H_    0.326878 0.940341 0.618587 0.088113
H24   H     H_    0.771079 0.133342 0.871796 0.125849
H25   H     H_    0.730689 0.030978 0.773222 0.115499
H26   H     H_    0.570346 0.046654 0.843940 0.168270
H27   H     H_    0.802610 0.352651 0.119360 0.167391
H28   H     H_    0.679749 0.346044 0.964871 0.136698
H29   H     H_    0.522928 0.626727 0.029900 0.124528
H30   H     H_    0.395032 0.633504 0.879386 0.116861
H31   H     H_    0.325198 0.526966 0.302090 0.050514
H32   H     H_    0.865874 0.469089 0.696908 0.059680
H33   H     H_    0.310735 0.038066 0.405206 0.087811
H34   H     H_    0.278221 0.943396 0.733106 0.129524
H35   H     H_    0.827032 0.265753 0.536273 0.078411
H36   H     H_    0.224837 0.878467 0.229312 -0.242291
H37   H     H_    0.388239 0.723973 0.440311 0.109431
H38   H     H_    0.880631 0.887489 0.127014 0.162147
H39   H     H_    0.068560 0.985440 0.144153 -0.010542
H40   H     H_    0.115781 0.785571 0.627051 0.065309
H41   H     H_    0.378779 0.003452 0.124610 0.333033
H42   H     H_    0.803428 0.198179 0.352291 0.014700
H43   H     H_    0.008666 0.261999 0.409971 0.053352
H44   H     H_    0.937853 0.064446 0.265692 0.131763
H45   H     H_    0.978967 0.063755 0.388407 0.090927
H46   H     H_    0.135060 0.125697 0.326126 0.113790
O1    O     O_2   0.827880 0.435260 0.277750 -0.452025
O2    O     O_2   0.214151 0.120693 0.568332 -0.469631
O3    O     O_3   0.154382 0.146658 0.735871 -0.559520
O4    O     O_3   0.100280 0.438960 0.391170 -0.495978
O5    O     O_3   0.587780 0.631850 0.546230 -0.462281
O6    O     O_2   0.332590 0.233690 0.456160 -0.472901
O7    O     O_3   0.467077 0.198326 0.305677 -0.645794
O8    O     O_2   0.483491 0.439994 0.824898 -0.512180
O9    O     O_3   0.542310 0.243832 0.810665 -0.586677
O10   O     O_3   0.625580 0.634130 0.333250 -0.502702
O11   O     O_2   0.709426 0.551933 0.176989 -0.440001
O12   O     O_3   0.728347 0.784278 0.690399 -0.574925
O13   O     O_3   0.951026 0.263946 0.267212 -0.626287
O14   O     O_3   0.651845 0.745142 0.179627 -0.578664
O15   O     O_2   0.857130 0.766340 0.543890 -0.434520
O16   O     O_3   0.056550 0.691050 0.379010 -0.420422
O17   O     O_2   0.022015 0.880238 0.459558 -0.459117
O18   O     O_2   0.607791 0.841359 0.020508 -0.296070
O19   O     O_2   0.312406 0.807778 0.034571 -0.345351
O20   O     O_3   0.482982 0.995579 0.099642 -0.450126
O21   O     O_3   0.007287 0.869773 0.286543 -0.638524
O22   O     O_2   0.361830 0.564780 0.722310 -0.445967
O23   O     O_3   0.089430 0.561130 0.608830 -0.467950
O24   O     O_3   0.564130 0.365960 0.666760 -0.470413
O25   O     O_3   0.246506 0.736167 0.735482 -0.651047
O26   O     O_3   0.601940 0.368240 0.453770 -0.484349
O27   O     O_3   0.133170 0.309040 0.621000 -0.503485
P1    P     P_3+3 0.998730 0.403530 0.291970 1.001404
P2    P     P_3+3 0.687380 0.751030 0.571310 1.122408
P3    P     P_3+3 0.108861 0.829709 0.384115 1.030491
P4    P     P_3+3 0.190990 0.596560 0.708040 1.046597
P5    P     P_3+3 0.093282 0.171586 0.624385 1.029484
P6    P     P_3+3 0.587104 0.620665 0.213987 1.000806
P7    P     P_3+3 0.507951 0.233338 0.424541 0.945384
P8    P     P_3+3 0.604689 0.372673 0.784623 0.948264
S1    S     S_3+6 0.482039 0.862717 0.082000 -0.086757

loop_
_geom_bond_atom_site_label_1
_geom_bond_atom_site_label_2
_ccdc_geom_bond_type
C41   H25   S    
C41   H24   S    
O8    P8    D    
C40   H22   S    
C2    C6    A    
C34   H11   S    
C40   O9    S    
Ba1   O5    S    
Ba2   O24   S    
C5    C6    A    
C39   H19   S    
C8    H31   S    
C28   C32   S    
C16   H38   S    
C20   C30   A    
C28   F4    S    
C26   C27   A    
C33   C35   S    
C22   C24   A    
C14   H29   S    
C36   C37   S    
C16   H15   S    
Ba2   O27   S    
C37   H6    S    
C28   O25   S    
C13   C14   A    
C6    H28   S    
O7    P7    S    
Ba1   Ba2   S    
C21   C24   A    
C30   P5    S    
C2    C11   A    
C22   C27   A    
Ba1   O15   S    
Ba1   P1    S    
Ba2   O22   S    
C37   H7    S    
C8    C18   A    
C14   C15   A    
O12   P2    S    
C21   C25   A    
C7    C8    A    
O16   P3    S    
C41   H26   S    
C12   O14   S    
Ba2   O6    S    
C32   H12   S    
O20   S1    S    
C24   P3    S    
C29   P7    S    
Ba2   O23   S    
C39   H20   S    
C4    C16   S    
C4    H36   S    
O19   S1    D    
O11   P6    D    
O2    P5    D    
C23   H9    S    
C18   P6    S    
C20   C29   A    
C38   O3    S    
C3    C5    A    
C25   P2    S    
O15   P2    D    
C11   C17   A    
C5    H27   S    
C36   H3    S    
C2    C42   A    
C42   P8    S    
C9    C19   A    
C40   H21   S    
Ba1   O26   S    
C36   O12   S    
C22   H33   S    
Ba1   P2    S    
C3    C7    A    
Ba1   O16   S    
C19   C42   A    
C1    H8    S    
C10   C13   A    
Ba1   O1    S    
C7    P1    S    
C35   H45   S    
C34   F1    S    
Ba1   O23   S    
C13   H30   S    
O9    P8    S    
Ba1   O10   S    
C1    C12   S    
C36   H2    S    
Ba2   P4    S    
O25   P4    S    
O1    P1    D    
C38   C39   S    
C26   C31   A    
O22   P4    D    
C21   H37   S    
C31   F3    S    
C40   C41   S    
C28   H40   S    
C34   H13   S    
O5    P2    S    
C12   S1    S    
C1    H14   S    
O4    P1    S    
H41   O20   S    
Ba2   O26   S    
O21   P3    S    
C4    F2    S    
C35   H44   S    
C9    P4    S    
O17   P3    D    
O6    P7    D    
C15   C18   A    
O3    P5    S    
Ba1   O4    S    
Ba2   O5    S    
C1    H4    S    
O26   P7    S    
C39   H18   S    
C3    C17   A    
C16   H39   S    
C38   H16   S    
C38   H17   S    
C20   H35   S    
O27   P5    S    
C27   C29   A    
O24   P8    S    
C30   C31   A    
C23   O7    S    
C37   H5    S    
O10   P6    S    
C19   H32   S    
C15   C17   A    
C35   H46   S    
O14   P6    S    
C4    O21   S    
C33   O13   S    
C23   C34   S    
C12   H1    S    
C33   H42   S    
C10   C11   A    
Ba2   O4    S    
C23   H10   S    
C25   C26   A    
C32   H34   S    
O13   P1    S    
O18   S1    D    
O23   P4    S    
C32   H23   S    
C9    C10   A    
C33   H43   S    
