data_mof_unit_26216.cif
_audit_creation_date              2013-03-05T16:32:08-0500
_audit_creation_method            fapswitch 2.2
_symmetry_space_group_name_H-M    P1
_symmetry_Int_Tables_number       1
_space_group_crystal_system       triclinic
_cell_length_a                    10.740005
_cell_length_b                    10.866681
_cell_length_c                    9.569898
_cell_angle_alpha                 90.909611
_cell_angle_beta                  89.431153
_cell_angle_gamma                 91.32648
_cell_volume                      1116.39456902

loop_
_atom_site_label
_atom_site_type_symbol
_atom_site_description
_atom_site_fract_x
_atom_site_fract_y
_atom_site_fract_z
_atom_type_partial_charge
O1    O     O_R   0.500000 0.319640 0.618810 -0.619843
O2    O     O_R   0.500010 0.319680 0.381230 -0.517640
C1    C     C_R   0.497973 0.262332 0.498286 0.847875
O3    O     O_R   0.317690 0.499960 0.618790 -0.615718
O4    O     O_R   0.317700 0.500000 0.381210 -0.596463
C2    C     C_R   0.259910 0.499576 0.500532 0.749928
Cu1   Cu    Cu3+1 0.499990 0.499980 0.640670 0.930272
Cu2   Cu    Cu3+1 0.500010 0.500020 0.359330 0.985359
O5    O     O_R   0.499990 0.680320 0.618770 -0.578065
O6    O     O_R   0.500000 0.680360 0.381190 -0.590527
O7    O     O_R   0.682300 0.500000 0.618790 -0.589264
O8    O     O_R   0.682310 0.500040 0.381210 -0.572067
C3    C     C_R   0.497043 0.737598 0.500756 0.820161
C4    C     C_R   0.740050 0.500285 0.499712 0.782532
C5    C     C_3   0.069695 0.497172 0.652548 -0.363956
H1    H     H_    0.108509 0.576320 0.714795 0.185590
H2    H     H_    0.096666 0.410951 0.703918 0.200931
C6    C     C_3   0.927673 0.503112 0.652317 -0.382711
H3    H     H_    0.887498 0.426250 0.715003 0.175204
H4    H     H_    0.899396 0.590346 0.704743 0.173724
H5    H     H_    0.109602 0.699435 0.484271 0.162097
H6    H     H_    0.896494 0.699048 0.475592 0.167542
C7    C     C_3   0.075236 0.615227 0.427681 -0.357564
C8    C     C_3   0.071057 0.382479 0.422218 -0.430712
C9    C     C_3   0.121926 0.498801 0.500897 0.119819
H7    H     H_    0.106202 0.381746 0.312346 0.193385
H8    H     H_    0.107301 0.298573 0.471817 0.149267
C10   C     C_3   0.878152 0.498386 0.499837 0.061790
C11   C     C_3   0.931534 0.613709 0.424386 -0.401583
C12   C     C_3   0.926496 0.381179 0.421586 -0.121385
H9    H     H_    0.896208 0.384663 0.310606 0.184414
H10   H     H_    0.112371 0.619412 0.318801 0.181218
H11   H     H_    0.900334 0.613579 0.313890 0.169827
C13   C     C_R   0.472178 0.066437 0.619390 0.037698
C14   C     C_R   0.485671 0.128835 0.493824 -0.200483
C15   C     C_R   0.478777 0.059476 0.366816 0.366383
C16   C     C_R   0.475779 0.931038 0.371636 -0.263686
H12   H     H_    0.475922 0.879683 0.273754 0.183703
C17   C     C_R   0.483296 0.870365 0.499837 -0.160151
C18   C     C_R   0.471192 0.939834 0.622880 0.120707
C19   C     C_3   0.544188 0.941054 0.754897 -0.440270
C20   C     C_3   0.544705 0.080326 0.750870 -0.361702
H13   H     H_    0.488114 0.904883 0.844087 0.211022
H14   H     H_    0.638611 0.902687 0.740138 0.193640
H15   H     H_    0.489357 0.122855 0.836962 0.230776
H16   H     H_    0.639038 0.122191 0.733789 0.204362
C21   C     C_R   0.601470 0.542690 0.073124 0.272256
N1    N     N_R   0.500800 0.500930 0.147930 -0.216111
C22   C     C_R   0.408243 0.441863 0.076455 0.013057
H17   H     H_    0.335042 0.395441 0.135241 0.189285
C23   C     C_R   0.408378 0.438509 0.927715 0.056571
N2    N     N_R   0.500800 0.500890 0.852020 -0.237034
C24   C     C_R   0.601732 0.542277 0.926182 0.246593
C25   C     C_3   0.660263 0.667323 0.922326 -0.502452
C26   C     C_3   0.659834 0.668100 0.080965 -0.481351
H18   H     H_    0.755276 0.667376 0.875653 0.190393
H19   H     H_    0.596253 0.733811 0.878556 0.215451
H20   H     H_    0.754828 0.667373 0.125715 0.191791
H21   H     H_    0.597078 0.737650 0.127759 0.217523
N3    N     N_R   0.484200 0.115612 0.232353 0.123744
O9    O     O_R   0.589584 0.161598 0.186615 -0.319499
O10   O     O_R   0.394468 0.094222 0.144308 -0.390079
C27   C     C_2   0.310004 0.360903 0.860656 0.359153
H22   H     H_    0.321119 0.322717 0.757193 0.127377
O11   O     O_2   0.214112 0.334122 0.924062 -0.583482
C28   C     C_2   0.874000 0.263183 0.482777 0.341288
H23   H     H_    0.897376 0.237479 0.588260 0.075721
O12   O     O_2   0.805621 0.195226 0.413733 -0.515631

loop_
_geom_bond_atom_site_label_1
_geom_bond_atom_site_label_2
_geom_bond_distance
_ccdc_geom_bond_type
O6    C3    1.294119 A    
C5    C6    1.528199 S    
C28   O12   1.220771 D    
Cu2   N1    2.023191 S    
C18   C19   1.493184 S    
C16   H12   1.082722 S    
H6    C11   1.113470 S    
C26   H21   1.110341 S    
C15   N3    1.432880 S    
O4    Cu2   1.967102 S    
C19   C20   1.514411 S    
C14   C15   1.421622 A    
C13   C20   1.490203 S    
C8    H8    1.114454 S    
Cu2   O8    1.971127 S    
C21   C24   1.406129 A    
C4    C10   1.483843 S    
C27   O11   1.221832 D    
C10   C12   1.563709 S    
C28   H23   1.085032 S    
C23   C27   1.481327 S    
Cu1   Cu2   2.692399 S    
C16   C17   1.405897 A    
O1    Cu1   1.967529 S    
C24   C25   1.484773 S    
N2    C24   1.365147 A    
Cu1   O7    1.967103 S    
C19   H13   1.111392 S    
C12   C28   1.512855 S    
N1    C22   1.355741 A    
O3    Cu1   1.971128 S    
C13   C18   1.376486 A    
O4    C2    1.294274 A    
C7    C11   1.543703 S    
N3    O10   1.300867 A    
C10   C11   1.551699 S    
C19   H14   1.112225 S    
C8    H7    1.113605 S    
Cu1   N2    2.022570 S    
O2    C1    1.290257 A    
C6    H4    1.112539 S    
C7    C9    1.551616 S    
H5    C7    1.113305 S    
C12   H9    1.115318 S    
O7    C4    1.292015 A    
C25   H18   1.109830 S    
C5    C9    1.550944 S    
C8    C12   1.552394 S    
C3    C17   1.453842 S    
C27   H22   1.074102 S    
C1    C14   1.453610 S    
C5    H1    1.113740 S    
C2    C9    1.481747 S    
C21   N1    1.363684 A    
C11   H11   1.112389 S    
C6    C10   1.557753 S    
C8    C9    1.552149 S    
C21   C26   1.487907 S    
C13   C14   1.393769 A    
C20   H16   1.112602 S    
C26   H20   1.110632 S    
C17   C18   1.395194 A    
C22   H17   1.082089 S    
C6    H3    1.112543 S    
Cu1   O5    1.974179 S    
C25   C26   1.518010 S    
C15   C16   1.396801 A    
O5    C3    1.299177 A    
O1    C1    1.302191 A    
C5    H2    1.110604 S    
O3    C2    1.295984 A    
C20   H15   1.112040 S    
Cu2   O6    1.967529 S    
O2    Cu2   1.974177 S    
C23   N2    1.392734 A    
C7    H10   1.113212 S    
O8    C4    1.297857 A    
N3    O9    1.301248 A    
C22   C23   1.423295 A    
C25   H19   1.099274 S    
