data_mof_unit_17649.cif
_audit_creation_date              2013-03-05T16:41:35-0500
_audit_creation_method            fapswitch 2.2
_symmetry_space_group_name_H-M    P1
_symmetry_Int_Tables_number       1
_space_group_crystal_system       triclinic
_cell_length_a                    12.852272
_cell_length_b                    10.747416
_cell_length_c                    9.851777
_cell_angle_alpha                 90.689178
_cell_angle_beta                  97.462569
_cell_angle_gamma                 89.913451
_cell_volume                      1349.1894799

loop_
_atom_site_label
_atom_site_type_symbol
_atom_site_description
_atom_site_fract_x
_atom_site_fract_y
_atom_site_fract_z
_atom_type_partial_charge
O1    O     O_R   0.500010 0.316790 0.614690 -0.618314
O2    O     O_R   0.500000 0.316760 0.385350 -0.568561
C1    C     C_R   0.501153 0.259786 0.498625 0.925799
O3    O     O_R   0.346360 0.499990 0.595720 -0.626918
O4    O     O_R   0.346350 0.499960 0.366370 -0.624049
C2    C     C_R   0.297976 0.504291 0.472784 0.912047
Zn1   Zn    Zn3+2 0.500010 0.500020 0.653130 0.959282
Zn2   Zn    Zn3+2 0.499990 0.499980 0.346870 0.996474
O5    O     O_R   0.500000 0.683240 0.614650 -0.626916
O6    O     O_R   0.499990 0.683210 0.385310 -0.634152
O7    O     O_R   0.653650 0.500040 0.633630 -0.622634
O8    O     O_R   0.653640 0.500010 0.404280 -0.593652
C3    C     C_R   0.498448 0.739779 0.500185 0.892821
C4    C     C_R   0.701972 0.497339 0.527198 0.906942
C5    C     C_R   0.814482 0.499504 0.544210 -0.124115
C6    C     C_R   0.185388 0.511785 0.454447 -0.095607
C7    C     C_R   0.019860 0.473603 0.315487 0.198019
C8    C     C_R   0.127939 0.483640 0.327751 -0.204551
C9    C     C_R   0.134766 0.548268 0.564843 -0.246798
C10   C     C_R   0.027262 0.537330 0.555655 0.117661
C11   C     C_R   0.970049 0.487633 0.434221 0.049045
C12   C     C_R   0.866429 0.452893 0.438060 0.127035
C13   C     C_R   0.869331 0.558173 0.659284 -0.200515
C14   C     C_R   0.976860 0.571696 0.667762 -0.158172
H1    H     H_    0.829246 0.592705 0.742347 0.180402
H2    H     H_    0.019979 0.612163 0.759587 0.160806
H3    H     H_    0.166644 0.469761 0.238111 0.190705
H4    H     H_    0.179079 0.582058 0.659037 0.153035
C15   C     C_R   0.465075 0.065839 0.606044 0.084150
C16   C     C_R   0.493022 0.127658 0.492176 -0.169988
C17   C     C_R   0.505403 0.059213 0.371214 0.203587
C18   C     C_R   0.501072 0.931465 0.374592 -0.239229
H5    H     H_    0.515611 0.879611 0.283934 0.192770
C19   C     C_R   0.488664 0.871088 0.496309 -0.141081
C20   C     C_R   0.463268 0.938663 0.608375 0.123486
C21   C     C_3   0.508654 0.933956 0.755684 -0.451820
C22   C     C_3   0.510568 0.075021 0.753630 -0.405127
H6    H     H_    0.452129 0.896140 0.821018 0.214627
H7    H     H_    0.588214 0.891448 0.771263 0.207482
H8    H     H_    0.455112 0.118698 0.817788 0.225372
H9    H     H_    0.591271 0.114459 0.768489 0.221295
C23   C     C_R   0.436582 0.419788 0.059478 0.243444
N1    N     N_R   0.499290 0.499140 0.142710 -0.127192
C24   C     C_R   0.569271 0.570621 0.084703 -0.085922
H10   H     H_    0.623591 0.629735 0.149105 0.161566
C25   C     C_R   0.569288 0.570612 0.940634 -0.107315
H11   H     H_    0.623604 0.629694 0.896114 0.148234
N2    N     N_R   0.499290 0.499180 0.857070 -0.112341
C26   C     C_R   0.436581 0.420123 0.916764 0.184333
C27   C     C_3   0.319961 0.416631 0.890627 -0.520871
C28   C     C_3   0.319553 0.415761 0.044397 -0.057940
H12   H     H_    0.286393 0.503577 0.843785 0.195400
H13   H     H_    0.290712 0.329516 0.836983 0.232803
H14   H     H_    0.285521 0.501982 0.083697 0.147416
I1    I     I_    0.803937 0.290354 0.328808 -0.241532
I2    I     I_    0.260424 0.244664 0.114120 -0.311265
I3    I     I_    0.941786 0.469147 0.110767 -0.331327
I4    I     I_    0.547161 0.127164 0.182620 -0.308131

loop_
_geom_bond_atom_site_label_1
_geom_bond_atom_site_label_2
_geom_bond_distance
_ccdc_geom_bond_type
C7    I3    2.132843 S    
C1    C16   1.424079 S    
C27   H12   1.108926 S    
C13   C14   1.381428 A    
O6    C3    1.280645 A    
C15   C16   1.397211 A    
O4    Zn2   2.008628 S    
C15   C20   1.367567 A    
C17   C18   1.375158 A    
Zn2   N1    2.010103 S    
C23   C28   1.492725 S    
Zn2   O8    1.982274 S    
C28   H14   1.110872 S    
Zn1   N2    2.010522 S    
C21   H6    1.111699 S    
C7    C8    1.382847 A    
C3    C19   1.417161 S    
C6    C8    1.395285 A    
O1    Zn1   2.000855 S    
C11   C12   1.389007 A    
C18   H5    1.083630 S    
Zn1   O7    2.008627 S    
C9    H4    1.082872 S    
C16   C17   1.419285 A    
C12   I1    2.142331 S    
C6    C9    1.390207 A    
C17   I4    2.136893 S    
C5    C13   1.398676 A    
C21   C22   1.516745 S    
C5    C12   1.399300 A    
O8    C4    1.287828 A    
O2    C1    1.277749 A    
C22   H8    1.112078 S    
O3    Zn1   1.982274 S    
N1    C24   1.368159 A    
C22   H9    1.112343 S    
O4    C2    1.286783 A    
C19   C20   1.387988 A    
O7    C4    1.286218 A    
C25   N2    1.367833 A    
C27   H13   1.111194 S    
C23   N1    1.364854 A    
C8    H3    1.077182 S    
C23   C26   1.406026 A    
C2    C6    1.437033 S    
Zn1   O5    2.009771 S    
C13   H1    1.083706 S    
C10   C11   1.419336 A    
Zn2   O6    2.000853 S    
C28   I2    2.144976 S    
C15   C22   1.497183 S    
C26   C27   1.487912 S    
O5    C3    1.285268 A    
C4    C5    1.434099 S    
N2    C26   1.361812 A    
O2    Zn2   2.009770 S    
C24   C25   1.419361 A    
C27   C28   1.515743 S    
C25   H11   1.081884 S    
O3    C2    1.288916 A    
C10   C14   1.396841 A    
C21   H7    1.112358 S    
C7    C11   1.410968 A    
C24   H10   1.081746 S    
C9    C10   1.377953 A    
C14   H2    1.084286 S    
O1    C1    1.292480 A    
C20   C21   1.493563 S    
C18   C19   1.397542 A    
