data_mof_unit_53833.cif
_audit_creation_date              2012-12-10T21:36:32-0500
_audit_creation_method            fapswitch 2.2
_symmetry_space_group_name_H-M    P1
_symmetry_Int_Tables_number       1
_space_group_crystal_system       triclinic
_cell_length_a                    10.488185
_cell_length_b                    16.35522
_cell_length_c                    16.666633
_cell_angle_alpha                 87.395275
_cell_angle_beta                  93.570529
_cell_angle_gamma                 91.589811
_cell_volume                      2849.54951926

loop_
_atom_site_label
_atom_site_type_symbol
_atom_type_description
_atom_site_fract_x
_atom_site_fract_y
_atom_site_fract_z
_atom_type_partial_charge
C1    C     C_R   0.504359 0.488767 0.653095 0.869105
C2    C     C_R   0.501383 0.510931 0.347396 0.862495
C3    C     C_R   0.598874 0.464442 0.903330 0.305225
C4    C     C_R   0.526953 0.513482 0.095956 0.284691
C5    C     C_R   0.536292 0.399744 0.864024 -0.228218
C6    C     C_R   0.612302 0.467614 0.147663 -0.207568
C7    C     C_R   0.503981 0.407509 0.782091 -0.240712
C8    C     C_R   0.605008 0.469027 0.229954 -0.245431
C9    C     C_R   0.425959 0.762865 0.464160 0.190982
C10   C     C_R   0.552374 0.234684 0.547625 0.159982
C11   C     C_R   0.414007 0.848117 0.474967 0.094897
C12   C     C_R   0.528111 0.148315 0.555049 0.116422
C13   C     C_R   0.506436 0.890643 0.524162 0.119617
C14   C     C_R   0.450731 0.109113 0.495366 0.141925
C15   C     C_R   0.598426 0.843341 0.568742 0.075984
C16   C     C_R   0.384910 0.158727 0.436425 0.062698
C17   C     C_R   0.602172 0.756953 0.561249 0.192719
C18   C     C_R   0.401352 0.245387 0.434782 0.195210
C19   C     C_R   0.742349 0.499611 0.498811 0.852646
C20   C     C_R   0.257690 0.500603 0.499618 0.852766
C21   C     C_3   0.964803 0.518424 0.571174 -0.189214
C22   C     C_3   0.035830 0.482653 0.424915 -0.208860
C23   C     C_3   0.044834 0.575642 0.516543 -0.153770
C24   C     C_3   0.955785 0.425434 0.479335 -0.145000
C25   C     C_3   0.122675 0.501702 0.498919 0.042210
C26   C     C_3   0.877545 0.499131 0.497291 0.048425
C27   C     C_3   0.045329 0.444554 0.553438 -0.160820
C28   C     C_3   0.954854 0.556380 0.442593 -0.169749
C29   C     C_R   0.533009 0.480675 0.739457 -0.056090
C30   C     C_R   0.513930 0.516535 0.261865 -0.031803
C31   C     C_R   0.601358 0.543979 0.778177 -0.277608
C32   C     C_R   0.431215 0.564204 0.211897 -0.285566
C33   C     C_R   0.637391 0.536090 0.859899 0.194973
C34   C     C_R   0.436788 0.563109 0.128424 0.177414
H1    H     H_    0.086267 0.636730 0.531342 0.140453
H2    H     H_    0.917765 0.364768 0.461468 0.139316
H3    H     H_    0.930992 0.532686 0.630680 0.128491
H4    H     H_    0.069878 0.468195 0.365527 0.123009
H5    H     H_    0.086615 0.399128 0.598619 0.134148
H6    H     H_    0.913241 0.601660 0.397394 0.134754
H7    H     H_    0.358979 0.598925 0.237832 0.144735
H8    H     H_    0.628462 0.599173 0.744573 0.138194
H9    H     H_    0.507263 0.344948 0.897806 0.149531
H10   H     H_    0.683699 0.429721 0.124853 0.159720
H11   H     H_    0.453891 0.357300 0.752517 0.160636
H12   H     H_    0.669644 0.432259 0.268940 0.151448
N1    N     N_2   0.604651 0.461787 0.987459 -0.212006
N2    N     N_2   0.528362 0.510866 0.011471 -0.200707
N3    N     N_R   0.515540 0.716920 0.509720 -0.155112
N4    N     N_R   0.484460 0.283080 0.490280 -0.149284
N5    N     N_2   0.516264 0.978771 0.530605 -0.128730
N6    N     N_2   0.433921 0.021219 0.491950 -0.161210
O1    O     O_R   0.494440 0.422540 0.612660 -0.638964
O2    O     O_R   0.505560 0.577460 0.387340 -0.622548
O3    O     O_R   0.504420 0.561850 0.618900 -0.630899
O4    O     O_R   0.495580 0.438150 0.381100 -0.617946
O5    O     O_R   0.681060 0.430360 0.496900 -0.629381
O6    O     O_R   0.318940 0.569640 0.503100 -0.645628
O7    O     O_R   0.691040 0.569670 0.503140 -0.623829
O8    O     O_R   0.308960 0.430330 0.496860 -0.637123
Zn1   Zn    Zn3+2 0.493340 0.406980 0.495830 0.910065
Zn2   Zn    Zn3+2 0.506660 0.593020 0.504170 0.912547
N7    N     N_2   0.687236 0.882579 0.623749 -0.292258
H13   H     H_    0.728601 0.935718 0.600430 0.240647
C35   C     C_3   0.639224 0.892896 0.702117 -0.785555
H14   H     H_    0.554211 0.932053 0.696613 0.262996
H15   H     H_    0.714505 0.922214 0.741759 0.233612
H16   H     H_    0.611716 0.832830 0.730563 0.229477
N8    N     N_2   0.299269 0.121611 0.378240 -0.294374
H17   H     H_    0.336495 0.072473 0.351901 0.227224
C36   C     C_3   0.172117 0.104857 0.405052 -0.804899
H18   H     H_    0.175742 0.061718 0.458330 0.252829
H19   H     H_    0.111141 0.077425 0.355939 0.237872
H20   H     H_    0.127768 0.162063 0.421658 0.236548
C37   C     C_3   0.707543 0.711498 0.609097 -0.318744
C38   C     C_3   0.836142 0.726341 0.571925 -0.865515
H21   H     H_    0.910624 0.691874 0.608313 0.236999
H22   H     H_    0.831433 0.705640 0.509286 0.271233
H23   H     H_    0.864704 0.792175 0.571234 0.260484
H24   H     H_    0.715860 0.730898 0.672102 0.185304
H25   H     H_    0.687473 0.645720 0.614705 0.241031
C39   C     C_3   0.329679 0.293929 0.367483 -0.314965
C40   C     C_3   0.396931 0.291659 0.288838 -0.836599
H26   H     H_    0.499723 0.308816 0.298299 0.269603
H27   H     H_    0.389093 0.229345 0.264954 0.253731
H28   H     H_    0.351678 0.335243 0.243326 0.244943
H29   H     H_    0.230727 0.269447 0.357300 0.189804
H30   H     H_    0.315050 0.357196 0.382232 0.241463
C41   C     C_3   0.344226 0.613489 0.074936 -0.422505
C42   C     C_3   0.233628 0.560299 0.040902 -0.848331
H31   H     H_    0.269018 0.512676 0.003037 0.270272
H32   H     H_    0.181409 0.530174 0.090643 0.253931
H33   H     H_    0.166151 0.599103 0.003129 0.246457
H34   H     H_    0.304248 0.662457 0.109371 0.199757
H35   H     H_    0.394746 0.644574 0.024932 0.208061
C43   C     C_3   0.714695 0.604536 0.899606 -0.415737
C44   C     C_3   0.848725 0.577001 0.927683 -0.866509
H36   H     H_    0.844356 0.526719 0.974542 0.266695
H37   H     H_    0.899010 0.555701 0.876036 0.256532
H38   H     H_    0.904353 0.629210 0.953767 0.246307
H39   H     H_    0.724676 0.658260 0.856902 0.193887
H40   H     H_    0.665541 0.626392 0.951345 0.217870
C45   C     C_3   0.659470 0.270746 0.601278 -0.347239
C46   C     C_3   0.789720 0.249314 0.572707 -0.919966
H41   H     H_    0.791467 0.261672 0.506811 0.264150
H42   H     H_    0.866015 0.286844 0.603681 0.251648
H43   H     H_    0.811056 0.183921 0.585570 0.246042
H44   H     H_    0.657280 0.337062 0.601714 0.269650
H45   H     H_    0.651353 0.249929 0.665099 0.182567
C47   C     C_3   0.339344 0.726313 0.397848 -0.319278
C48   C     C_3   0.378975 0.756742 0.314637 -0.909445
H46   H     H_    0.475101 0.734125 0.303950 0.272815
H47   H     H_    0.309020 0.733678 0.267742 0.236266
H48   H     H_    0.381417 0.824551 0.308401 0.261755
H49   H     H_    0.338359 0.660004 0.398655 0.253857
H50   H     H_    0.238403 0.741978 0.404878 0.197682
N9    N     N_2   0.568991 0.102549 0.626497 -0.280082
H51   H     H_    0.661739 0.112618 0.648132 0.233583
C49   C     C_3   0.478637 0.101539 0.688722 -0.810262
H52   H     H_    0.516581 0.065282 0.742432 0.231962
H53   H     H_    0.386270 0.073040 0.666859 0.255906
H54   H     H_    0.462452 0.164791 0.706903 0.228118
N10   N     N_2   0.303659 0.887041 0.438782 -0.291485
H55   H     H_    0.317824 0.936162 0.399373 0.240900
C50   C     C_3   0.198568 0.891802 0.490483 -0.791256
H56   H     H_    0.113200 0.915025 0.454780 0.233395
H57   H     H_    0.224184 0.933529 0.540030 0.250436
H58   H     H_    0.173817 0.830107 0.516653 0.235043

loop_
_geom_bond_atom_site_label_1
_geom_bond_atom_site_label_2
_ccdc_geom_bond_type
O6    Zn2   S    
C21   C26   S    
N7    C35   S    
C7    C29   A    
C31   H8    S    
C43   H40   S    
C48   H46   S    
C38   H23   S    
C46   H42   S    
C44   H36   S    
N10   H55   S    
C19   O5    A    
C24   H2    S    
C7    H11   S    
C10   C45   S    
C24   C26   S    
N9    C49   S    
N10   C50   S    
C20   C25   S    
C3    C33   A    
C39   H29   S    
C22   H4    S    
O3    Zn2   S    
C41   H34   S    
N8    C36   S    
C19   C26   S    
C1    O1    A    
C47   C48   S    
C13   N5    S    
O1    Zn1   S    
C14   N6    S    
N1    N2    D    
C27   H5    S    
C35   H15   S    
C22   C25   S    
C50   H58   S    
C32   H7    S    
C24   C27   S    
C45   H44   S    
C20   O8    A    
C37   H24   S    
C5    H9    S    
C6    H10   S    
C43   H39   S    
C46   H41   S    
C44   H37   S    
C49   H53   S    
C4    C34   A    
C31   C33   A    
N5    N6    D    
C9    N3    A    
C38   H21   S    
C4    C6    A    
C2    O2    A    
C17   N3    A    
C5    C7    A    
C37   H25   S    
C6    C8    A    
O2    Zn2   S    
C19   O7    A    
N7    H13   S    
O8    Zn1   S    
C32   C34   A    
C41   H35   S    
C37   C38   S    
C28   H6    S    
C42   H32   S    
C40   H26   S    
C35   H16   S    
C43   C44   S    
C1    C29   S    
C48   H47   S    
C23   C28   S    
C9    C11   A    
C10   C12   A    
C40   H27   S    
C12   C14   A    
C35   H14   S    
C23   H1    S    
C13   C15   A    
C50   H56   S    
C22   C24   S    
C20   O6    A    
C10   N4    A    
C33   C43   S    
C47   H50   S    
C44   H38   S    
C18   N4    A    
C42   H33   S    
C36   H19   S    
C4    N2    S    
C49   H54   S    
C9    C47   S    
C15   C17   A    
O7    Zn2   S    
N3    Zn2   S    
C11   N10   S    
C16   N8    S    
C38   H22   S    
C3    C5    A    
C36   H20   S    
C49   H52   S    
O5    Zn1   S    
C25   C27   S    
C26   C28   S    
C2    C30   S    
C45   H45   S    
C8    C30   A    
C21   C23   S    
C1    O3    A    
C34   C41   S    
C36   H18   S    
C29   C31   A    
C2    O4    A    
N9    H51   S    
C30   C32   A    
C11   C13   A    
C42   H31   S    
C39   H30   S    
C3    N1    S    
C18   C39   S    
C48   H48   S    
C14   C16   A    
C23   C25   S    
C21   C27   S    
N8    H17   S    
C8    H12   S    
C12   N9    S    
C40   H28   S    
C21   H3    S    
C16   C18   A    
C39   C40   S    
C45   C46   S    
C50   H57   S    
N4    Zn1   S    
C15   N7    S    
O4    Zn1   S    
C22   C28   S    
C41   C42   S    
C47   H49   S    
C46   H43   S    
C17   C37   S    
