data_mof_unit_40865.cif
_audit_creation_date              2012-12-11T15:42:42-0500
_audit_creation_method            fapswitch 2.2
_symmetry_space_group_name_H-M    P1
_symmetry_Int_Tables_number       1
_space_group_crystal_system       triclinic
_cell_length_a                    6.916737
_cell_length_b                    14.659491
_cell_length_c                    16.186683
_cell_angle_alpha                 90.497319
_cell_angle_beta                  90.280496
_cell_angle_gamma                 90.111146
_cell_volume                      1641.17766321

loop_
_atom_site_label
_atom_site_type_symbol
_atom_type_description
_atom_site_fract_x
_atom_site_fract_y
_atom_site_fract_z
_atom_type_partial_charge
O1    O     O_R   0.505810 0.583360 0.413880 -0.539824
O2    O     O_R   0.175870 0.595480 0.585520 -0.505129
O3    O     O_R   0.005540 0.416640 0.586120 -0.550342
C1    C     C_R   0.345314 0.617616 0.614926 0.808432
O4    O     O_R   0.176100 0.594390 0.414490 -0.505546
O5    O     O_R   0.005770 0.415540 0.413870 -0.540567
C2    C     C_R   0.345265 0.616994 0.385697 0.744832
O6    O     O_R   0.505580 0.584460 0.586130 -0.509781
O7    O     O_3   0.339190 0.441320 0.500000 -0.392926
V1    V     V_3+5 0.064350 0.510890 0.500000 1.668936
O8    O     O_R   0.676050 0.404520 0.414480 -0.543082
C3    C     C_R   0.844162 0.381897 0.385895 0.691098
O9    O     O_R   0.675830 0.405610 0.585510 -0.546883
C4    C     C_R   0.846100 0.380597 0.610851 0.647390
V2    V     V_3+5 0.564340 0.489110 0.500000 1.599042
O10   O     O_3   0.839370 0.558680 0.500000 -0.319452
C5    C     C_2   0.728582 0.202738 0.777511 0.373923
C6    C     C_2   0.878807 0.192341 0.831418 0.209981
C7    C     C_2   0.718419 0.281121 0.719959 -0.080503
C8    C     C_2   0.864044 0.302814 0.668764 0.228606
H1    H     H_    0.582629 0.318057 0.716484 0.124587
C9    C     C_R   0.021122 0.185857 0.249455 0.340034
C10   C     C_R   0.002205 0.246006 0.316830 0.371244
C11   C     C_R   0.852166 0.312073 0.318120 -0.367793
C12   C     C_R   0.712950 0.310876 0.252861 0.338746
C13   C     C_R   0.728080 0.247519 0.187822 0.346239
C14   C     C_R   0.882028 0.184495 0.184884 -0.358573
C15   C     C_R   0.212012 0.752651 0.696770 0.383679
C16   C     C_R   0.222822 0.813929 0.763713 -0.144293
H2    H     H_    0.110414 0.864708 0.771068 0.170952
C17   C     C_R   0.378926 0.812435 0.819278 -0.176580
C18   C     C_R   0.524318 0.747339 0.807449 -0.159193
H3    H     H_    0.645116 0.744506 0.850225 0.163057
C19   C     C_R   0.513642 0.683527 0.742471 0.389967
C20   C     C_R   0.357182 0.685320 0.685010 -0.217754
C21   C     C_R   0.204257 0.748383 0.302261 0.389700
C22   C     C_R   0.215475 0.810441 0.236965 -0.163662
H4    H     H_    0.095988 0.856729 0.226600 0.170427
C23   C     C_R   0.380365 0.815607 0.187147 -0.188113
C24   C     C_R   0.535655 0.757838 0.204047 -0.123098
H5    H     H_    0.665049 0.760922 0.166667 0.155007
C25   C     C_R   0.524574 0.692046 0.265893 0.384036
C26   C     C_R   0.357048 0.685692 0.317120 -0.237625
O11   O     O_R   0.230120 0.912300 0.917180 -0.546383
O12   O     O_R   0.559740 0.902430 0.088770 -0.554577
O13   O     O_R   0.729930 0.081310 0.089370 -0.517393
C27   C     C_R   0.390966 0.881666 0.118232 0.724532
O14   O     O_R   0.559840 0.901330 0.917750 -0.541793
O15   O     O_R   0.730030 0.080210 0.917120 -0.510976
C28   C     C_R   0.390483 0.879479 0.888662 0.765219
O16   O     O_R   0.230020 0.913400 0.089430 -0.549633
O17   O     O_3   0.396460 0.055470 0.003290 -0.338180
V3    V     V_3+5 0.671360 0.985960 0.003250 1.550295
O18   O     O_R   0.059740 0.091300 0.917690 -0.534928
C29   C     C_R   0.889896 0.114841 0.890658 0.687918
O19   O     O_R   0.059640 0.092400 0.088720 -0.546629
C30   C     C_R   0.891343 0.114913 0.117297 0.813984
V4    V     V_3+5 0.171350 0.007820 0.003190 1.555284
O20   O     O_3   0.896380 0.938200 0.003220 -0.391858
Cl1   Cl    Cl    0.531163 0.126246 0.771345 -0.604107
Cl2   Cl    Cl    0.697028 0.600023 0.739583 -0.611766
Cl3   Cl    Cl    0.999609 0.757723 0.366357 -0.522012
O21   O     O_3   0.681287 0.635181 0.273264 -0.605197
H6    H     H_    0.630775 0.573026 0.280584 0.275928
O22   O     O_3   0.020559 0.259313 0.833766 -0.603392
H7    H     H_    0.111302 0.247130 0.879869 0.326452
O23   O     O_3   0.028323 0.248808 0.668343 -0.590632
H8    H     H_    0.114042 0.268037 0.622836 0.307909
O24   O     O_3   0.169440 0.123532 0.251983 -0.596551
H9    H     H_    0.252532 0.136305 0.203788 0.330831
O25   O     O_3   0.133227 0.236846 0.380902 -0.584375
H10   H     H_    0.069347 0.254319 0.433288 0.287745
O26   O     O_3   0.559056 0.370444 0.249460 -0.590387
H11   H     H_    0.596609 0.428066 0.276455 0.282029
Cl4   Cl    Cl    0.557204 0.255274 0.106276 -0.579643
Cl5   Cl    Cl    0.016909 0.767261 0.627558 -0.516909

loop_
_geom_bond_atom_site_label_1
_geom_bond_atom_site_label_2
_ccdc_geom_bond_type
O26   H11   S    
C8    O23   S    
C7    C8    D    
C1    O6    A    
V3    O20   S    
C6    O22   S    
C13   C14   A    
C16   H2    S    
C21   C22   A    
C7    H1    S    
O5    C3    A    
V2    O10   S    
O19   C30   A    
C19   C20   A    
O8    V2    S    
C15   C20   A    
O11   V4    S    
C10   C11   A    
O1    V2    S    
C2    C26   S    
O7    V1    S    
C9    O24   S    
O14   C28   A    
C1    C20   S    
O12   V3    S    
O9    C4    A    
C21   Cl3   S    
C12   C13   A    
C5    C6    D    
O12   C27   A    
O14   V3    S    
O23   H8    S    
C4    C8    S    
C11   C12   A    
C14   C30   S    
C23   C24   A    
O4    C2    A    
C27   O16   A    
V4    O20   S    
O15   C29   A    
C19   Cl2   S    
C18   C19   A    
O2    C1    A    
C22   H4    S    
C10   O25   S    
C17   C18   A    
C13   Cl4   S    
O16   V4    S    
O3    C4    A    
O17   V4    S    
C6    C29   S    
C24   H5    S    
O6    V2    S    
C9    C14   A    
O9    V2    S    
O13   C30   A    
C25   C26   A    
C17   C28   S    
O2    V1    S    
O17   V3    S    
C23   C27   S    
O18   V4    S    
O11   C28   A    
O18   C29   A    
C15   C16   A    
O1    C2    A    
O5    V1    S    
O8    C3    A    
C3    C11   S    
C18   H3    S    
O7    V2    S    
O4    V1    S    
C22   C23   A    
O3    V1    S    
V1    O10   S    
O15   V3    S    
O13   V3    S    
C24   C25   A    
C5    C7    S    
O19   V4    S    
C12   O26   S    
O24   H9    S    
C5    Cl1   S    
O21   H6    S    
O25   H10   S    
C16   C17   A    
O22   H7    S    
C9    C10   A    
C21   C26   A    
C25   O21   S    
C15   Cl5   S    
