data_mof_unit_6371.cif
_audit_creation_date              2012-12-10T19:03:05-0500
_audit_creation_method            fapswitch 2.2
_symmetry_space_group_name_H-M    P1
_symmetry_Int_Tables_number       1
_space_group_crystal_system       triclinic
_cell_length_a                    10.782881
_cell_length_b                    10.85124
_cell_length_c                    9.594444
_cell_angle_alpha                 90.906645
_cell_angle_beta                  88.91443
_cell_angle_gamma                 92.538787
_cell_volume                      1121.19377854

loop_
_atom_site_label
_atom_site_type_symbol
_atom_type_description
_atom_site_fract_x
_atom_site_fract_y
_atom_site_fract_z
_atom_type_partial_charge
C1    C     C_R   0.494677 0.262451 0.498984 0.793399
C2    C     C_3   0.880332 0.506010 0.502067 0.137800
C3    C     C_3   0.945043 0.637327 0.473465 -0.000972
C4    C     C_3   0.925914 0.413467 0.388441 -0.428517
C5    C     C_R   0.447197 0.064443 0.617337 0.118457
C6    C     C_R   0.477419 0.129074 0.495814 -0.098488
C7    C     C_R   0.489338 0.062331 0.369889 -0.228777
C8    C     C_R   0.491279 0.933846 0.371229 -0.221214
C9    C     C_R   0.482720 0.870742 0.498553 -0.093884
C10   C     C_R   0.452701 0.937543 0.619182 0.130595
C11   C     C_3   0.511865 0.942375 0.758498 -0.492423
C12   C     C_R   0.260379 0.493113 0.500967 0.757172
C13   C     C_3   0.498909 0.080341 0.759663 -0.473544
C14   C     C_R   0.536536 0.604152 0.072686 0.189106
C15   C     C_R   0.450513 0.402661 0.073770 -0.083391
C16   C     C_R   0.450112 0.402931 0.925274 -0.080771
C17   C     C_R   0.534875 0.603502 0.926113 0.212284
C18   C     C_3   0.654127 0.673237 0.909615 -0.470274
C19   C     C_3   0.658518 0.679705 0.067063 -0.118707
C20   C     C_R   0.495541 0.737575 0.500475 0.790637
C21   C     C_R   0.740853 0.505050 0.499822 0.770679
C22   C     C_3   0.067628 0.463807 0.648729 -0.384392
C23   C     C_3   0.925092 0.458707 0.644604 -0.363386
C24   C     C_3   0.087619 0.625154 0.462418 -0.410046
C25   C     C_3   0.067504 0.400644 0.395154 -0.401871
C26   C     C_3   0.123394 0.494711 0.502382 0.151271
Cu1   Cu    Cu3+1 0.499990 0.499980 0.640670 0.924978
Cu2   Cu    Cu3+1 0.500010 0.500020 0.359330 0.922018
H1    H     H_    0.119879 0.644719 0.353629 0.156323
H2    H     H_    0.917504 0.669154 0.370774 0.146349
H3    H     H_    0.504949 0.108998 0.271730 0.159537
H4    H     H_    0.506644 0.885218 0.273489 0.154948
H5    H     H_    0.454854 0.893895 0.840237 0.196618
H6    H     H_    0.610950 0.920930 0.750229 0.194429
H7    H     H_    0.428259 0.110788 0.837008 0.181874
H8    H     H_    0.589486 0.133533 0.761372 0.207285
H9    H     H_    0.412023 0.322900 0.128261 0.132012
H10   H     H_    0.099839 0.373477 0.683741 0.157404
H11   H     H_    0.410209 0.324036 0.869779 0.132938
H12   H     H_    0.724427 0.616224 0.856954 0.216054
H13   H     H_    0.645028 0.764023 0.864485 0.169424
H14   H     H_    0.647456 0.775201 0.108146 0.144389
H15   H     H_    0.889537 0.361860 0.659977 0.164301
H16   H     H_    0.888463 0.513455 0.733669 0.163502
H17   H     H_    0.138700 0.693825 0.530119 0.144562
H18   H     H_    0.109204 0.416028 0.289504 0.178744
H19   H     H_    0.088028 0.305245 0.425713 0.157688
H20   H     H_    0.878302 0.321188 0.402252 0.166405
N1    N     N_R   0.500800 0.500930 0.147930 -0.184915
N2    N     N_R   0.500800 0.500890 0.852020 -0.179160
O1    O     O_R   0.500000 0.319640 0.618810 -0.584763
O2    O     O_R   0.500010 0.319680 0.381230 -0.589114
O3    O     O_R   0.317690 0.499960 0.618790 -0.586739
O4    O     O_R   0.317700 0.500000 0.381210 -0.585525
O5    O     O_R   0.499990 0.680320 0.618770 -0.580738
O6    O     O_R   0.500000 0.680360 0.381190 -0.587731
O7    O     O_R   0.682300 0.500000 0.618790 -0.586189
O8    O     O_R   0.682310 0.500040 0.381210 -0.600054
H21   H     H_    0.099153 0.535330 0.726330 0.177005
H22   H     H_    0.902677 0.445627 0.283186 0.175925
C27   C     C_3   0.772702 0.620903 0.123514 -0.303955
C28   C     C_3   0.895106 0.681012 0.069223 -0.913711
H23   H     H_    0.909757 0.661521 0.956500 0.250069
H24   H     H_    0.896462 0.782411 0.087478 0.258736
H25   H     H_    0.973767 0.643006 0.125121 0.234614
H26   H     H_    0.768771 0.640641 0.235208 0.220908
H27   H     H_    0.770379 0.519842 0.102082 0.212971
C29   C     C_3   0.916830 0.742715 0.579402 -0.416264
C30   C     C_3   0.788846 0.793478 0.565121 -0.879998
H28   H     H_    0.762324 0.798698 0.454159 0.244608
H29   H     H_    0.721194 0.734684 0.623528 0.273484
H30   H     H_    0.788214 0.887764 0.611598 0.237874
H31   H     H_    0.930761 0.714689 0.688444 0.209382
H32   H     H_    0.983444 0.822087 0.559643 0.210757

loop_
_geom_bond_atom_site_label_1
_geom_bond_atom_site_label_2
_ccdc_geom_bond_type
C3    H2    S    
Cu2   O2    S    
C3    C29   S    
C20   O6    A    
C4    C25   S    
Cu2   O6    S    
C7    C8    A    
C24   H17   S    
C24   C26   S    
C13   H7    S    
C5    C6    A    
Cu1   O5    S    
C14   N1    A    
C29   H32   S    
C15   C16   A    
C22   H10   S    
C23   H15   S    
C18   C19   S    
C30   H29   S    
C18   H12   S    
C24   H1    S    
C15   H9    S    
C28   H24   S    
C27   H26   S    
C8    C9    A    
C9    C10   A    
C25   H19   S    
C5    C13   S    
C12   O3    A    
Cu1   N2    S    
C14   C17   A    
C3    C24   S    
C27   C28   S    
C20   O5    A    
Cu1   O1    S    
C7    H3    S    
C1    C6    S    
C8    H4    S    
C11   H5    S    
C13   H8    S    
Cu1   O7    S    
C18   H13   S    
C22   H21   S    
Cu2   O4    S    
C29   C30   S    
C29   H31   S    
C23   H16   S    
C12   C26   S    
C30   H30   S    
C2    C4    S    
C21   O7    A    
C28   H23   S    
Cu2   N1    S    
C27   H27   S    
C9    C20   S    
C4    H22   S    
C2    C21   S    
C17   C18   S    
C1    O1    A    
Cu1   Cu2   S    
C4    H20   S    
C28   H25   S    
C14   C19   S    
C11   H6    S    
C16   N2    A    
C17   N2    A    
Cu1   O3    S    
C6    C7    A    
Cu2   O8    S    
C2    C3    S    
C25   C26   S    
C21   O8    A    
C11   C13   S    
C19   H14   S    
C19   C27   S    
C15   N1    A    
C30   H28   S    
C1    O2    A    
C10   C11   S    
C16   H11   S    
C5    C10   A    
C22   C26   S    
C2    C23   S    
C22   C23   S    
C25   H18   S    
C12   O4    A    
