data_mof_unit_54539.cif
_audit_creation_date              2012-12-11T15:57:40-0500
_audit_creation_method            fapswitch 2.2
_symmetry_space_group_name_H-M    P1
_symmetry_Int_Tables_number       1
_space_group_crystal_system       triclinic
_cell_length_a                    10.708313
_cell_length_b                    10.748452
_cell_length_c                    16.975239
_cell_angle_alpha                 99.517027
_cell_angle_beta                  99.818974
_cell_angle_gamma                 61.394817
_cell_volume                      1682.27384333

loop_
_atom_site_label
_atom_site_type_symbol
_atom_type_description
_atom_site_fract_x
_atom_site_fract_y
_atom_site_fract_z
_atom_type_partial_charge
C1    C     C_R   0.379744 0.714424 0.387984 0.564583
C2    C     C_2   0.828192 0.330917 0.158896 -0.109356
C3    C     C_2   0.853133 0.218125 0.195113 -0.158813
C4    C     C_2   0.825366 0.234256 0.277885 -0.159742
C5    C     C_2   0.365572 0.763855 0.311145 -0.106204
C6    C     C_2   0.357395 0.792297 0.144705 -0.114292
C7    C     C_2   0.460939 0.795564 0.200142 -0.162759
C8    C     C_2   0.479972 0.744827 0.278400 -0.167726
C9    C     C_2   0.306544 0.312484 0.639100 -0.079540
C10   C     C_2   0.315231 0.315827 0.814167 -0.109509
C11   C     C_2   0.325421 0.210950 0.756570 -0.135697
C12   C     C_R   0.369170 0.346466 0.357216 0.547495
C13   C     C_2   0.382430 0.202060 0.683490 0.111812
C14   C     C_1   0.847213 0.328806 0.704964 -0.043403
C15   C     C_1   0.894557 0.293401 0.771518 -0.042112
C16   C     C_1   0.358953 0.763407 0.713753 -0.059746
C17   C     C_1   0.325881 0.810901 0.780558 -0.051953
C18   C     C_R   0.893654 0.308038 0.086522 0.564054
C19   C     C_R   0.319524 0.299992 0.119559 0.550493
C20   C     C_R   0.296640 0.885872 0.081131 0.557427
C21   C     C_R   0.944142 0.273181 0.853997 0.557852
C22   C     C_R   0.306240 0.292324 0.893006 0.541393
C23   C     C_R   0.775983 0.377170 0.404645 0.545837
C24   C     C_R   0.280404 0.880939 0.857198 0.537796
C25   C     C_R   0.381697 0.713749 0.631533 0.557715
C26   C     C_R   0.367045 0.345524 0.580595 0.552287
C27   C     C_R   0.777751 0.378889 0.628883 0.542952
C28   C     C_1   0.342957 0.336872 0.273788 -0.038010
C29   C     C_1   0.332231 0.326906 0.202845 -0.035318
C30   C     C_2   0.846086 0.330588 0.331898 -0.110916
Cr1   Cr    Cr6+3 0.608020 0.610770 0.522990 1.028078
Cr2   Cr    Cr6+3 0.289390 0.599570 0.488050 1.027183
Cr3   Cr    Cr6+3 0.602610 0.289690 0.489020 1.029680
Cr4   Cr    Cr6+3 0.053780 0.052210 0.965970 1.026875
Cr5   Cr    Cr6+3 0.060060 0.372530 0.992430 1.028579
Cr6   Cr    Cr6+3 0.372600 0.061970 0.991430 1.020015
H1    H     H_    0.898858 0.110903 0.164931 0.162235
H2    H     H_    0.327449 0.406705 0.804458 0.088391
H3    H     H_    0.199316 0.391204 0.653087 0.085623
H4    H     H_    0.781131 0.169993 0.292981 0.165325
H5    H     H_    0.778331 0.438303 0.188683 0.107376
H6    H     H_    0.895011 0.390755 0.316910 0.110564
H7    H     H_    0.521747 0.848487 0.191844 0.159606
H8    H     H_    0.586100 0.700042 0.311067 0.156122
H9    H     H_    0.301589 0.733855 0.152456 0.108268
H10   H     H_    0.258396 0.815239 0.280198 0.116617
H11   H     H_    0.317242 0.119022 0.768881 0.139434
O1    O     O_R   0.749250 0.499990 0.439200 -0.523842
O2    O     O_R   0.299400 0.468710 0.556310 -0.519401
O3    O     O_R   0.489240 0.256450 0.560730 -0.485556
O4    O     O_R   0.723350 0.306730 0.584410 -0.498197
O5    O     O_3   0.500010 0.500010 0.500020 -0.291491
O6    O     O_R   0.170650 0.915100 0.051290 -0.517422
O7    O     O_R   0.941960 0.184500 0.049060 -0.492118
O8    O     O_R   0.922640 0.402670 0.071640 -0.506438
O9    O     O_R   0.196880 0.368740 0.083740 -0.496951
O10   O     O_R   0.411120 0.181190 0.091480 -0.508142
O11   O     O_R   0.364220 0.944920 0.062310 -0.491399
O12   O     O_R   0.477870 0.725740 0.440280 -0.475254
O13   O     O_R   0.158740 0.906940 0.874970 -0.509656
O14   O     O_R   0.930920 0.176940 0.885610 -0.489770
O15   O     O_R   0.910730 0.394510 0.895320 -0.502484
O16   O     O_R   0.185840 0.361180 0.920280 -0.507074
O17   O     O_R   0.399210 0.173040 0.915160 -0.510378
O18   O     O_R   0.353170 0.937370 0.898860 -0.506346
O19   O     O_3   0.162150 0.162240 0.983280 -0.272792
O20   O     O_R   0.260770 0.742210 0.412610 -0.501163
O21   O     O_R   0.297990 0.466320 0.394220 -0.512531
O22   O     O_R   0.487720 0.253870 0.385870 -0.506333
O23   O     O_R   0.721940 0.304340 0.422320 -0.496509
O24   O     O_R   0.750770 0.502570 0.614050 -0.513606
O25   O     O_R   0.479280 0.728140 0.602370 -0.492604
O26   O     O_R   0.262290 0.744790 0.587460 -0.490464
N1    N     N_2   0.527329 0.098930 0.672137 -0.470337
H12   H     H_    0.596734 0.142485 0.681916 0.271937
C31   C     C_3   0.586285 0.968393 0.710122 -0.272345
H13   H     H_    0.689629 0.890859 0.686839 0.151978
H14   H     H_    0.512225 0.921107 0.696552 0.181760
H15   H     H_    0.605465 0.989539 0.776243 0.148356

loop_
_geom_bond_atom_site_label_1
_geom_bond_atom_site_label_2
_ccdc_geom_bond_type
C19   O9    A    
C12   O22   A    
C6    H9    S    
C2    C18   S    
C11   H11   S    
C31   H15   S    
Cr1   O5    S    
Cr4   O19   S    
C7    C8    S    
C10   C22   S    
Cr3   O5    S    
C12   O21   A    
N1    C31   S    
C12   C28   S    
C1    C5    S    
C28   C29   T    
C31   H14   S    
Cr6   O11   S    
C26   O3    A    
Cr6   O19   S    
C2    H5    S    
C9    H3    S    
Cr1   O12   S    
C9    C13   D    
Cr2   O5    S    
C22   O16   A    
C4    H4    S    
C16   C17   T    
C7    H7    S    
C14   C27   S    
C21   O14   A    
Cr3   O22   S    
Cr2   O21   S    
Cr1   O24   S    
Cr4   O13   S    
C23   O23   A    
C27   O4    A    
C9    C26   S    
C17   C24   S    
N1    H12   S    
Cr5   O8    S    
C23   C30   S    
C31   H13   S    
Cr6   O10   S    
C26   O2    A    
Cr2   O26   S    
Cr6   O18   S    
Cr5   O19   S    
Cr3   O3    S    
Cr4   O14   S    
C19   O10   A    
C24   O13   A    
C25   O25   A    
C21   O15   A    
C24   O18   A    
Cr2   O20   S    
C18   O8    A    
Cr1   O25   S    
Cr4   O7    S    
Cr1   O1    S    
Cr3   O23   S    
C20   O11   A    
C3    C4    S    
C19   C29   S    
C27   O24   A    
C16   C25   S    
C23   O1    A    
Cr5   O9    S    
C8    H8    S    
C20   O6    A    
C5    C8    D    
C6    C7    D    
Cr3   O4    S    
C6    C20   S    
C5    H10   S    
C10   H2    S    
C1    O12   A    
C2    C3    D    
C11   C13   S    
C1    O20   A    
Cr5   O15   S    
C25   O26   A    
Cr2   O2    S    
C10   C11   D    
C18   O7    A    
C22   O17   A    
C15   C21   S    
C13   N1    S    
C3    H1    S    
Cr4   O6    S    
C14   C15   T    
C30   H6    S    
Cr5   O16   S    
Cr6   O17   S    
C4    C30   D    
