data_mof_unit_27352.cif
_audit_creation_date              2012-12-11T18:07:23-0500
_audit_creation_method            fapswitch 2.2
_symmetry_space_group_name_H-M    P1
_symmetry_Int_Tables_number       1
_space_group_crystal_system       triclinic
_cell_length_a                    8.298472
_cell_length_b                    12.691514
_cell_length_c                    26.989182
_cell_angle_alpha                 96.711685
_cell_angle_beta                  92.838294
_cell_angle_gamma                 81.554102
_cell_volume                      2790.89483784

loop_
_atom_site_label
_atom_site_type_symbol
_atom_type_description
_atom_site_fract_x
_atom_site_fract_y
_atom_site_fract_z
_atom_type_partial_charge
Ba1   Ba    Ba6+2 0.859560 0.448380 0.523550 1.648644
Ba2   Ba    Ba6+2 0.330270 0.551530 0.476440 1.664187
C1    C     C_3   0.550723 0.125087 0.700492 -0.382788
C2    C     C_R   0.934860 0.615044 0.182162 0.587379
C3    C     C_2   0.765050 0.578446 0.273193 -0.091443
C4    C     C_3   0.079088 0.200694 0.656871 0.322362
C5    C     C_3   0.739484 0.608754 0.328431 -0.070106
C6    C     C_1   0.985133 0.480585 0.343034 0.003851
C7    C     C_2   0.026965 0.475866 0.295519 -0.112458
C8    C     C_2   0.909796 0.524528 0.257188 0.230905
C9    C     C_R   0.028914 0.516909 0.103182 -0.083267
C10   C     C_R   0.049797 0.421581 0.126384 -0.026310
C11   C     C_R   0.106814 0.324829 0.097915 -0.063224
C12   C     C_3   0.545025 0.216701 0.668265 0.299828
C13   C     C_R   0.969747 0.613841 0.131298 -0.044640
C14   C     C_2   0.848413 0.536729 0.360432 -0.242333
C15   C     C_2   0.341455 0.470655 0.643582 -0.136243
C16   C     C_3   0.104493 0.161316 0.708677 -0.236526
C17   C     C_R   0.148717 0.414201 0.971104 0.018965
C18   C     C_R   0.111037 0.611143 0.980746 0.020698
C19   C     C_R   0.150303 0.512141 0.950666 0.049353
C20   C     C_R   0.179084 0.317825 0.938743 -0.100721
C21   C     C_R   0.215052 0.317955 0.888713 -0.072264
C22   C     C_R   0.224532 0.413996 0.868742 -0.032819
C23   C     C_3   0.484295 0.719275 0.627888 0.279822
C24   C     C_R   0.194139 0.511306 0.899923 -0.079460
C25   C     C_R   0.210308 0.607771 0.880714 -0.033614
C26   C     C_R   0.250206 0.606096 0.830172 0.577336
C27   C     C_R   0.264090 0.414865 0.818308 0.576233
C28   C     C_3   0.227247 0.228465 0.337014 0.434903
C29   C     C_2   0.463039 0.486462 0.730797 -0.002776
C30   C     C_3   0.494642 0.485062 0.675368 -0.087293
C31   C     C_1   0.202520 0.525254 0.659531 0.111724
C32   C     C_2   0.169635 0.536624 0.708603 -0.053393
C33   C     C_2   0.306703 0.509739 0.746489 0.248631
C34   C     C_3   0.445515 0.763202 0.681547 -0.367394
C35   C     C_R   0.118815 0.416037 0.023041 0.023394
C36   C     C_R   0.066365 0.515340 0.051816 0.032571
C37   C     C_R   0.048637 0.612846 0.029432 0.019147
C38   C     C_R   0.140067 0.321910 0.047492 -0.100531
C39   C     C_R   0.937799 0.707473 0.107518 -0.060509
C40   C     C_3   0.102379 0.182530 0.300284 -0.403083
C41   C     C_R   0.145694 0.704551 0.962098 -0.112734
C42   C     C_R   0.190760 0.703417 0.912910 -0.067545
C43   C     C_R   0.966296 0.707075 0.056753 0.048269
C44   C     C_R   0.753102 0.819762 0.477816 -0.231704
C45   C     C_3   0.944329 0.864259 0.344236 0.281820
C46   C     C_R   0.396401 0.179475 0.500476 -0.100807
C47   C     C_R   0.399142 0.007740 0.530418 -0.108173
C48   C     C_R   0.322667 0.111451 0.526304 0.038722
C49   C     C_R   0.558972 0.149113 0.485840 0.060096
C50   C     C_R   0.628624 0.039328 0.483488 -0.069858
C51   C     C_R   0.545131 0.967677 0.505777 -0.070666
C52   C     C_3   0.939398 0.789519 0.600059 0.396251
C53   C     C_R   0.612571 0.858560 0.504080 0.063699
C54   C     C_R   0.840209 0.889035 0.457628 -0.022748
C55   C     C_R   0.777959 0.998371 0.459893 -0.095622
C56   C     C_3   0.987660 0.872313 0.290898 -0.290842
C57   C     C_3   0.884244 0.893489 0.634030 -0.169769
C58   C     C_3   0.699900 0.316966 0.376404 0.309205
C59   C     C_3   0.681475 0.296731 0.319824 -0.371114
C60   C     C_3   0.781808 0.981038 0.607199 -0.447560
C61   C     C_3   0.606456 0.474435 0.767585 -0.307738
C62   C     C_3   0.018615 0.607073 0.728971 -0.312508
C63   C     C_3   0.881285 0.802861 0.032633 -0.421246
C64   C     C_3   0.993137 0.227092 0.747778 -0.390696
C65   C     C_3   0.470353 0.826022 0.338232 0.348606
C66   C     C_3   0.522152 0.868127 0.291882 -0.439002
C67   C     C_R   0.011573 0.424802 0.177394 0.590251
H1    H     H_    0.538442 0.183951 0.628305 0.002951
H2    H     H_    0.463164 0.070316 0.685274 0.108272
H3    H     H_    0.746567 0.216622 0.306238 0.117121
H4    H     H_    0.731035 0.358891 0.301990 0.067760
H5    H     H_    0.551075 0.299186 0.308424 0.128280
H6    H     H_    0.434198 0.274480 0.677911 0.021236
H7    H     H_    0.520295 0.157763 0.739418 0.142855
H8    H     H_    0.373868 0.690070 0.609665 0.043315
H9    H     H_    0.586056 0.651804 0.627815 0.021909
H10   H     H_    0.349436 0.834180 0.682051 0.139089
H11   H     H_    0.400456 0.701923 0.701145 0.081337
H12   H     H_    0.013150 0.248819 0.287877 0.118375
H13   H     H_    0.556711 0.787172 0.701691 0.109161
H14   H     H_    0.674046 0.077890 0.701641 0.119671
H15   H     H_    0.231527 0.166445 0.721784 0.150724
H16   H     H_    0.886762 0.790698 0.344728 -0.010372
H17   H     H_    0.857033 0.936283 0.356962 -0.015035
H18   H     H_    0.067642 0.798352 0.276343 0.173403
H19   H     H_    0.875239 0.882958 0.266957 0.110890
H20   H     H_    0.053582 0.941796 0.289548 0.091449
H21   H     H_    0.576249 0.817072 0.365254 -0.078586
H22   H     H_    0.377686 0.887704 0.356875 0.089219
H23   H     H_    0.163101 0.137863 0.266787 0.107779
H24   H     H_    0.610649 0.806580 0.271297 0.140197
H25   H     H_    0.581086 0.940770 0.302828 0.075970
H26   H     H_    0.950370 0.201366 0.644336 0.111411
H27   H     H_    0.414125 0.888867 0.267070 0.130808
H28   H     H_    0.149294 0.441985 0.284546 0.101204
H29   H     H_    0.125722 0.250153 0.114573 0.116007
H30   H     H_    0.236495 0.241756 0.865659 0.110301
H31   H     H_    0.172148 0.240614 0.950763 0.066817
H32   H     H_    0.186342 0.244410 0.028809 0.065677
H33   H     H_    0.675431 0.612929 0.246777 0.095991
H34   H     H_    0.036726 0.128006 0.318445 0.116768
H35   H     H_    0.880639 0.781137 0.127891 0.121299
H36   H     H_    0.143355 0.779390 0.985685 0.081785
H37   H     H_    0.112808 0.282816 0.659151 0.057036
H38   H     H_    0.211182 0.778160 0.900262 0.117646
H39   H     H_    0.825066 0.546713 0.400037 0.065391
H40   H     H_    0.340730 0.959158 0.552235 0.112218
H41   H     H_    0.846824 0.049164 0.442703 0.097468
H42   H     H_    0.802416 0.735688 0.476540 0.052940
H43   H     H_    0.085324 0.076044 0.706268 0.109961
H44   H     H_    0.278988 0.289312 0.318756 0.038986
H45   H     H_    0.833758 0.747402 0.588884 0.046124
H46   H     H_    0.056676 0.743673 0.534584 0.210143
H47   H     H_    0.113004 0.855157 0.567811 0.207612
H48   H     H_    0.820083 0.980747 0.568625 0.172233
H49   H     H_    0.651025 0.972575 0.607040 0.142812
H50   H     H_    0.798351 0.060307 0.626771 0.141271
H51   H     H_    0.696335 0.525995 0.759203 0.095100
H52   H     H_    0.572111 0.498559 0.806881 0.106242
H53   H     H_    0.665204 0.389765 0.764586 0.133376
H54   H     H_    0.043374 0.691139 0.736556 0.133297
H55   H     H_    0.984349 0.580002 0.764108 0.096491
H56   H     H_    0.814670 0.874934 0.665309 0.097235
H57   H     H_    0.910038 0.606120 0.703924 0.136641
H58   H     H_    0.952932 0.870682 0.039926 0.115627
H59   H     H_    0.857781 0.783323 0.992037 0.127934
H60   H     H_    0.759098 0.829562 0.048548 0.118727
H61   H     H_    0.396760 0.332658 0.596530 0.135529
H62   H     H_    0.417620 0.448875 0.572336 0.214200
H63   H     H_    0.337749 0.289603 0.452216 0.201942
H64   H     H_    0.183386 0.263198 0.478851 0.214367
H65   H     H_    0.985230 0.314224 0.744794 0.168950
H66   H     H_    0.870430 0.202378 0.744143 0.158668
H67   H     H_    0.994613 0.925953 0.650706 0.119502
H68   H     H_    0.042298 0.211364 0.785628 0.140983
H69   H     H_    0.419491 0.114871 0.314175 0.143044
H70   H     H_    0.314279 0.081956 0.360855 0.172128
H71   H     H_    0.827307 0.326914 0.386802 0.010797
H72   H     H_    0.617098 0.391148 0.389053 0.075413
N1    N     N_R   0.953718 0.521044 0.204893 -0.419851
N2    N     N_R   0.271377 0.510545 0.799123 -0.421181
N3    N     N_3   0.014097 0.815037 0.556124 -0.516769
N4    N     N_3   0.347931 0.412436 0.594682 -0.426530
N5    N     N_3   0.303049 0.277347 0.487276 -0.425519
N6    N     N_3   0.361333 0.144856 0.347446 -0.476989
O1    O     O_2   0.907040 0.557650 0.617910 -0.481928
O2    O     O_2   0.175919 0.884638 0.467154 -0.472359
O3    O     O_3   0.087545 0.860309 0.374136 -0.576132
O4    O     O_3   0.139040 0.557570 0.557730 -0.466172
O5    O     O_3   0.571310 0.369620 0.475470 -0.483191
O6    O     O_2   0.348200 0.764910 0.523260 -0.467612
O7    O     O_3   0.530662 0.801754 0.603999 -0.658340
O8    O     O_2   0.442951 0.523828 0.325035 -0.490003
O9    O     O_3   0.398814 0.732072 0.324188 -0.556875
O10   O     O_2   0.027472 0.341628 0.196942 -0.616672
O11   O     O_2   0.293674 0.330348 0.791571 -0.629047
O12   O     O_3   0.661649 0.227886 0.396872 -0.624769
O13   O     O_2   0.887837 0.700560 0.206308 -0.635216
O14   O     O_2   0.266574 0.689585 0.813822 -0.603390
O15   O     O_3   0.684960 0.360550 0.588460 -0.475394
O16   O     O_2   0.835064 0.424627 0.672101 -0.496124
O17   O     O_3   0.056253 0.728350 0.627822 -0.667754
O18   O     O_3   0.687968 0.263206 0.678175 -0.621978
O19   O     O_2   0.841490 0.235060 0.476710 -0.471675
O20   O     O_3   0.099640 0.305100 0.564190 -0.450018
O21   O     O_2   0.987503 0.116569 0.542825 -0.499387
O22   O     O_3   0.179256 0.130355 0.623550 -0.658780
O23   O     O_2   0.282660 0.442310 0.382060 -0.461310
O24   O     O_3   0.050670 0.442340 0.442260 -0.469854
O25   O     O_3   0.504750 0.639360 0.411530 -0.459014
O26   O     O_3   0.151352 0.269334 0.382324 -0.633800
O27   O     O_3   0.618400 0.630290 0.524520 -0.486789
O28   O     O_3   0.090070 0.694820 0.435810 -0.461782
P1    P     P_3+3 0.072810 0.589830 0.610360 0.987023
P2    P     P_3+3 0.661990 0.251250 0.462170 1.002213
P3    P     P_3+3 0.141521 0.165523 0.562657 0.948406
P4    P     P_3+3 0.116900 0.410080 0.389630 0.974534
P5    P     P_3+3 0.044837 0.833931 0.433790 0.979868
P6    P     P_3+3 0.672798 0.385665 0.653312 0.930277
P7    P     P_3+3 0.531975 0.764657 0.539558 0.923686
P8    P     P_3+3 0.522436 0.622822 0.346625 0.979799

loop_
_geom_bond_atom_site_label_1
_geom_bond_atom_site_label_2
_ccdc_geom_bond_type
C52   N3    S    
C19   C24   A    
Ba1   P1    S    
O16   P6    D    
C1    H2    S    
C6    P4    S    
C58   O12   S    
C10   C67   A    
C40   H34   S    
O27   P7    S    
C3    H33   S    
C28   N6    S    
C33   N2    S    
H70   N6    S    
C24   C25   A    
O1    P1    D    
C23   H8    S    
C63   H58   S    
O3    P5    S    
C17   C19   A    
C16   H43   S    
C32   C33   S    
C35   C38   A    
C2    N1    Am   
C36   C37   A    
C58   H72   S    
O8    P8    D    
O26   P4    S    
C27   N2    Am   
O7    P7    S    
C57   H67   S    
O5    P2    S    
C54   C55   A    
Ba1   O5    S    
Ba1   Ba2   S    
C8    N1    S    
C11   H29   S    
C31   P1    S    
C22   C27   A    
C11   C38   A    
C17   C35   A    
C38   H32   S    
H47   N3    S    
C9    C13   A    
C25   C42   A    
C46   C49   A    
C29   C30   S    
C34   H13   S    
C6    C7    D    
C60   H48   S    
C46   N5    S    
C44   C53   A    
C67   O10   D    
C21   C22   A    
O17   P1    S    
C7    C8    S    
C28   O26   S    
Ba2   O24   S    
C37   C43   A    
C46   C48   A    
C6    C14   D    
C64   H65   S    
C44   H42   S    
C56   H18   S    
H61   N4    S    
C12   H1    S    
O24   P4    S    
C40   H12   S    
C15   C31   D    
O12   P2    S    
C65   H22   S    
C61   H52   S    
O9    P8    S    
C26   O14   D    
C52   C57   S    
C51   C53   A    
Ba2   O5    S    
C4    C16   S    
Ba1   O27   S    
C20   H31   S    
C65   C66   S    
C45   H17   S    
C29   C61   S    
C30   P6    S    
C17   C20   A    
C13   C39   A    
O15   P6    S    
C34   H11   S    
C3    C5    S    
C18   C37   A    
C59   H4    S    
C67   N1    Am   
C62   H55   S    
C23   H9    S    
Ba1   O24   S    
C65   H21   S    
C66   H25   S    
C49   C50   A    
C65   O9    S    
C9    C36   A    
C15   N4    S    
C41   C42   A    
C63   H59   S    
C35   C36   A    
Ba2   O28   S    
C21   H30   S    
C16   H15   S    
C55   H41   S    
C45   O3    S    
C41   H36   S    
H69   N6    S    
O6    P7    D    
C32   C62   S    
C31   C32   D    
C4    H37   S    
C26   N2    Am   
C66   H27   S    
C18   C19   A    
C12   O18   S    
C1    H7    S    
C60   H50   S    
C27   O11   D    
C1    C12   S    
C58   H71   S    
C59   H3    S    
C5    C14   S    
Ba2   O23   S    
Ba1   O15   S    
C47   C48   A    
Ba2   O6    S    
O19   P2    D    
C43   C63   S    
C29   C33   D    
C57   H56   S    
Ba2   P4    S    
C45   H16   S    
O22   P3    S    
C61   H53   S    
C50   C51   A    
C47   H40   S    
C54   P5    S    
C42   H38   S    
Ba2   O4    S    
H46   N3    S    
C57   C60   S    
C7    H28   S    
O4    P1    S    
C48   P3    S    
C23   O7    S    
C28   C40   S    
C22   C24   A    
C34   H10   S    
C56   H19   S    
C63   H60   S    
C9    C10   A    
O28   P5    S    
C4    O22   S    
C59   H5    S    
C16   C64   S    
C62   H54   S    
C62   H57   S    
C66   H24   S    
C39   H35   S    
C5    P8    S    
O23   P4    D    
H63   N5    S    
C12   H6    S    
C2    C13   A    
O18   P6    S    
C3    C8    D    
C39   C43   A    
Ba2   O27   S    
C45   C56   S    
C1    H14   S    
C61   H51   S    
O25   P8    S    
C2    O13   D    
C64   H68   S    
Ba1   O19   S    
C47   C51   A    
C52   H45   S    
C53   P7    S    
Ba1   O4    S    
C40   H23   S    
O2    P5    D    
C56   H20   S    
C18   C41   A    
C60   H49   S    
C50   C55   A    
C14   H39   S    
C23   C34   S    
C64   H66   S    
O20   P3    S    
C10   C11   A    
C4    H26   S    
C44   C54   A    
C25   C26   A    
C15   C30   S    
Ba1   O20   S    
C20   C21   A    
C58   C59   S    
Ba1   O1    S    
H64   N5    S    
C52   O17   S    
C49   P2    S    
Ba1   P2    S    
O21   P3    D    
Ba2   O25   S    
H62   N4    S    
C28   H44   S    
