data_mof_unit_19860.cif
_audit_creation_date              2012-12-11T15:52:19-0500
_audit_creation_method            fapswitch 2.2
_symmetry_space_group_name_H-M    P1
_symmetry_Int_Tables_number       1
_space_group_crystal_system       triclinic
_cell_length_a                    11.127155
_cell_length_b                    11.289654
_cell_length_c                    18.824318
_cell_angle_alpha                 90.053395
_cell_angle_beta                  89.993048
_cell_angle_gamma                 118.999973
_cell_volume                      2068.2506678

loop_
_atom_site_label
_atom_site_type_symbol
_atom_type_description
_atom_site_fract_x
_atom_site_fract_y
_atom_site_fract_z
_atom_type_partial_charge
C1    C     C_R   0.543923 0.421172 0.140447 0.550932
C2    C     C_3   0.963388 0.709518 0.459164 -0.267696
C3    C     C_3   0.748093 0.035530 0.460137 -0.269082
C4    C     C_3   0.295735 0.254329 0.461037 -0.269120
C5    C     C_R   0.518041 0.456052 0.352959 0.555028
C6    C     C_R   0.543103 0.061430 0.353028 0.552027
C7    C     C_R   0.938114 0.480772 0.353057 0.548425
C8    C     C_R   0.452020 0.523542 0.644151 0.546452
C9    C     C_R   0.071325 0.548510 0.644109 0.557590
C10   C     C_R   0.476756 0.929564 0.644036 0.552547
C11   C     C_R   0.512232 0.996849 0.924311 -0.001572
C12   C     C_R   0.548597 0.067267 0.146625 0.558356
C13   C     C_R   0.082107 0.556849 0.934457 -0.036993
C14   C     C_R   0.500445 0.479189 0.916864 0.019663
C15   C     C_R   0.993172 0.512374 0.075793 0.004222
C16   C     C_R   0.533135 0.023171 0.073431 0.009025
C17   C     C_R   0.531489 0.433130 0.063027 -0.012593
C18   C     C_R   0.407597 0.996158 0.965234 -0.018010
C19   C     C_R   0.110063 0.471798 0.977553 -0.034098
C20   C     C_R   0.585943 0.576406 0.962934 -0.019963
C21   C     C_R   0.057665 0.445937 0.046809 0.001817
C22   C     C_R   0.418690 0.004507 0.038575 -0.032177
C23   C     C_R   0.933085 0.479888 0.146658 0.545674
C24   C     C_R   0.616671 0.553598 0.029787 -0.027623
C25   C     C_R   0.639996 0.019780 0.034258 -0.072440
C26   C     C_R   0.969661 0.599769 0.031476 -0.065470
C27   C     C_R   0.438926 0.324985 0.017670 -0.068214
C28   C     C_R   0.986624 0.594935 0.959033 -0.045296
C29   C     C_R   0.633421 0.015313 0.960270 -0.067748
C30   C     C_R   0.438251 0.345876 0.943029 -0.045604
C31   C     C_3   0.263947 0.883857 0.970919 -0.123654
C32   C     C_3   0.043103 0.321456 0.966022 -0.128268
C33   C     C_3   0.639047 0.719862 0.968123 -0.153968
C34   C     C_R   0.457355 0.517333 0.851054 0.541102
C35   C     C_3   0.993489 0.299995 0.042456 -0.139004
C36   C     C_3   0.282216 0.887885 0.050674 -0.144125
C37   C     C_3   0.665709 0.699400 0.045547 -0.140240
C38   C     C_R   0.485102 0.959677 0.568674 0.017635
C39   C     C_R   0.040379 0.526189 0.568895 0.016250
C40   C     C_R   0.473567 0.514825 0.568732 0.017576
C41   C     C_R   0.009719 0.509247 0.420767 0.022970
C42   C     C_R   0.500959 0.990202 0.420484 0.023217
C43   C     C_R   0.487496 0.497879 0.420591 0.022757
C44   C     C_R   0.585604 0.948433 0.529789 0.036826
C45   C     C_R   0.121515 0.577118 0.859591 0.539599
C46   C     C_R   0.051947 0.635423 0.529498 0.036450
C47   C     C_R   0.364480 0.415099 0.530270 0.038358
C48   C     C_R   0.037599 0.628227 0.457242 0.034800
C49   C     C_R   0.593795 0.962721 0.457545 0.033551
C50   C     C_R   0.370244 0.406366 0.458055 0.033469
C51   C     C_R   0.383924 0.975746 0.456810 -0.164786
C52   C     C_R   0.023849 0.408422 0.457773 -0.163018
C53   C     C_R   0.586376 0.613831 0.456506 -0.163380
C54   C     C_R   0.038033 0.416334 0.532001 -0.161247
C55   C     C_R   0.376637 0.961748 0.531091 -0.162510
C56   C     C_R   0.480988 0.935988 0.853062 0.549010
C57   C     C_R   0.580038 0.621753 0.530762 -0.162524
C58   C     C_1   0.749896 0.006725 0.068915 0.213280
C59   C     C_1   0.974822 0.720084 0.060533 0.211639
C60   C     C_1   0.321731 0.210474 0.046630 0.237176
C61   C     C_1   0.867157 0.554021 0.914771 0.272311
C62   C     C_1   0.749078 0.019856 0.922854 0.244482
C63   C     C_1   0.374799 0.235099 0.893045 0.242499
C64   C     C_1   0.166205 0.928255 0.948368 0.272576
C65   C     C_1   0.931608 0.290541 0.914011 0.240029
C66   C     C_1   0.755943 0.766566 0.919180 0.275240
C67   C     C_3   0.737521 0.018823 0.539871 -0.275452
C68   C     C_1   0.061438 0.262977 0.097984 0.288620
C69   C     C_1   0.286018 0.769514 0.080025 0.180181
C70   C     C_1   0.586431 0.718522 0.102412 0.256441
C71   C     C_3   0.979923 0.716456 0.538892 -0.274977
C72   C     C_3   0.289594 0.265482 0.540724 -0.274423
Cr1   Cr    Cr6+3 0.769160 0.541570 0.250690 1.048300
Cr2   Cr    Cr6+3 0.458430 0.227590 0.250690 1.051737
Cr3   Cr    Cr6+3 0.772410 0.230840 0.250690 1.047240
Cr4   Cr    Cr6+3 0.541570 0.769160 0.749310 1.054699
Cr5   Cr    Cr6+3 0.227590 0.458430 0.749310 1.052396
Cr6   Cr    Cr6+3 0.230840 0.772410 0.749310 1.057252
H1    H     H_    0.253915 0.793540 0.944141 0.112962
H2    H     H_    0.042207 0.335132 0.560360 0.131336
H3    H     H_    0.289875 0.957853 0.559000 0.129577
H4    H     H_    0.660095 0.708080 0.558282 0.132212
H5    H     H_    0.775280 0.950319 0.559944 0.139679
H6    H     H_    0.048792 0.820410 0.558775 0.139728
H7    H     H_    0.183538 0.227885 0.561017 0.140777
H8    H     H_    0.854260 0.649972 0.443003 0.162815
H9    H     H_    0.793915 0.143169 0.444080 0.161501
H10   H     H_    0.361505 0.210263 0.444913 0.162752
H11   H     H_    0.776377 0.116324 0.569038 0.144708
H12   H     H_    0.115779 0.283943 0.951883 0.154778
H13   H     H_    0.880901 0.660192 0.567898 0.144542
H14   H     H_    0.351602 0.228106 0.569848 0.145170
H15   H     H_    0.022515 0.809634 0.432819 0.135313
H16   H     H_    0.792562 0.977132 0.434050 0.135562
H17   H     H_    0.193111 0.209288 0.435170 0.136209
H18   H     H_    0.559458 0.749860 0.957358 0.120420
H19   H     H_    0.881089 0.255061 0.049194 0.121638
H20   H     H_    0.224214 0.918303 0.085630 0.192892
H21   H     H_    0.772020 0.757152 0.057444 0.180076
H22   H     H_    0.304594 0.986487 0.429064 0.124574
H23   H     H_    0.013089 0.319378 0.430545 0.125694
H24   H     H_    0.673451 0.692181 0.428424 0.126922
N1    N     N_1   0.836108 0.995303 0.097084 -0.257688
N2    N     N_1   0.111044 0.238224 0.145661 -0.207594
N3    N     N_1   0.287316 0.676481 0.104430 -0.264047
N4    N     N_1   0.532581 0.735745 0.150705 -0.222377
N5    N     N_1   0.986128 0.817443 0.087165 -0.276643
N6    N     N_1   0.224394 0.120656 0.069726 -0.254172
N7    N     N_1   0.773724 0.515808 0.877018 -0.263048
N8    N     N_1   0.842078 0.027936 0.891303 -0.236391
N9    N     N_1   0.327623 0.150926 0.850385 -0.252357
N10   N     N_1   0.091098 0.966648 0.931880 -0.219568
N11   N     N_1   0.848620 0.276772 0.872522 -0.245465
N12   N     N_1   0.842602 0.795673 0.877733 -0.208045
O1    O     O_R   0.911480 0.572650 0.170990 -0.502858
O2    O     O_R   0.528970 0.640340 0.824320 -0.497869
O3    O     O_R   0.111370 0.471030 0.824320 -0.474178
O4    O     O_R   0.359660 0.888630 0.824320 -0.503692
O5    O     O_R   0.909980 0.572450 0.331530 -0.519861
O6    O     O_R   0.427550 0.337530 0.331530 -0.516125
O7    O     O_R   0.662470 0.090020 0.331530 -0.517790
O8    O     O_R   0.572450 0.909980 0.668470 -0.512383
O9    O     O_R   0.337530 0.427550 0.668470 -0.513314
O10   O     O_R   0.090020 0.662470 0.668470 -0.511089
O11   O     O_R   0.638950 0.528780 0.324500 -0.504832
O12   O     O_R   0.427350 0.338830 0.170990 -0.474090
O13   O     O_R   0.471220 0.110170 0.324500 -0.511830
O14   O     O_R   0.889830 0.361050 0.324500 -0.508050
O15   O     O_R   0.528780 0.638950 0.675500 -0.506211
O16   O     O_R   0.110170 0.471220 0.675500 -0.501021
O17   O     O_R   0.361050 0.889830 0.675500 -0.505721
O18   O     O_3   0.666667 0.333333 0.250560 -0.308015
O19   O     O_3   0.333333 0.666667 0.749440 -0.312225
O20   O     O_R   0.661170 0.088520 0.170990 -0.503588
O21   O     O_R   0.572650 0.911480 0.829010 -0.504359
O22   O     O_R   0.338830 0.427350 0.829010 -0.515734
O23   O     O_R   0.088520 0.661170 0.829010 -0.492823
O24   O     O_R   0.640340 0.528970 0.175680 -0.485347
O25   O     O_R   0.471030 0.111370 0.175680 -0.508841
O26   O     O_R   0.888630 0.359660 0.175680 -0.508748

loop_
_geom_bond_atom_site_label_1
_geom_bond_atom_site_label_2
_ccdc_geom_bond_type
C44   C49   A    
C40   C47   A    
C13   C45   S    
Cr6   O23   S    
C11   C18   A    
C67   H5    S    
Cr1   O5    S    
Cr2   O18   S    
C37   H21   S    
C61   N7    T    
C72   H7    S    
C3    C49   S    
Cr3   O20   S    
C9    O16   A    
C36   C69   S    
Cr6   O4    S    
C6    O13   A    
Cr5   O3    S    
Cr3   O26   S    
C31   C36   S    
C72   H14   S    
C64   N10   T    
C39   C54   A    
Cr1   O24   S    
C34   O2    A    
C9    C39   S    
C9    O10   A    
Cr3   O14   S    
C10   O17   A    
C43   C53   A    
C32   H12   S    
C38   C55   A    
C20   C24   A    
C13   C28   A    
Cr5   O22   S    
C7    O14   A    
C55   H3    S    
Cr6   O10   S    
C26   C59   S    
C41   C52   A    
C60   N6    T    
C42   C51   A    
C28   C61   S    
C15   C23   S    
C27   C60   S    
C5    C43   S    
Cr1   O18   S    
Cr3   O7    S    
C37   C70   S    
C27   C30   A    
Cr5   O19   S    
C14   C30   A    
C12   C16   S    
C19   C32   S    
C26   C28   A    
C18   C31   S    
Cr4   O21   S    
C52   C54   A    
C33   C66   S    
C47   C50   A    
C54   H2    S    
C25   C29   A    
C16   C25   A    
C46   C48   A    
C52   H23   S    
C17   C24   A    
C13   C19   A    
C5    O6    A    
C3    H9    S    
C17   C27   A    
C32   C35   S    
C14   C20   A    
C23   O26   A    
C1    O12   A    
C70   N4    T    
C69   N3    T    
C15   C26   A    
C2    C48   S    
C33   C37   S    
C4    C50   S    
Cr6   O17   S    
C38   C44   A    
Cr5   O9    S    
C7    O5    A    
C4    H17   S    
Cr4   O15   S    
Cr2   O13   S    
C62   N8    T    
C34   O22   A    
C53   H24   S    
C45   O23   A    
C24   C37   S    
C12   O25   A    
C8    O9    A    
C46   C71   S    
C39   C46   A    
C21   C35   S    
C20   C33   S    
C25   C58   S    
C2    C71   S    
C33   H18   S    
C4    C72   S    
C56   O21   A    
Cr2   O6    S    
Cr3   O18   S    
C71   H6    S    
C45   O3    A    
C51   H22   S    
C29   C62   S    
C16   C22   A    
C40   C57   A    
C66   N12   T    
C19   C21   A    
C18   C22   A    
C65   N11   T    
C31   C64   S    
C2    H15   S    
C3    C67   S    
C68   N2    T    
C10   O8    A    
C53   C57   A    
C14   C34   S    
C36   H20   S    
Cr4   O19   S    
C43   C50   A    
C31   H1    S    
C4    H10   S    
C22   C36   S    
Cr2   O25   S    
C1    C17   S    
Cr1   O1    S    
C10   C38   S    
Cr4   O8    S    
C35   H19   S    
C56   O4    A    
Cr2   O12   S    
C35   C68   S    
Cr1   O11   S    
Cr4   O2    S    
C41   C48   A    
C2    H8    S    
C3    H16   S    
C51   C55   A    
Cr5   O16   S    
C7    C41   S    
C63   N9    T    
Cr6   O19   S    
C59   N5    T    
C47   C72   S    
C1    O24   A    
C42   C49   A    
C23   O1    A    
C15   C21   A    
C71   H13   S    
C11   C29   A    
C6    C42   S    
C5    O11   A    
C8    O15   A    
C67   H11   S    
C57   H4    S    
C44   C67   S    
C12   O20   A    
C58   N1    T    
C8    C40   S    
C6    O7    A    
C30   C63   S    
C11   C56   S    
C32   C65   S    
