data_mof_unit_50547.cif
_audit_creation_date              2012-12-10T17:43:19-0500
_audit_creation_method            fapswitch 2.2
_symmetry_space_group_name_H-M    P1
_symmetry_Int_Tables_number       1
_space_group_crystal_system       triclinic
_cell_length_a                    15.083045
_cell_length_b                    13.70506
_cell_length_c                    10.631491
_cell_angle_alpha                 89.763752
_cell_angle_beta                  89.965264
_cell_angle_gamma                 90.001339
_cell_volume                      2197.65933417

loop_
_atom_site_label
_atom_site_type_symbol
_atom_type_description
_atom_site_fract_x
_atom_site_fract_y
_atom_site_fract_z
_atom_type_partial_charge
C1    C     C_R   0.328484 0.499998 0.500339 0.818959
C2    C     C_R   0.671516 0.500002 0.499661 0.818959
C3    C     C_R   0.953526 0.500002 0.499735 0.063826
C4    C     C_R   0.046474 0.499998 0.500265 0.063826
C5    C     C_R   0.907104 0.589383 0.500000 0.098544
C6    C     C_R   0.092896 0.410617 0.500000 0.098544
C7    C     C_R   0.953778 0.322187 0.498657 -0.173887
C8    C     C_R   0.046222 0.677813 0.501343 -0.173887
C9    C     C_R   0.046215 0.322184 0.499237 -0.173919
C10   C     C_R   0.953785 0.677816 0.500763 -0.173919
C11   C     C_R   0.443277 0.792688 0.576959 0.076614
C12   C     C_R   0.556723 0.207312 0.423041 0.076614
C13   C     C_R   0.556689 0.793176 0.422988 0.069380
C14   C     C_R   0.443311 0.206824 0.577011 0.069380
C15   C     C_R   0.558617 0.896488 0.420537 -0.086718
C16   C     C_R   0.441382 0.103512 0.579463 -0.086718
C17   C     C_R   0.441360 0.895981 0.579426 -0.087244
C18   C     C_R   0.558640 0.104019 0.420574 -0.087244
C19   C     C_R   0.499996 0.948189 0.499992 0.004911
C20   C     C_R   0.500004 0.051811 0.500008 0.004911
C21   C     C_R   0.617280 0.948894 0.341229 0.228174
C22   C     C_R   0.382719 0.051106 0.658771 0.228174
C23   C     C_R   0.382702 0.947875 0.658743 0.229070
C24   C     C_R   0.617298 0.052125 0.341257 0.229070
C25   C     C_R   0.500026 0.500240 0.259087 0.801302
C26   C     C_R   0.499974 0.499760 0.740913 0.801302
C27   C     C_3   0.501127 0.592895 0.039938 -0.108420
C28   C     C_3   0.498873 0.407105 0.960062 -0.108420
C29   C     C_3   0.573393 0.544962 0.957618 -0.157381
C30   C     C_3   0.426607 0.455038 0.042382 -0.157381
C31   C     C_3   0.427704 0.547090 0.957757 -0.161195
C32   C     C_3   0.572296 0.452910 0.042242 -0.161195
C33   C     C_3   0.499973 0.499245 0.877720 -0.007486
C34   C     C_3   0.500026 0.500755 0.122279 -0.007486
C35   C     C_R   0.814736 0.588768 0.499671 -0.216507
C36   C     C_R   0.185264 0.411232 0.500329 -0.216507
C37   C     C_R   0.768368 0.500005 0.499252 -0.083544
C38   C     C_R   0.231632 0.499995 0.500748 -0.083544
C39   C     C_R   0.814732 0.411243 0.498626 -0.216663
C40   C     C_R   0.185268 0.588757 0.501374 -0.216663
C41   C     C_R   0.907101 0.410624 0.498945 0.098585
C42   C     C_R   0.092899 0.589376 0.501055 0.098585
Cu1   Cu    Cu3+1 0.500000 0.597420 0.500000 0.958093
Cu2   Cu    Cu3+1 0.500000 0.402580 0.500000 0.958093
H1    H     H_    0.368616 0.585568 0.919940 0.159479
H2    H     H_    0.631383 0.414432 0.080060 0.159479
H3    H     H_    0.502106 0.669013 0.075276 0.170703
H4    H     H_    0.497894 0.330987 0.924724 0.170703
H5    H     H_    0.633408 0.581669 0.919737 0.154663
H6    H     H_    0.366592 0.418331 0.080263 0.154663
H7    H     H_    0.779089 0.657485 0.499922 0.170929
H8    H     H_    0.220910 0.342515 0.500078 0.170929
H9    H     H_    0.779083 0.342528 0.498039 0.170837
H10   H     H_    0.220917 0.657472 0.501961 0.170837
H11   H     H_    0.918800 0.253117 0.498033 0.169982
H12   H     H_    0.081200 0.746883 0.501967 0.169982
H13   H     H_    0.081190 0.253111 0.499041 0.169815
H14   H     H_    0.918810 0.746889 0.500959 0.169815
H15   H     H_    0.399801 0.749908 0.636068 0.168794
H16   H     H_    0.600199 0.250092 0.363932 0.168794
H17   H     H_    0.600128 0.750766 0.363836 0.169313
H18   H     H_    0.399872 0.249233 0.636163 0.169313
N1    N     N_R   0.500000 0.743810 0.500000 -0.206738
N2    N     N_R   0.500000 0.256190 0.500000 -0.206738
O1    O     O_R   0.370260 0.582280 0.500030 -0.590314
O2    O     O_R   0.629740 0.417720 0.499970 -0.590314
O3    O     O_R   0.629740 0.582280 0.499970 -0.589785
O4    O     O_R   0.370260 0.417720 0.500030 -0.589785
O5    O     O_R   0.499980 0.582260 0.316850 -0.587478
O6    O     O_R   0.500020 0.417740 0.683150 -0.587478
O7    O     O_R   0.500020 0.582260 0.683150 -0.581348
O8    O     O_R   0.499980 0.417740 0.316850 -0.581348
Br1   Br    Br    0.698372 0.880405 0.231758 -0.460896
Br2   Br    Br    0.301627 0.119595 0.768242 -0.460896
Br3   Br    Br    0.301568 0.878677 0.768157 -0.462451
Br4   Br    Br    0.698431 0.121323 0.231843 -0.462451

loop_
_geom_bond_atom_site_label_1
_geom_bond_atom_site_label_2
_ccdc_geom_bond_type
C21   Br1   S    
C27   C29   S    
Cu2   O2    S    
C19   C20   A    
C7    H11   S    
C8    H12   S    
C6    C9    A    
Cu1   N1    S    
C39   C41   A    
C29   H5    S    
Cu2   N2    S    
C15   C19   A    
C17   C23   A    
C18   C24   A    
C10   H14   S    
C8    C42   A    
C29   C32   S    
C11   N1    A    
C30   C31   S    
C12   N2    A    
C14   H18   S    
C29   C33   S    
C1    O4    A    
C11   C17   A    
C1    O1    A    
C31   C33   S    
Cu2   O6    S    
C9    H13   S    
C36   H8    S    
Cu1   O1    S    
C25   C34   S    
C40   C42   A    
C30   H6    S    
Cu1   O5    S    
C26   O7    A    
C28   H4    S    
C11   H15   S    
C27   C34   S    
C30   C34   S    
C27   C31   S    
C28   C32   S    
C4    C6    A    
C2    O3    A    
C24   Br4   S    
C2    O2    A    
C16   C22   A    
C32   C34   S    
Cu1   Cu2   S    
C26   C33   S    
C13   N1    A    
C16   C20   A    
C14   N2    A    
C25   O8    A    
C1    C38   S    
Cu1   O3    S    
C28   C33   S    
C40   H10   S    
C13   C15   A    
C35   H7    S    
C26   O6    A    
C14   C16   A    
Cu2   O4    S    
C25   O5    A    
C22   Br2   S    
C3    C4    A    
C27   H3    S    
C7    C9    A    
C3    C41   A    
Cu1   O7    S    
C35   C37   A    
C32   H2    S    
C23   Br3   S    
C3    C5    A    
C28   C30   S    
C5    C10   A    
C37   C39   A    
C38   C40   A    
C2    C37   S    
C39   H9    S    
C4    C42   A    
C5    C35   A    
C36   C38   A    
C17   C19   A    
C6    C36   A    
Cu2   O8    S    
C18   C20   A    
C7    C41   A    
C12   H16   S    
C15   C21   A    
C13   H17   S    
C8    C10   A    
C31   H1    S    
C21   C24   A    
C12   C18   A    
C22   C23   A    
