data_mof_unit_12757.cif
_audit_creation_date              2012-12-11T14:38:16-0500
_audit_creation_method            fapswitch 2.2
_symmetry_space_group_name_H-M    P1
_symmetry_Int_Tables_number       1
_space_group_crystal_system       triclinic
_cell_length_a                    19.528434
_cell_length_b                    11.174992
_cell_length_c                    19.686931
_cell_angle_alpha                 90.039002
_cell_angle_beta                  96.618218
_cell_angle_gamma                 90.007191
_cell_volume                      4267.65003151

loop_
_atom_site_label
_atom_site_type_symbol
_atom_type_description
_atom_site_fract_x
_atom_site_fract_y
_atom_site_fract_z
_atom_type_partial_charge
C1    C     C_R   0.706987 0.997605 0.366244 0.546227
C2    C     C_3   0.164343 0.524420 0.482175 -0.273633
C3    C     C_3   0.911970 0.984507 0.427242 -0.310039
C4    C     C_3   0.581830 0.563998 0.399341 -0.294454
C5    C     C_3   0.417362 0.548190 0.611957 -0.280725
C6    C     C_3   0.081830 0.063998 0.399341 -0.294454
C7    C     C_3   0.917362 0.048190 0.611957 -0.280725
C8    C     C_3   0.336424 0.024432 0.517844 -0.280685
C9    C     C_3   0.664343 0.024420 0.482175 -0.273633
C10   C     C_3   0.788763 0.332324 0.550581 -0.236149
C11   C     C_3   0.211866 0.331998 0.449646 -0.235511
C12   C     C_3   0.288763 0.832324 0.550581 -0.236149
C13   C     C_3   0.711866 0.831998 0.449646 -0.235511
C14   C     C_3   0.780023 0.467008 0.560028 0.029592
C15   C     C_3   0.220529 0.466637 0.439922 0.013720
C16   C     C_3   0.280023 0.967008 0.560028 0.029592
C17   C     C_R   0.293139 0.997820 0.633798 0.566206
C18   C     C_3   0.720529 0.966638 0.439922 0.013720
C19   C     C_3   0.755675 0.415751 0.429482 0.069233
C20   C     C_3   0.244939 0.415509 0.570407 0.071031
C21   C     C_3   0.255675 0.915751 0.429482 0.069233
C22   C     C_3   0.744939 0.915509 0.570407 0.071031
C23   C     C_3   0.824409 0.486619 0.440991 -0.085685
C24   C     C_3   0.176428 0.486759 0.558953 -0.092784
C25   C     C_3   0.324409 0.986619 0.440991 -0.085685
C26   C     C_3   0.676428 0.986759 0.558953 -0.092784
C27   C     C_3   0.770871 0.304411 0.475776 -0.273673
C28   C     C_R   0.206987 0.497605 0.366244 0.546227
C29   C     C_3   0.230402 0.304103 0.524193 -0.255629
C30   C     C_3   0.270871 0.804411 0.475776 -0.273673
C31   C     C_3   0.730402 0.804103 0.524193 -0.255629
C32   C     C_3   0.428062 0.236898 0.969266 -0.221116
C33   C     C_3   0.444901 0.235384 0.047155 -0.246856
C34   C     C_3   0.055117 0.735421 0.952891 -0.246874
C35   C     C_3   0.071967 0.736836 0.030781 -0.221112
C36   C     C_3   0.491010 0.041190 0.960853 -0.234952
C37   C     C_3   0.571967 0.236834 0.030781 -0.221111
C38   C     C_3   0.928062 0.736896 0.969266 -0.221116
C39   C     C_R   0.793138 0.497820 0.633798 0.566206
C40   C     C_3   0.008957 0.541154 0.039036 -0.234984
C41   C     C_3   0.555117 0.235419 0.952891 -0.246874
C42   C     C_3   0.508956 0.041154 0.039036 -0.234984
C43   C     C_3   0.991011 0.541190 0.960853 -0.234953
C44   C     C_3   0.944901 0.735382 0.047155 -0.246856
C45   C     C_R   0.536688 0.180574 0.338860 0.552303
C46   C     C_R   0.463515 0.180518 0.661272 0.552033
C47   C     C_R   0.036688 0.680574 0.338860 0.552303
C48   C     C_R   0.963515 0.680518 0.661272 0.552033
C49   C     C_3   0.485454 0.172170 0.933967 0.051047
C50   C     C_3   0.696729 0.496185 0.452952 0.037423
C51   C     C_3   0.514548 0.172102 0.066028 0.051057
C52   C     C_3   0.985455 0.672170 0.933967 0.051047
C53   C     C_3   0.014548 0.672102 0.066028 0.051057
C54   C     C_1   0.762262 0.428056 0.904620 -0.011770
C55   C     C_1   0.237716 0.427968 0.095377 -0.011594
C56   C     C_1   0.262262 0.928056 0.904620 -0.011771
C57   C     C_1   0.737716 0.927968 0.095377 -0.011594
C58   C     C_1   0.748077 0.406322 0.034588 -0.052588
C59   C     C_1   0.251937 0.406378 0.965417 -0.052693
C60   C     C_1   0.248077 0.906322 0.034588 -0.052588
C61   C     C_3   0.304414 0.494813 0.547118 0.066271
C62   C     C_1   0.751937 0.906378 0.965417 -0.052693
C63   C     C_1   0.754150 0.416463 0.964042 -0.051357
C64   C     C_1   0.245841 0.416424 0.035955 -0.051200
C65   C     C_1   0.254150 0.916463 0.964042 -0.051357
C66   C     C_1   0.745842 0.916424 0.035955 -0.051200
C67   C     C_1   0.743405 0.391645 0.094539 -0.011284
C68   C     C_1   0.256615 0.391753 0.905461 -0.011240
C69   C     C_1   0.243405 0.891646 0.094539 -0.011284
C70   C     C_1   0.756615 0.891753 0.905461 -0.011240
C71   C     C_R   0.740895 0.366508 0.359477 0.592760
C72   C     C_3   0.196729 0.996185 0.452952 0.037423
C73   C     C_R   0.259236 0.366361 0.640450 0.587291
C74   C     C_R   0.240895 0.866508 0.359477 0.592760
C75   C     C_R   0.759236 0.866361 0.640450 0.587292
C76   C     C_R   0.722136 0.954553 0.163161 0.560187
C77   C     C_R   0.277863 0.954608 0.836844 0.563172
C78   C     C_R   0.222136 0.454553 0.163161 0.560187
C79   C     C_R   0.777864 0.454608 0.836844 0.563172
C80   C     C_R   0.534530 0.179089 0.140015 0.546617
C81   C     C_R   0.465464 0.179137 0.859986 0.547588
C82   C     C_R   0.034530 0.679089 0.140014 0.546617
C83   C     C_3   0.804414 0.994812 0.547118 0.066271
C84   C     C_R   0.965464 0.679137 0.859985 0.547588
C85   C     C_R   0.735955 0.357742 0.163521 0.558822
C86   C     C_R   0.264039 0.357830 0.836466 0.559332
C87   C     C_R   0.235955 0.857742 0.163521 0.558822
C88   C     C_R   0.764039 0.857830 0.836466 0.559333
C89   C     C_1   0.484997 0.173766 0.594210 -0.006524
C90   C     C_1   0.515677 0.173898 0.406115 -0.006964
C91   C     C_1   0.984997 0.673766 0.594210 -0.006523
C92   C     C_1   0.015677 0.673898 0.406115 -0.006963
C93   C     C_1   0.505151 0.171532 0.465222 -0.040325
C94   C     C_3   0.836424 0.524432 0.517844 -0.280685
C95   C     C_1   0.495782 0.171486 0.535179 -0.038550
C96   C     C_1   0.005151 0.671532 0.465222 -0.040325
C97   C     C_1   0.995782 0.671486 0.535179 -0.038550
C98   C     C_3   0.703573 0.497913 0.531402 0.049066
C99   C     C_3   0.296816 0.499629 0.468504 0.049439
C100  C     C_3   0.203572 0.997913 0.531402 0.049066
C101  C     C_3   0.796816 0.999629 0.468504 0.049439
C102  C     C_3   0.592531 0.468085 0.581347 -0.279697
C103  C     C_3   0.411970 0.484507 0.427242 -0.310038
C104  C     C_3   0.092531 0.968085 0.581347 -0.279696
Cr1   Cr    Cr6+3 0.765780 0.160710 0.267420 1.014383
Cr2   Cr    Cr6+3 0.383970 0.323720 0.751490 1.014485
Cr3   Cr    Cr6+3 0.116030 0.823720 0.248510 1.025019
Cr4   Cr    Cr6+3 0.883970 0.823720 0.751490 1.014485
Cr5   Cr    Cr6+3 0.234220 0.160710 0.732580 1.019664
Cr6   Cr    Cr6+3 0.265780 0.660710 0.267420 1.014383
Cr7   Cr    Cr6+3 0.734220 0.660710 0.732580 1.019664
Cr8   Cr    Cr6+3 0.612200 0.009560 0.248850 1.019023
Cr9   Cr    Cr6+3 0.387800 0.009560 0.751150 1.018580
Cr10  Cr    Cr6+3 0.112200 0.509560 0.248850 1.019023
Cr11  Cr    Cr6+3 0.887800 0.509560 0.751150 1.018580
Cr12  Cr    Cr6+3 0.616030 0.323720 0.248510 1.025020
H1    H     H_    0.692774 0.587172 0.547597 0.130451
H2    H     H_    0.112887 0.489781 0.460770 0.130612
H3    H     H_    0.387744 0.989377 0.539315 0.128505
H4    H     H_    0.612887 0.989781 0.460770 0.130612
H5    H     H_    0.868155 0.427645 0.430981 0.157479
H6    H     H_    0.132720 0.427651 0.568901 0.156937
H7    H     H_    0.368154 0.927645 0.430981 0.157479
H8    H     H_    0.632720 0.927651 0.568901 0.156937
H9    H     H_    0.377377 0.192483 0.954906 0.117399
H10   H     H_    0.446835 0.328984 0.066702 0.143100
H11   H     H_    0.053200 0.829040 0.933448 0.142993
H12   H     H_    0.305190 0.589981 0.453159 0.131424
H13   H     H_    0.122633 0.692379 0.045083 0.117374
H14   H     H_    0.422573 0.331743 0.952208 0.149344
H15   H     H_    0.403458 0.187850 0.070736 0.123989
H16   H     H_    0.096539 0.687907 0.929246 0.124259
H17   H     H_    0.077507 0.831665 0.047937 0.149412
H18   H     H_    0.441221 0.993319 0.947745 0.148275
H19   H     H_    0.577508 0.331663 0.047937 0.149412
H20   H     H_    0.922572 0.831741 0.952208 0.149344
H21   H     H_    0.058731 0.493273 0.052104 0.148312
H22   H     H_    0.468614 0.991824 0.063279 0.131262
H23   H     H_    0.192774 0.087172 0.547597 0.130450
H24   H     H_    0.553201 0.329037 0.933447 0.142993
H25   H     H_    0.946835 0.828983 0.066702 0.143100
H26   H     H_    0.031335 0.491859 0.936563 0.131163
H27   H     H_    0.596538 0.187903 0.929246 0.124259
H28   H     H_    0.558729 0.993272 0.052104 0.148313
H29   H     H_    0.941223 0.493317 0.947744 0.148276
H30   H     H_    0.903458 0.687848 0.070737 0.123989
H31   H     H_    0.622633 0.192376 0.045083 0.117374
H32   H     H_    0.531333 0.991857 0.936563 0.131163
H33   H     H_    0.968616 0.491823 0.063278 0.131262
H34   H     H_    0.805190 0.089981 0.453159 0.131424
H35   H     H_    0.877377 0.692479 0.954906 0.117399
H36   H     H_    0.707865 0.588054 0.436397 0.137304
H37   H     H_    0.295371 0.586754 0.565318 0.127066
H38   H     H_    0.207865 0.088054 0.436397 0.137304
H39   H     H_    0.795371 0.086754 0.565318 0.127066
H40   H     H_    0.344066 0.120572 0.523170 0.123120
H41   H     H_    0.657090 0.120691 0.476957 0.107822
H42   H     H_    0.844066 0.620572 0.523170 0.123120
H43   H     H_    0.157090 0.620691 0.476957 0.107822
H44   H     H_    0.842852 0.303566 0.567215 0.126875
H45   H     H_    0.818603 0.263632 0.461263 0.122770
H46   H     H_    0.157497 0.304135 0.433703 0.127318
H47   H     H_    0.342852 0.803566 0.567215 0.126875
H48   H     H_    0.657497 0.804135 0.433703 0.127318
H49   H     H_    0.756714 0.280741 0.582297 0.192012
H50   H     H_    0.242792 0.278456 0.417942 0.170430
H51   H     H_    0.256714 0.780741 0.582297 0.192012
H52   H     H_    0.742792 0.778456 0.417942 0.170430
H53   H     H_    0.728075 0.243116 0.467680 0.105119
H54   H     H_    0.273997 0.244500 0.531719 0.122154
H55   H     H_    0.228075 0.743116 0.467680 0.105119
H56   H     H_    0.183315 0.261775 0.538955 0.114313
H57   H     H_    0.773997 0.744500 0.531719 0.122154
H58   H     H_    0.648188 0.333629 0.538449 0.266734
H59   H     H_    0.569924 0.402906 0.614941 0.174919
H60   H     H_    0.554248 0.485907 0.536480 0.127257
H61   H     H_    0.603737 0.551867 0.610916 0.154594
H62   H     H_    0.330721 0.376730 0.396839 0.300824
H63   H     H_    0.450670 0.415675 0.417782 0.164547
H64   H     H_    0.433216 0.538981 0.471553 0.145083
H65   H     H_    0.402848 0.543599 0.381730 0.149747
H66   H     H_    0.148188 0.833629 0.538449 0.266734
H67   H     H_    0.318603 0.763632 0.461263 0.122769
H68   H     H_    0.069923 0.902906 0.614941 0.174918
H69   H     H_    0.054248 0.985907 0.536480 0.127256
H70   H     H_    0.103737 0.051868 0.610916 0.154593
H71   H     H_    0.830721 0.876730 0.396839 0.300824
H72   H     H_    0.950671 0.915675 0.417782 0.164547
H73   H     H_    0.933215 0.038982 0.471553 0.145083
H74   H     H_    0.902849 0.043599 0.381730 0.149747
H75   H     H_    0.604545 0.387276 0.435576 0.266381
H76   H     H_    0.535356 0.528289 0.368375 0.148435
H77   H     H_    0.607845 0.624739 0.365760 0.159829
H78   H     H_    0.683315 0.761775 0.538955 0.114313
H79   H     H_    0.566538 0.615253 0.443469 0.112097
H80   H     H_    0.395371 0.381305 0.559318 0.290234
H81   H     H_    0.465695 0.506265 0.635496 0.147389
H82   H     H_    0.390838 0.587933 0.653569 0.168401
H83   H     H_    0.429925 0.620474 0.576860 0.102563
H84   H     H_    0.104545 0.887276 0.435576 0.266381
H85   H     H_    0.035356 0.028288 0.368375 0.148435
H86   H     H_    0.107845 0.124739 0.365760 0.159829
H87   H     H_    0.066538 0.115253 0.443469 0.112097
H88   H     H_    0.895371 0.881305 0.559318 0.290234
H89   H     H_    0.887744 0.489377 0.539315 0.128505
H90   H     H_    0.965695 0.006265 0.635497 0.147389
H91   H     H_    0.890838 0.087934 0.653569 0.168401
H92   H     H_    0.929926 0.120474 0.576860 0.102563
I1    I     I_    0.334945 0.122295 0.366050 -0.483747
I2    I     I_    0.666462 0.123181 0.634059 -0.476206
I3    I     I_    0.834945 0.622294 0.366050 -0.483747
I4    I     I_    0.166462 0.623181 0.634059 -0.476206
N1    N     N_2   0.654755 0.417524 0.559821 -0.475241
N2    N     N_2   0.348443 0.425590 0.439396 -0.491343
N3    N     N_2   0.154755 0.917524 0.559821 -0.475240
N4    N     N_2   0.848443 0.925590 0.439396 -0.491344
N5    N     N_2   0.627052 0.466211 0.422911 -0.479608
N6    N     N_2   0.373632 0.458881 0.575360 -0.474757
N7    N     N_2   0.127052 0.966211 0.422911 -0.479607
N8    N     N_2   0.873632 0.958881 0.575360 -0.474757
O1    O     O_R   0.783100 0.287550 0.345460 -0.546774
O2    O     O_R   0.454350 0.284910 0.836260 -0.522532
O3    O     O_R   0.045650 0.784910 0.163740 -0.522370
O4    O     O_R   0.954350 0.784910 0.836260 -0.522532
O5    O     O_R   0.677950 0.374280 0.185410 -0.497014
O6    O     O_R   0.322050 0.374280 0.814590 -0.497707
O7    O     O_R   0.177950 0.874280 0.185410 -0.497014
O8    O     O_R   0.822050 0.874280 0.814590 -0.497707
O9    O     O_3   0.664670 0.164660 0.254930 -0.286382
O10   O     O_3   0.335330 0.164660 0.745070 -0.289050
O11   O     O_3   0.164670 0.664660 0.254930 -0.286382
O12   O     O_R   0.216900 0.287550 0.654540 -0.550580
O13   O     O_3   0.835330 0.664660 0.745070 -0.289050
O14   O     O_R   0.760020 0.037400 0.337700 -0.507034
O15   O     O_R   0.239980 0.037400 0.662300 -0.480008
O16   O     O_R   0.260020 0.537400 0.337700 -0.507034
O17   O     O_R   0.739980 0.537400 0.662300 -0.480008
O18   O     O_R   0.666600 0.921990 0.332020 -0.515691
O19   O     O_R   0.333400 0.921990 0.667980 -0.514908
O20   O     O_R   0.166600 0.421990 0.332020 -0.515691
O21   O     O_R   0.833400 0.421990 0.667980 -0.514908
O22   O     O_R   0.557260 0.082670 0.312540 -0.505909
O23   O     O_R   0.283100 0.787550 0.345460 -0.546774
O24   O     O_R   0.442740 0.082670 0.687460 -0.507566
O25   O     O_R   0.057260 0.582670 0.312540 -0.505909
O26   O     O_R   0.942740 0.582670 0.687460 -0.507566
O27   O     O_R   0.548410 0.285740 0.316480 -0.512683
O28   O     O_R   0.451590 0.285740 0.683520 -0.517465
O29   O     O_R   0.048410 0.785740 0.316480 -0.512683
O30   O     O_R   0.951590 0.785740 0.683520 -0.517465
O31   O     O_R   0.680500 0.375040 0.327000 -0.461480
O32   O     O_R   0.319500 0.375040 0.673000 -0.467623
O33   O     O_R   0.180500 0.875040 0.327000 -0.461480
O34   O     O_R   0.716900 0.787550 0.654540 -0.550580
O35   O     O_R   0.819500 0.875040 0.673000 -0.467622
O36   O     O_R   0.780350 0.286720 0.192720 -0.503660
O37   O     O_R   0.219650 0.286720 0.807280 -0.504214
O38   O     O_R   0.280350 0.786720 0.192720 -0.503660
O39   O     O_R   0.719650 0.786720 0.807280 -0.504214
O40   O     O_R   0.757470 0.036630 0.196110 -0.491306
O41   O     O_R   0.242530 0.036630 0.803890 -0.490560
O42   O     O_R   0.257470 0.536630 0.196110 -0.491306
O43   O     O_R   0.742530 0.536630 0.803890 -0.490560
O44   O     O_R   0.663840 0.921160 0.179280 -0.506314
O45   O     O_R   0.554710 0.081900 0.170950 -0.505897
O46   O     O_R   0.336160 0.921160 0.820720 -0.506931
O47   O     O_R   0.163840 0.421160 0.179280 -0.506314
O48   O     O_R   0.836160 0.421160 0.820720 -0.506931
O49   O     O_R   0.445290 0.081900 0.829050 -0.505996
O50   O     O_R   0.054710 0.581900 0.170950 -0.505897
O51   O     O_R   0.945290 0.581900 0.829050 -0.505996
O52   O     O_R   0.545650 0.284910 0.163740 -0.522370

loop_
_geom_bond_atom_site_label_1
_geom_bond_atom_site_label_2
_ccdc_geom_bond_type
C10   C27   S    
C4    H79   S    
C100  N3    S    
C71   O1    A    
Cr3   O11   S    
Cr12  O9    S    
C35   C53   S    
C79   O43   A    
Cr1   O14   S    
C4    H76   S    
C19   C71   S    
C20   C73   S    
C39   O17   A    
C57   C66   T    
H71   N4    S    
C75   O34   A    
C70   C88   S    
C3    H72   S    
H75   N5    S    
C12   H51   S    
C32   H14   S    
C42   H22   S    
C24   I4    S    
Cr9   O10   S    
C23   H5    S    
C46   C89   S    
C88   O8    A    
Cr8   O18   S    
C104  H69   S    
C76   O40   A    
Cr3   O33   S    
C59   C64   S    
Cr7   O17   S    
C77   O41   A    
C13   C18   S    
H88   N8    S    
C57   C76   S    
C17   O19   A    
Cr9   O49   S    
C6    H86   S    
C75   O35   A    
C3    H73   S    
C72   C100  S    
C37   C51   S    
Cr5   O12   S    
Cr11  O51   S    
C43   C52   S    
Cr10  O25   S    
C83   H39   S    
C54   C63   T    
C101  N4    S    
C102  H60   S    
C56   C65   T    
C101  H34   S    
C92   C96   T    
C68   C86   S    
C77   O46   A    
C62   C70   T    
C34   C35   S    
C30   H67   S    
C49   C81   S    
C20   C61   S    
C52   C84   S    
C51   C80   S    
Cr9   O46   S    
C41   H24   S    
C48   O26   A    
C88   O39   A    
C14   C39   S    
Cr11  O21   S    
C11   C15   S    
C44   C53   S    
C36   H32   S    
C40   C43   S    
C12   C16   S    
C2    H43   S    
C48   C91   S    
Cr3   O7    S    
C28   O20   A    
C11   H50   S    
C44   H30   S    
Cr2   O6    S    
C38   H20   S    
C29   H54   S    
C19   C27   S    
C81   O49   A    
C35   H13   S    
C90   C93   T    
C69   C87   S    
C42   C51   S    
Cr11  O26   S    
C33   H15   S    
Cr7   O34   S    
Cr8   O22   S    
C76   O44   A    
C34   H16   S    
C93   C95   S    
C41   H27   S    
C55   C64   T    
C48   O30   A    
C8    C25   S    
C78   O42   A    
C35   H17   S    
C61   C99   S    
C94   H89   S    
C26   H8    S    
C22   C75   S    
C7    H90   S    
Cr10  O50   S    
C87   O38   A    
C71   O31   A    
Cr6   O16   S    
C9    C26   S    
C14   C98   S    
Cr3   O3    S    
C20   C29   S    
C17   O15   A    
C2    H2    S    
C4    H77   S    
C32   C49   S    
C39   O21   A    
C50   C98   S    
C67   C85   S    
C22   C31   S    
C62   C66   S    
C21   C72   S    
C80   O45   A    
Cr7   O39   S    
C20   C24   S    
C103  H64   S    
C72   H38   S    
C61   N6    S    
C6    H85   S    
C5    H83   S    
C37   H19   S    
C84   O4    A    
C3    H74   S    
Cr10  O11   S    
C55   C78   S    
Cr3   O29   S    
C34   H11   S    
C13   H52   S    
C5    H81   S    
C82   O3    A    
Cr4   O8    S    
C3    N4    S    
Cr12  O31   S    
C21   C74   S    
C11   H46   S    
C37   H31   S    
Cr8   O9    S    
Cr2   O10   S    
Cr4   O30   S    
C53   C82   S    
C80   O52   A    
C18   C101  S    
Cr1   O9    S    
C32   H9    S    
C89   C95   T    
C19   C23   S    
C13   H48   S    
C86   O37   A    
C38   C44   S    
C27   H53   S    
C43   H29   S    
C100  H23   S    
C59   C68   T    
Cr5   O10   S    
C9    C18   S    
C102  N1    S    
C5    N6    S    
Cr12  O27   S    
C9    H41   S    
C1    O14   A    
Cr9   O24   S    
C40   H21   S    
Cr11  O13   S    
C24   H6    S    
C79   O48   A    
C1    C18   S    
C26   I2    S    
H62   N2    S    
C91   C97   T    
C25   I1    S    
C2    C15   S    
C25   H7    S    
C103  N2    S    
Cr7   O43   S    
C99   H12   S    
C28   O16   A    
C7    N8    S    
Cr5   O15   S    
C7    H91   S    
C104  H68   S    
C98   N1    S    
Cr8   O44   S    
C60   C65   S    
C40   C53   S    
Cr1   O40   S    
C87   O7    A    
Cr4   O35   S    
C42   H28   S    
H66   N3    S    
C86   O6    A    
C85   O5    A    
C27   H45   S    
C74   O23   A    
Cr5   O41   S    
C10   H44   S    
C38   H35   S    
C47   O25   A    
Cr6   O23   S    
Cr11  O48   S    
C98   H1    S    
Cr10  O20   S    
C54   C79   S    
C31   H57   S    
Cr2   O32   S    
C58   C63   S    
C9    H4    S    
C72   N7    S    
C21   C25   S    
Cr4   O13   S    
C85   O36   A    
C8    C16   S    
C83   C101  S    
C84   O51   A    
C12   C30   S    
C103  H65   S    
C13   C31   S    
C16   C100  S    
C104  N3    S    
C15   C99   S    
C7    H92   S    
C36   H18   S    
C36   C42   S    
C31   H78   S    
H80   N6    S    
Cr5   O37   S    
Cr6   O42   S    
Cr6   O38   S    
C5    H82   S    
C99   N2    S    
C1    O18   A    
C33   C51   S    
C41   C49   S    
C104  H70   S    
C21   C30   S    
C50   N5    S    
C34   C52   S    
C47   C92   S    
C23   C94   S    
Cr12  O5    S    
C82   O50   A    
H58   N1    S    
C32   C33   S    
C73   O32   A    
C45   O27   A    
C102  H59   S    
C46   O28   A    
C6    H87   S    
C46   O24   A    
Cr10  O47   S    
C22   C83   S    
C78   O47   A    
C2    C24   S    
C83   N8    S    
C19   C50   S    
C15   C28   S    
Cr2   O2    S    
C23   I3    S    
C60   C69   T    
C10   H49   S    
Cr1   O1    S    
C45   O22   A    
C33   H10   S    
Cr7   O13   S    
C40   H33   S    
C103  H63   S    
C29   H56   S    
C37   C41   S    
C8    H40   S    
C30   H55   S    
C47   O29   A    
C74   O33   A    
Cr6   O11   S    
C56   C77   S    
C96   C97   S    
Cr4   O4    S    
C50   H36   S    
C58   C67   T    
Cr9   O19   S    
C38   C52   S    
C6    N7    S    
C11   C29   S    
C94   H42   S    
C4    N5    S    
C22   C26   S    
C8    H3    S    
C102  H61   S    
C43   H26   S    
C61   H37   S    
C44   H25   S    
H84   N7    S    
Cr1   O36   S    
Cr2   O28   S    
Cr12  O52   S    
Cr8   O45   S    
C14   C94   S    
C73   O12   A    
C45   C90   S    
C36   C49   S    
C16   C17   S    
C10   C14   S    
C12   H47   S    
C81   O2    A    
