data_mof_unit_57281.cif
_audit_creation_date              2012-12-10T17:32:36-0500
_audit_creation_method            fapswitch 2.2
_symmetry_space_group_name_H-M    P1
_symmetry_Int_Tables_number       1
_space_group_crystal_system       triclinic
_cell_length_a                    12.206992
_cell_length_b                    12.699804
_cell_length_c                    14.10934
_cell_angle_alpha                 92.359725
_cell_angle_beta                  85.671064
_cell_angle_gamma                 95.668709
_cell_volume                      2169.16054024

loop_
_atom_site_label
_atom_site_type_symbol
_atom_type_description
_atom_site_fract_x
_atom_site_fract_y
_atom_site_fract_z
_atom_type_partial_charge
C1    C     C_R   0.524351 0.701433 0.496620 0.985571
C2    C     C_R   0.144459 0.479044 0.444246 0.035254
C3    C     C_R   0.977582 0.533199 0.533424 -0.046061
C4    C     C_R   0.026909 0.485886 0.451466 -0.088698
C5    C     C_R   0.499439 0.500413 0.670412 0.929006
C6    C     C_R   0.500598 0.499670 0.329593 0.927796
C7    C     C_1   0.498467 0.500484 0.772041 -0.024373
C8    C     C_1   0.501609 0.499731 0.227958 -0.059509
C9    C     C_1   0.498639 0.500437 0.857407 0.066519
C10   C     C_1   0.501412 0.499867 0.142590 0.055469
C11   C     C_1   0.499537 0.500272 0.957337 0.066425
C12   C     C_R   0.475730 0.300127 0.511130 0.953351
C13   C     C_1   0.500495 0.500084 0.042659 0.065147
C14   C     C_R   0.457272 0.188223 0.533357 -0.193027
C15   C     C_R   0.544650 0.815981 0.487013 -0.204068
C16   C     C_R   0.651801 0.984133 0.507301 -0.182759
C17   C     C_R   0.352542 0.020852 0.499949 -0.177156
C18   C     C_R   0.641809 0.874803 0.516808 0.480555
C19   C     C_R   0.353907 0.128797 0.529090 0.428066
C20   C     C_R   0.462106 0.870524 0.451369 -0.127581
C21   C     C_R   0.549468 0.136758 0.549583 -0.113014
C22   C     C_2   0.628294 0.182714 0.620296 0.476025
C23   C     C_R   0.454861 0.975556 0.484824 -0.040671
C24   C     C_2   0.395905 0.825379 0.371774 0.427924
C25   C     C_2   0.760217 0.044001 0.479872 0.547885
C26   C     C_2   0.246288 0.953144 0.495420 0.558878
C27   C     C_2   0.199154 0.422583 0.363832 0.486600
C28   C     C_2   0.814126 0.536400 0.650837 0.465064
C29   C     C_2   0.002514 0.445415 0.279160 0.506409
C30   C     C_2   0.012545 0.700310 0.631307 0.628667
C31   C     C_R   0.553362 0.033513 0.513035 -0.044230
C32   C     C_R   0.957031 0.450803 0.379536 -0.160093
C33   C     C_R   0.047616 0.597582 0.590680 -0.193955
C34   C     C_R   0.840742 0.439202 0.399159 0.516087
C35   C     C_R   0.158730 0.577138 0.590878 0.530337
C36   C     C_R   0.860281 0.521913 0.552255 0.034544
H1    H     H_    0.697514 0.141312 0.636894 0.089589
H2    H     H_    0.814478 0.247445 0.199756 0.401534
H3    H     H_    0.036829 0.374453 0.249797 0.115392
H4    H     H_    0.928798 0.708926 0.658194 0.072388
H5    H     H_    0.335534 0.870359 0.343583 0.088943
H6    H     H_    0.098695 0.111623 0.683162 0.403772
H7    H     H_    0.852978 0.882638 0.688201 0.390880
H8    H     H_    0.766039 0.129046 0.472055 0.065321
H9    H     H_    0.241016 0.871031 0.515116 0.093515
H10   H     H_    0.220914 0.462293 0.297413 0.042685
H11   H     H_    0.752880 0.590650 0.668121 0.142815
H12   H     H_    0.178040 0.684600 0.837658 0.397948
N1    N     N_R   0.207800 0.519340 0.515940 -0.168315
N2    N     N_R   0.792200 0.480660 0.484060 -0.183660
O1    O     O_R   0.421690 0.658830 0.504250 -0.577008
O2    O     O_2   0.413556 0.741123 0.331601 -0.571831
O3    O     O_2   0.266465 0.272687 0.653118 -0.261964
O4    O     O_2   0.157833 0.207552 0.519645 -0.194466
O5    O     O_3   0.168561 0.083168 0.658964 -0.495652
O6    O     O_2   0.672198 0.754843 0.661004 -0.375279
O7    O     O_2   0.809377 0.755600 0.523339 -0.306390
O8    O     O_3   0.814570 0.918715 0.641357 -0.503564
O9    O     O_2   0.842874 0.998531 0.459658 -0.420054
O10   O     O_2   0.165295 0.986922 0.466292 -0.438206
O11   O     O_2   0.220969 0.331788 0.370871 -0.498734
O12   O     O_R   0.578310 0.341170 0.495750 -0.554877
O13   O     O_2   0.848433 0.489907 0.714884 -0.516232
O14   O     O_2   0.240829 0.508833 0.745733 -0.260097
O15   O     O_2   0.324958 0.680893 0.685293 -0.300232
O16   O     O_3   0.135840 0.671244 0.780382 -0.513685
O17   O     O_2   0.659811 0.305355 0.338681 -0.298038
O18   O     O_2   0.750820 0.437822 0.230778 -0.277387
O19   O     O_3   0.846818 0.271065 0.260276 -0.575127
O20   O     O_2   0.001048 0.521011 0.228751 -0.501463
O21   O     O_2   0.077998 0.779511 0.631454 -0.510776
O22   O     O_R   0.609320 0.646410 0.494030 -0.576652
O23   O     O_R   0.390680 0.353590 0.505970 -0.550356
O24   O     O_R   0.406170 0.506210 0.631400 -0.518204
O25   O     O_R   0.593830 0.493790 0.368600 -0.539949
O26   O     O_R   0.593790 0.493790 0.621170 -0.630514
O27   O     O_R   0.406210 0.506210 0.378830 -0.623966
O28   O     O_2   0.612576 0.264188 0.666149 -0.543240
S1    S     S_3+6 0.234778 0.177933 0.590092 0.114092
S2    S     S_3+6 0.736340 0.821602 0.586438 0.031551
S3    S     S_3+6 0.219877 0.609637 0.700950 0.088595
S4    S     S_3+6 0.767850 0.364015 0.307843 0.046989
Zn1   Zn    Zn3+2 0.374720 0.508290 0.506830 1.103808
Zn2   Zn    Zn3+2 0.625280 0.491710 0.493170 1.079719

loop_
_geom_bond_atom_site_label_1
_geom_bond_atom_site_label_2
_ccdc_geom_bond_type
C24   O2    D    
C15   C18   A    
C28   H11   S    
O24   Zn1   S    
O26   Zn2   S    
C30   O21   D    
C35   S3    S    
N2    Zn2   S    
C6    O25   A    
C16   C31   A    
C21   C31   A    
C17   C23   A    
C17   C26   S    
C14   C21   A    
O3    S1    D    
C29   O20   D    
C29   C32   S    
O25   Zn2   S    
C3    C33   A    
C12   O12   A    
C5    O24   A    
O19   S4    S    
C27   O11   D    
C26   H9    S    
C33   C35   A    
C20   C24   S    
C35   N1    A    
C2    C27   S    
C1    C15   S    
H7    O8    S    
O8    S2    S    
H2    O19   S    
C12   O23   A    
C24   H5    S    
O7    S2    D    
C25   H8    S    
C15   C20   A    
C34   N2    A    
C1    O22   A    
C22   O28   D    
C5    C7    S    
C6    O27   A    
C6    C8    S    
C22   H1    S    
C23   C31   A    
C2    C4    A    
C2    N1    A    
H6    O5    S    
O5    S1    S    
O15   S3    D    
C20   C23   A    
C29   H3    S    
C30   H4    S    
C16   C18   A    
O22   Zn2   S    
C19   S1    S    
C1    O1    A    
C4    C32   A    
C27   H10   S    
C8    C10   T    
C12   C14   S    
C9    C11   S    
C3    C4    A    
O1    Zn1   S    
C36   N2    A    
O4    S1    D    
C16   C25   S    
C7    C9    T    
O12   Zn2   S    
C30   C33   S    
C14   C19   A    
C10   C13   S    
C34   S4    S    
O6    S2    D    
O18   S4    D    
N1    Zn1   S    
C5    O26   A    
O16   S3    S    
C11   C13   T    
C3    C36   A    
C17   C19   A    
O14   S3    D    
C28   O13   D    
C28   C36   S    
O17   S4    D    
C18   S2    S    
O27   Zn1   S    
C25   O9    D    
H12   O16   S    
C21   C22   S    
C26   O10   D    
O23   Zn1   S    
C32   C34   A    
