data_mof_unit_48343.cif
_audit_creation_date              2012-12-11T15:49:11-0500
_audit_creation_method            fapswitch 2.2
_symmetry_space_group_name_H-M    P1
_symmetry_Int_Tables_number       1
_space_group_crystal_system       triclinic
_cell_length_a                    21.619224
_cell_length_b                    7.181174
_cell_length_c                    14.866881
_cell_angle_alpha                 90.294779
_cell_angle_beta                  106.028507
_cell_angle_gamma                 90.068737
_cell_volume                      2218.3377698

loop_
_atom_site_label
_atom_site_type_symbol
_atom_type_description
_atom_site_fract_x
_atom_site_fract_y
_atom_site_fract_z
_atom_type_partial_charge
O1    O     O_R   0.335860 0.638190 0.002110 -0.547176
O2    O     O_R   0.664140 0.361810 0.997890 -0.547181
O3    O     O_R   0.164140 0.138190 0.997890 -0.547465
O4    O     O_R   0.835860 0.861810 0.002110 -0.547469
O5    O     O_R   0.217530 0.305920 0.861960 -0.540563
O6    O     O_R   0.782470 0.694080 0.138040 -0.540558
O7    O     O_R   0.282470 0.805920 0.138040 -0.540468
O8    O     O_R   0.717530 0.194080 0.861960 -0.540468
C1    C     C_R   0.205745 0.476081 0.825893 0.844521
C2    C     C_R   0.794255 0.523918 0.174108 0.844579
C3    C     C_R   0.294119 0.977278 0.174001 0.854710
C4    C     C_R   0.705880 0.022722 0.825999 0.854705
O9    O     O_R   0.338690 0.308320 0.993240 -0.518643
O10   O     O_R   0.661310 0.691680 0.006760 -0.518637
O11   O     O_R   0.161310 0.808320 0.006760 -0.517899
O12   O     O_R   0.838690 0.191680 0.993240 -0.517899
O13   O     O_R   0.286170 0.140430 0.130100 -0.535935
O14   O     O_R   0.713830 0.859570 0.869900 -0.535935
O15   O     O_R   0.213830 0.640430 0.869900 -0.529779
O16   O     O_R   0.786170 0.359570 0.130100 -0.529784
C5    C     C_R   0.364622 0.476863 0.996160 0.746728
C6    C     C_R   0.635378 0.523137 0.003840 0.746731
C7    C     C_R   0.135368 0.976754 0.003775 0.753823
C8    C     C_R   0.864632 0.023246 0.996225 0.753818
O17   O     O_3   0.232630 0.472410 0.044750 -0.376502
O18   O     O_3   0.767370 0.527590 0.955250 -0.376507
O19   O     O_3   0.267370 0.972410 0.955250 -0.376484
O20   O     O_3   0.732630 0.027590 0.044750 -0.376482
V1    V     V_3+5 0.253220 0.196620 0.991700 1.637791
V2    V     V_3+5 0.746780 0.803380 0.008300 1.637799
V3    V     V_3+5 0.246780 0.696620 0.008300 1.637989
V4    V     V_3+5 0.753220 0.303380 0.991700 1.637983
C9    C     C_R   0.037593 0.854993 0.050290 0.307971
C10   C     C_R   0.962407 0.145007 0.949710 0.307973
C11   C     C_R   0.462304 0.353799 0.949774 0.313312
C12   C     C_R   0.537696 0.646203 0.050225 0.313305
C13   C     C_R   0.972151 0.869387 0.045933 -0.172495
C14   C     C_R   0.027849 0.130612 0.954067 -0.172495
C15   C     C_R   0.527774 0.368031 0.954245 -0.179705
C16   C     C_R   0.472226 0.631971 0.045754 -0.179706
H1    H     H_    0.951567 0.768466 0.083414 0.177347
H2    H     H_    0.048433 0.231534 0.916585 0.177346
H3    H     H_    0.548296 0.266069 0.916881 0.191137
H4    H     H_    0.451703 0.733933 0.083117 0.191154
C17   C     C_R   0.933635 0.013650 0.996461 -0.133429
C18   C     C_R   0.066365 0.986350 0.003539 -0.133413
C19   C     C_R   0.566392 0.513447 0.003659 -0.145639
C20   C     C_R   0.433608 0.486554 0.996340 -0.145644
C21   C     C_R   0.677485 0.012645 0.724909 -0.273815
C22   C     C_R   0.322513 0.987357 0.275091 -0.273824
C23   C     C_R   0.822423 0.519653 0.275456 -0.278507
C24   C     C_R   0.177577 0.480343 0.724545 -0.278693
C25   C     C_R   0.689329 0.969470 0.569802 -0.140682
C26   C     C_R   0.310669 0.030604 0.430195 -0.140685
C27   C     C_R   0.811491 0.555318 0.431542 -0.141688
C28   C     C_R   0.188529 0.444665 0.568451 -0.141606
C29   C     C_R   0.716861 0.994906 0.665213 0.564400
C30   C     C_R   0.283136 0.005166 0.334784 0.564403
C31   C     C_R   0.784263 0.557001 0.335264 0.564174
C32   C     C_R   0.215754 0.443002 0.664729 0.564187
C33   C     C_R   0.610383 0.012486 0.689147 0.499600
C34   C     C_R   0.389615 0.987471 0.310855 0.499596
C35   C     C_R   0.888593 0.488613 0.311634 0.504197
C36   C     C_R   0.111398 0.511374 0.688372 0.504167
C37   C     C_R   0.581120 0.003118 0.590943 -0.064323
C38   C     C_R   0.418878 0.996853 0.409060 -0.064322
C39   C     C_R   0.918765 0.507118 0.409333 -0.065879
C40   C     C_R   0.081235 0.492829 0.590670 -0.065936
C41   C     C_R   0.622096 0.969303 0.532407 -0.184534
C42   C     C_R   0.377902 0.030711 0.467593 -0.184534
C43   C     C_R   0.877985 0.528390 0.469163 -0.183870
C44   C     C_R   0.122025 0.471550 0.530835 -0.183821
C45   C     C_R   0.513081 0.019015 0.548893 -0.016681
C46   C     C_R   0.486916 0.980942 0.451112 -0.016687
C47   C     C_R   0.987184 0.502107 0.450164 -0.018362
C48   C     C_R   0.012815 0.497811 0.549839 -0.018427
C49   C     C_R   0.529494 0.923377 0.399510 -0.133078
C50   C     C_R   0.470504 0.076579 0.600496 -0.133079
C51   C     C_R   0.969066 0.492429 0.604892 -0.130732
C52   C     C_R   0.030937 0.507431 0.395111 -0.130825
C53   C     C_R   0.595647 0.926873 0.437901 0.675743
C54   C     C_R   0.404351 0.073124 0.562102 0.675740
C55   C     C_R   0.903540 0.516571 0.565948 0.681778
C56   C     C_R   0.096470 0.483304 0.434051 0.681698
H5    H     H_    0.720863 0.947446 0.525339 0.219888
H6    H     H_    0.279134 0.052680 0.474655 0.219885
H7    H     H_    0.780357 0.576424 0.476656 0.223333
H8    H     H_    0.219675 0.423569 0.523332 0.223323
H9    H     H_    0.513375 0.869392 0.329359 0.235557
H10   H     H_    0.486625 0.130540 0.670652 0.235553
H11   H     H_    0.983509 0.465151 0.678715 0.238775
H12   H     H_    0.016498 0.534641 0.321285 0.238804
Br1   Br    Br    0.085024 0.659099 0.126642 -0.374900
Br2   Br    Br    0.914976 0.340902 0.873359 -0.374856
Br3   Br    Br    0.414776 0.155884 0.873583 -0.355751
Br4   Br    Br    0.585222 0.844125 0.126412 -0.355752
F1    F     F_    0.633974 0.879332 0.382759 -0.607454
F2    F     F_    0.366025 0.120688 0.617242 -0.607447
F3    F     F_    0.864541 0.521043 0.623670 -0.617822
F4    F     F_    0.135474 0.478767 0.376323 -0.617799
F5    F     F_    0.424301 0.996517 0.247573 -0.699008
F6    F     F_    0.575700 0.003388 0.752427 -0.699005
F7    F     F_    0.079167 0.570152 0.749670 -0.694590
F8    F     F_    0.920807 0.429876 0.250340 -0.694690
F9    F     F_    0.218074 0.006611 0.300043 -0.622543
F10   F     F_    0.781923 0.993529 0.699951 -0.622549
F11   F     F_    0.279836 0.411586 0.699614 -0.606173
F12   F     F_    0.720194 0.588434 0.300374 -0.606235

loop_
_geom_bond_atom_site_label_1
_geom_bond_atom_site_label_2
_ccdc_geom_bond_type
O17   V3    S    
C36   F7    S    
O1    C5    A    
C27   C31   A    
O19   V1    S    
O13   V1    S    
C45   C46   A    
O3    C7    A    
C48   C51   A    
C52   C56   A    
O15   V3    S    
C4    C21   S    
C21   C29   A    
C50   H10   S    
O7    C3    A    
C49   H9    S    
C8    C17   S    
C36   C40   A    
O9    V1    S    
C14   H2    S    
O16   V4    S    
O4    C8    A    
C28   H8    S    
C2    C23   S    
C38   C46   A    
O1    V3    S    
C37   C45   A    
C12   C19   A    
O2    V4    S    
O3    V1    S    
C50   C54   A    
C24   C32   A    
C1    O15   A    
C2    O16   A    
C28   C44   A    
C46   C49   A    
O2    C6    A    
C45   C50   A    
O14   V2    S    
C47   C52   A    
O5    V1    S    
C23   C35   A    
O8    C4    A    
C5    C20   S    
O11   C7    A    
C29   F10   S    
C25   C41   A    
O12   C8    A    
C7    C18   S    
C55   F3    S    
C27   H7    S    
C9    C18   A    
C54   F2    S    
C1    C24   S    
O10   V2    S    
C11   C20   A    
C43   C55   A    
C35   C39   A    
C21   C33   A    
C34   C38   A    
C22   C30   A    
C12   C16   A    
O7    V3    S    
C24   C36   A    
C26   H6    S    
C25   C29   A    
O18   V4    S    
C15   H3    S    
C9    C13   A    
C28   C32   A    
C56   F4    S    
C52   H12   S    
C11   C15   A    
C47   C48   A    
O5    C1    A    
C12   Br4   S    
C26   C42   A    
C49   C53   A    
C40   C44   A    
O9    C5    A    
C10   C17   A    
C40   C48   A    
C44   C56   A    
C32   F11   S    
O6    V2    S    
C22   C34   A    
C23   C31   A    
C13   C17   A    
C15   C19   A    
C26   C30   A    
C16   C20   A    
C3    O13   A    
C10   C14   A    
C51   H11   S    
C10   Br2   S    
C35   F8    S    
C9    Br1   S    
O6    C2    A    
O11   V3    S    
C11   Br3   S    
O12   V4    S    
C31   F12   S    
C30   F9    S    
C34   F5    S    
O20   V2    S    
C33   F6    S    
C3    C22   S    
C51   C55   A    
O10   C6    A    
C38   C42   A    
O8    V4    S    
C53   F1    S    
C37   C41   A    
C6    C19   S    
C39   C43   A    
C13   H1    S    
C42   C54   A    
O4    V2    S    
C14   C18   A    
C41   C53   A    
C33   C37   A    
C16   H4    S    
C39   C47   A    
C4    O14   A    
C25   H5    S    
C27   C43   A    
