data_mof_unit_27043.cif
_audit_creation_date              2012-12-11T15:34:02-0500
_audit_creation_method            fapswitch 2.2
_symmetry_space_group_name_H-M    P1
_symmetry_Int_Tables_number       1
_space_group_crystal_system       triclinic
_cell_length_a                    15.053226
_cell_length_b                    15.060541
_cell_length_c                    34.929918
_cell_angle_alpha                 90.548344
_cell_angle_beta                  90.094937
_cell_angle_gamma                 60.071829
_cell_volume                      6862.61347244

loop_
_atom_site_label
_atom_site_type_symbol
_atom_type_description
_atom_site_fract_x
_atom_site_fract_y
_atom_site_fract_z
_atom_type_partial_charge
Br1   Br    Br    0.717309 0.925762 0.780353 -0.521549
Br2   Br    Br    0.979261 0.647387 0.301890 -0.496676
Br3   Br    Br    0.851740 0.480847 0.915595 -0.477928
Br4   Br    Br    0.610154 0.485144 0.285838 -0.499128
Br5   Br    Br    0.624092 0.500119 0.190863 -0.399272
Br6   Br    Br    0.438007 0.872696 0.165018 -0.480406
Br7   Br    Br    0.885910 0.514999 0.664109 -0.480788
Br8   Br    Br    0.455720 0.200820 0.405139 -0.511567
Br9   Br    Br    0.110568 0.503418 0.082944 -0.475960
Br10  Br    Br    0.343732 0.673374 0.203767 -0.397453
C1    C     C_R   0.302355 0.608298 0.555710 0.541726
C2    C     C_R   0.204427 0.724376 0.392004 -0.131801
C3    C     C_R   0.753546 0.157999 0.265477 -0.089340
C4    C     C_R   0.758394 0.151762 0.225647 -0.093614
C5    C     C_R   0.668747 0.204745 0.203707 0.047517
C6    C     C_R   0.717503 0.240783 0.347743 -0.100291
C7    C     C_R   0.701592 0.258095 0.386971 -0.147033
C8    C     C_R   0.561075 0.222209 0.383700 0.160975
C9    C     C_R   0.747915 0.589578 0.645236 0.167933
C10   C     C_R   0.577142 0.206172 0.344293 -0.091222
C11   C     C_R   0.652316 0.219424 0.325967 0.008834
C12   C     C_R   0.619976 0.254566 0.405234 0.031862
C13   C     C_R   0.172409 0.734638 0.354141 -0.133473
C14   C     C_R   0.082229 0.710779 0.094714 0.028089
C15   C     C_R   0.111229 0.613911 0.110715 0.150822
C16   C     C_R   0.141146 0.595802 0.149006 -0.075043
C17   C     C_R   0.144576 0.671685 0.171260 0.025205
C18   C     C_R   0.123672 0.764100 0.154748 -0.083524
C19   C     C_R   0.093555 0.783221 0.116783 -0.141152
C20   C     C_R   0.238047 0.665038 0.231312 0.177409
C21   C     C_R   0.178137 0.650780 0.334200 0.093381
C22   C     C_R   0.568336 0.720403 0.650610 -0.153519
C23   C     C_R   0.242386 0.629964 0.410338 -0.001898
C24   C     C_R   0.736125 0.025094 0.943196 0.546637
C25   C     C_R   0.745571 0.722707 0.945058 0.566553
C26   C     C_R   0.037738 0.734269 0.948173 0.545752
C27   C     C_R   0.723021 0.038761 0.052843 0.543820
C28   C     C_R   0.733635 0.734361 0.054875 0.566118
C29   C     C_R   0.664527 0.661101 0.667798 0.043578
C30   C     C_R   0.028028 0.744474 0.057868 0.562702
C31   C     C_R   0.552554 0.702118 0.612773 -0.142074
C32   C     C_R   0.674004 0.677615 0.787141 0.354945
C33   C     C_R   0.672368 0.668355 0.709578 0.370529
C34   C     C_R   0.744611 0.597083 0.850520 -0.086424
C35   C     C_R   0.761357 0.605580 0.889435 0.154563
C36   C     C_R   0.641110 0.788466 0.886482 -0.151134
C37   C     C_R   0.624801 0.779113 0.847869 -0.107771
C38   C     C_R   0.679684 0.684210 0.829125 0.009020
C39   C     C_R   0.610894 0.588532 0.555140 0.549279
C40   C     C_R   0.242509 0.662703 0.271078 -0.126194
C41   C     C_R   0.713060 0.703260 0.907407 0.031259
C42   C     C_R   0.724088 0.070807 0.905042 0.024346
C43   C     C_R   0.634398 0.099402 0.883894 -0.113789
C44   C     C_R   0.631544 0.119055 0.844893 -0.081206
C45   C     C_R   0.718053 0.110638 0.826512 0.054934
C46   C     C_R   0.804853 0.090047 0.847926 -0.102979
C47   C     C_R   0.808009 0.070055 0.887001 -0.112384
C48   C     C_R   0.721839 0.202261 0.768669 -0.149874
C49   C     C_R   0.714777 0.215797 0.729154 -0.089932
C50   C     C_R   0.705062 0.145877 0.705149 0.004844
C51   C     C_R   0.167309 0.656387 0.292547 0.006511
C52   C     C_R   0.590563 0.300308 0.553561 0.545702
C53   C     C_R   0.705127 0.060777 0.721020 -0.093018
C54   C     C_R   0.712803 0.046443 0.760594 0.170137
C55   C     C_R   0.718750 0.118990 0.784690 0.023847
C56   C     C_R   0.596845 0.177316 0.647721 -0.144934
C57   C     C_R   0.568288 0.214581 0.610706 -0.132007
C58   C     C_R   0.724059 0.223192 0.604263 -0.100960
C59   C     C_R   0.753296 0.185951 0.641526 0.110704
C60   C     C_R   0.686993 0.166697 0.663892 0.052607
C61   C     C_R   0.629729 0.241536 0.589195 -0.000420
C62   C     C_R   0.087063 0.651280 0.274031 0.198265
C63   C     C_R   0.088616 0.698977 0.910582 0.020698
C64   C     C_R   0.299533 0.610367 0.446294 0.546713
C65   C     C_R   0.115598 0.761637 0.889869 -0.116898
C66   C     C_R   0.136079 0.745313 0.850786 -0.116992
C67   C     C_R   0.131160 0.665433 0.831797 0.030260
C68   C     C_R   0.113551 0.597028 0.852997 -0.103224
C69   C     C_R   0.092187 0.613777 0.892145 -0.111970
C70   C     C_R   0.200793 0.564848 0.771114 -0.101724
C71   C     C_R   0.209792 0.560450 0.731286 -0.095757
C72   C     C_R   0.154505 0.649530 0.709402 0.038170
C73   C     C_R   0.083193 0.652497 0.234182 -0.123174
C74   C     C_R   0.087370 0.742253 0.728024 -0.092243
C75   C     C_R   0.079040 0.746738 0.767805 -0.088027
C76   C     C_R   0.607925 0.589936 0.445317 0.547527
C77   C     C_R   0.137185 0.658511 0.789678 0.031401
C78   C     C_R   0.186000 0.725632 0.651385 -0.118801
C79   C     C_R   0.220935 0.716268 0.613829 -0.122680
C80   C     C_R   0.226847 0.553057 0.607582 -0.119905
C81   C     C_R   0.191570 0.562617 0.645151 -0.101961
C82   C     C_R   0.174345 0.647255 0.667838 0.033619
C83   C     C_R   0.245397 0.628084 0.592047 0.020179
C84   C     C_R   0.157837 0.659989 0.212707 -0.012120
C85   C     C_R   0.693917 0.716882 0.091175 0.028823
C86   C     C_R   0.596242 0.787849 0.106258 0.098504
C87   C     C_R   0.570368 0.776107 0.144033 0.189207
C88   C     C_R   0.587784 0.302749 0.443623 0.565816
C89   C     C_R   0.641997 0.694039 0.166407 0.052050
C90   C     C_R   0.735621 0.621321 0.150405 -0.128398
C91   C     C_R   0.760844 0.631880 0.113244 -0.146437
C92   C     C_R   0.624084 0.603989 0.223684 0.237648
C93   C     C_R   0.621942 0.595704 0.263741 0.202361
C94   C     C_R   0.625745 0.670066 0.287556 0.001692
C95   C     C_R   0.209549 0.557592 0.353030 0.146195
C96   C     C_R   0.625820 0.754543 0.271368 -0.130296
C97   C     C_R   0.626494 0.763508 0.231817 -0.113208
C98   C     C_R   0.626784 0.688337 0.207760 0.042108
C99   C     C_R   0.547051 0.730224 0.351912 -0.098769
C100  C     C_R   0.632794 0.624006 0.591448 -0.009656
C101  C     C_R   0.543987 0.712178 0.390848 -0.113260
C102  C     C_R   0.710892 0.558815 0.385664 -0.106083
C103  C     C_R   0.713844 0.577115 0.346758 -0.059949
C104  C     C_R   0.629876 0.660231 0.329431 0.057710
C105  C     C_R   0.623848 0.623723 0.407716 0.021611
C106  C     C_R   0.239736 0.548572 0.391346 -0.099308
C107  C     C_R   0.698682 0.102174 0.087777 0.019804
C108  C     C_R   0.770231 0.126631 0.103120 -0.120578
C109  C     C_R   0.756752 0.167748 0.139998 -0.095481
C110  C     C_R   0.671972 0.184270 0.162153 0.040503
C111  C     C_R   0.596300 0.167804 0.145531 -0.107078
C112  C     C_R   0.731292 0.571215 0.607378 -0.093551
C113  C     C_R   0.609310 0.127562 0.108614 -0.107640
C114  C     C_R   0.574840 0.267284 0.222337 -0.058479
C115  C     C_R   0.569867 0.272320 0.262159 -0.060677
C116  C     C_R   0.658904 0.216208 0.283960 0.048954
Cr1   Cr    Cr6+3 0.421670 0.426920 0.499620 1.061463
Cr2   Cr    Cr6+3 0.427030 0.651190 0.500980 1.026208
Cr3   Cr    Cr6+3 0.651280 0.421870 0.499380 1.024984
Cr4   Cr    Cr6+3 0.910810 0.908010 0.001130 1.031546
Cr5   Cr    Cr6+3 0.682800 0.909890 0.998370 1.050044
Cr6   Cr    Cr6+3 0.908370 0.682300 0.002180 1.115474
H1    H     H_    0.794819 0.512692 0.590906 0.160528
H2    H     H_    0.475862 0.744531 0.601144 0.141175
H3    H     H_    0.773075 0.242058 0.587706 0.129639
H4    H     H_    0.114118 0.827565 0.903221 0.136302
H5    H     H_    0.071647 0.564153 0.907300 0.158708
H6    H     H_    0.181288 0.502054 0.656910 0.134327
H7    H     H_    0.263298 0.488197 0.717777 0.108409
H8    H     H_    0.246176 0.495961 0.787493 0.111062
H9    H     H_    0.151724 0.797656 0.835033 0.111372
H10   H     H_    0.042536 0.811651 0.711857 0.114782
H11   H     H_    0.027498 0.819376 0.781566 0.129611
H12   H     H_    0.878250 0.048134 0.902487 0.135463
H13   H     H_    0.174196 0.791392 0.668235 0.107058
H14   H     H_    0.234366 0.775433 0.602688 0.131393
H15   H     H_    0.109855 0.534625 0.838867 0.130357
H16   H     H_    0.244241 0.484545 0.591389 0.134398
H17   H     H_    0.836020 0.575744 0.102649 0.179212
H18   H     H_    0.779162 0.523516 0.329708 0.152908
H19   H     H_    0.627944 0.812318 0.289446 0.144356
H20   H     H_    0.630281 0.827661 0.219847 0.145119
H21   H     H_    0.482271 0.795431 0.338892 0.128600
H22   H     H_    0.476050 0.763901 0.407084 0.136801
H23   H     H_    0.713437 0.282733 0.717376 0.163239
H24   H     H_    0.791578 0.558323 0.167425 0.154771
H25   H     H_    0.773781 0.490332 0.397812 0.135651
H26   H     H_    0.839232 0.109087 0.087463 0.135557
H27   H     H_    0.552589 0.109948 0.097496 0.146246
H28   H     H_    0.529058 0.185650 0.327688 0.138627
H29   H     H_    0.496425 0.319857 0.276005 0.125640
H30   H     H_    0.504917 0.310354 0.206135 0.135291
H31   H     H_    0.503303 0.776523 0.667155 0.138761
H32   H     H_    0.815086 0.181932 0.151864 0.131120
H33   H     H_    0.823026 0.114343 0.281875 0.113007
H34   H     H_    0.726627 0.258365 0.786873 0.131514
H35   H     H_    0.831613 0.101480 0.212162 0.106463
H36   H     H_    0.776700 0.250362 0.334079 0.143346
H37   H     H_    0.749226 0.281293 0.402436 0.140001
H38   H     H_    0.530532 0.178884 0.161953 0.118048
H39   H     H_    0.072876 0.857853 0.105553 0.148062
H40   H     H_    0.148933 0.806200 0.339602 0.123262
H41   H     H_    0.785178 0.522405 0.836804 0.165315
H42   H     H_    0.305198 0.665231 0.285376 0.164423
H43   H     H_    0.158751 0.523619 0.161835 0.151040
H44   H     H_    0.020126 0.650703 0.219900 0.145752
H45   H     H_    0.563379 0.136661 0.828668 0.133738
H46   H     H_    0.268759 0.475274 0.405250 0.156131
H47   H     H_    0.125234 0.823713 0.171851 0.155825
H48   H     H_    0.205308 0.788305 0.406094 0.140615
H49   H     H_    0.601590 0.864431 0.899241 0.146632
H50   H     H_    0.572731 0.847527 0.832364 0.167417
H51   H     H_    0.568413 0.100962 0.896938 0.134293
H52   H     H_    0.895266 0.091834 0.661617 0.232028
H53   H     H_    0.886436 0.191709 0.637552 0.236159
H54   H     H_    0.457655 0.868423 0.080847 0.268627
H55   H     H_    0.507358 0.940448 0.097861 0.254126
H56   H     H_    0.698595 0.005978 0.702638 0.150464
H57   H     H_    0.236167 0.409967 0.350976 0.250306
H58   H     H_    0.279648 0.445547 0.313325 0.228152
H59   H     H_    0.545391 0.162523 0.664612 0.121964
H60   H     H_    0.495430 0.227526 0.599792 0.142319
H61   H     H_    0.871794 0.084394 0.834031 0.117796
N1    N     N_R   0.734202 0.588058 0.768275 -0.219641
N2    N     N_R   0.732771 0.583413 0.730264 -0.159205
N3    N     N_R   0.611313 0.757714 0.728420 -0.216697
N4    N     N_R   0.612634 0.762358 0.766442 -0.193461
N5    N     N_3   0.848294 0.170449 0.657224 -0.618613
N6    N     N_3   0.524800 0.872325 0.083551 -0.584612
N7    N     N_3   0.218016 0.470627 0.332369 -0.567233
O1    O     O_R   0.502070 0.323090 0.541280 -0.509178
O2    O     O_R   0.831550 0.656950 0.958960 -0.453691
O3    O     O_R   0.998590 0.685540 0.963930 -0.489882
O4    O     O_R   0.338340 0.520690 0.539540 -0.501961
O5    O     O_R   0.008220 0.831200 0.045060 -0.525325
O6    O     O_R   0.813270 0.997930 0.038810 -0.503596
O7    O     O_R   0.657500 0.016560 0.039940 -0.506661
O8    O     O_R   0.685680 0.820940 0.038120 -0.463177
O9    O     O_R   0.822130 0.666070 0.043610 -0.498101
O10   O     O_R   0.989860 0.694000 0.042400 -0.450366
O11   O     O_3   0.833990 0.833400 0.000560 -0.265968
O12   O     O_R   0.520720 0.641670 0.461580 -0.500003
O13   O     O_R   0.324760 0.674070 0.543580 -0.519860
O14   O     O_R   0.522400 0.640310 0.540110 -0.499306
O15   O     O_R   0.675940 0.500630 0.542210 -0.514793
O16   O     O_R   0.641790 0.337020 0.538150 -0.503728
O17   O     O_R   0.500260 0.324550 0.456580 -0.454628
O18   O     O_R   0.336660 0.522040 0.461020 -0.497249
O19   O     O_R   0.322940 0.675540 0.458880 -0.515911
O20   O     O_R   0.674120 0.502090 0.457500 -0.516791
O21   O     O_R   0.640110 0.338380 0.459630 -0.514621
O22   O     O_3   0.499990 0.499990 0.499990 -0.248106
O23   O     O_R   0.017640 0.822070 0.960410 -0.518235
O24   O     O_R   0.822000 0.989470 0.960340 -0.500689
O25   O     O_R   0.666920 0.007430 0.955290 -0.516529
O26   O     O_R   0.694410 0.812480 0.959650 -0.515102

loop_
_geom_bond_atom_site_label_1
_geom_bond_atom_site_label_2
_ccdc_geom_bond_type
C86   N6    S    
C45   C46   A    
C88   O21   A    
C9    C112  A    
C6    C11   A    
C12   C88   S    
C106  H46   S    
C25   O26   A    
C63   C65   A    
C27   O6    A    
C21   C51   S    
C95   C106  A    
C85   C86   A    
Cr5   O7    S    
Cr6   O2    S    
C75   H11   S    
C94   C96   A    
C71   C72   A    
Br5   C92   S    
H58   N7    S    
C52   O1    A    
C67   C68   A    
C46   C47   A    
C89   C98   S    
C2    C13   A    
Cr1   O17   S    
C16   C17   A    
C28   O8    A    
C50   C53   A    
C36   H49   S    
C18   C19   A    
C65   H4    S    
C76   O12   A    
C70   C77   A    
C99   C101  A    
C2    C23   A    
C70   C71   A    
C7    H37   S    
C96   C97   A    
C35   C41   A    
Br4   C93   S    
C30   O10   A    
N3    N4    A    
C72   C82   S    
C5    C110  S    
C33   N2    A    
C22   C29   A    
C32   N1    A    
Br10  C20   S    
C14   C19   A    
C31   H2    S    
Br7   C9    S    
C80   H16   S    
C24   C42   S    
Cr1   O22   S    
C87   C89   A    
C36   C37   A    
C95   N7    S    
C13   H40   S    
C78   C82   A    
C6    C7    A    
Cr6   O3    S    
C28   C85   S    
C37   C38   A    
C22   C31   A    
C92   C98   A    
C26   O3    A    
C50   C60   S    
H53   N5    S    
C10   H28   S    
C99   H21   S    
Cr1   O4    S    
C8    C10   A    
Cr2   O13   S    
C1    O4    A    
C66   H9    S    
C90   H24   S    
N1    N2    A    
C20   C40   A    
C49   C50   A    
C73   H44   S    
C108  C109  A    
C27   O7    A    
Cr4   O11   S    
C59   C60   A    
Cr6   O11   S    
C37   H50   S    
Br2   C62   S    
Cr5   O8    S    
C102  C103  A    
C45   C55   S    
C24   O24   A    
C114  H30   S    
C66   C67   A    
C75   C77   A    
C79   H14   S    
C114  C115  A    
C5    C114  A    
Cr6   O9    S    
Br9   C15   S    
Br6   C87   S    
C24   O25   A    
Cr6   O10   S    
C14   C15   A    
Cr3   O21   S    
C26   C63   S    
Cr2   O22   S    
C81   C82   A    
C49   H23   S    
C57   H60   S    
C58   C59   A    
C29   C33   S    
C15   C16   A    
C43   C44   A    
C73   C84   A    
C39   O14   A    
Br3   C35   S    
C34   H41   S    
C19   H39   S    
C53   C54   A    
H55   N6    S    
C76   C105  S    
C13   C21   A    
Cr3   O15   S    
C65   C66   A    
C112  H1    S    
Cr4   O6    S    
C81   H6    S    
Cr5   O25   S    
C48   C55   A    
C3    H33   S    
C89   C90   A    
Cr2   O19   S    
C74   H10   S    
C78   H13   S    
C86   C87   A    
C64   O18   A    
C63   C69   A    
C32   C38   S    
C42   C43   A    
C74   C75   A    
Cr1   O1    S    
C26   O23   A    
C9    C29   A    
C68   H15   S    
C1    O13   A    
C94   C104  S    
C3    C116  A    
C99   C104  A    
H57   N7    S    
C69   H5    S    
C102  H25   S    
C72   C74   A    
C31   C100  A    
C56   H59   S    
Cr5   O11   S    
C115  C116  A    
H54   N6    S    
C108  H26   S    
C97   H20   S    
C97   C98   A    
C80   C81   A    
Br1   C54   S    
C93   C94   A    
C22   H31   S    
C110  C111  A    
C51   C62   A    
C80   C83   A    
C103  C104  A    
C11   C116  S    
C71   H7    S    
C44   C45   A    
Cr4   O23   S    
C23   C106  A    
C96   H19   S    
C47   H12   S    
C2    H48   S    
C10   C11   A    
C8    C12   A    
C48   C49   A    
C52   O16   A    
C103  H18   S    
C32   N4    A    
C115  H29   S    
C34   C35   A    
C6    H36   S    
Cr3   O22   S    
C109  H32   S    
C109  C110  A    
C25   O2    A    
Cr3   O20   S    
C39   O15   A    
H52   N5    S    
C7    C12   A    
C44   H45   S    
C18   H47   S    
C40   H42   S    
C54   C55   A    
Cr3   O16   S    
C43   H51   S    
C107  C113  A    
C20   C84   A    
Cr4   O5    S    
C70   H8    S    
C107  C108  A    
Cr2   O12   S    
C25   C41   S    
C68   C69   A    
Cr5   O26   S    
C1    C83   S    
C21   C95   A    
C56   C60   A    
C113  H27   S    
C16   H43   S    
C58   H3    S    
C58   C61   A    
C36   C41   A    
C64   O19   A    
C91   H17   S    
C90   C91   A    
C14   C30   S    
C52   C61   S    
C56   C57   A    
C57   C61   A    
Cr4   O24   S    
C28   O9    A    
C79   C83   A    
C92   C93   A    
C48   H34   S    
C101  H22   S    
Br8   C8    S    
C111  C113  A    
C62   C73   A    
C42   C47   A    
C46   H61   S    
C30   O5    A    
C85   C91   A    
C23   C64   S    
C27   C107  S    
C78   C79   A    
C67   C77   S    
C53   H56   S    
C76   O20   A    
C88   O17   A    
C17   C18   A    
C40   C51   A    
C4    C5    A    
C33   N3    A    
C17   C84   S    
C101  C105  A    
C4    H35   S    
C3    C4    A    
C59   N5    S    
C102  C105  A    
C100  C112  A    
C111  H38   S    
C34   C38   A    
Cr1   O18   S    
Cr2   O14   S    
C39   C100  S    
