data_mof_unit_42329.cif
_audit_creation_date              2012-12-10T17:01:38-0500
_audit_creation_method            fapswitch 2.2
_symmetry_space_group_name_H-M    P1
_symmetry_Int_Tables_number       1
_space_group_crystal_system       triclinic
_cell_length_a                    10.144533
_cell_length_b                    11.08876
_cell_length_c                    13.001914
_cell_angle_alpha                 87.434509
_cell_angle_beta                  74.735701
_cell_angle_gamma                 111.865167
_cell_volume                      1292.72304867

loop_
_atom_site_label
_atom_site_type_symbol
_atom_type_description
_atom_site_fract_x
_atom_site_fract_y
_atom_site_fract_z
_atom_type_partial_charge
C1    C     C_R   0.439188 0.254569 0.505589 0.839126
C2    C     C_R   0.560795 0.745432 0.494418 0.839627
C3    C     C_2   0.082532 0.512979 0.491507 0.323894
C4    C     C_2   0.917563 0.488712 0.510047 0.322308
C5    C     C_R   0.472075 0.495558 0.702511 0.794563
C6    C     C_R   0.527994 0.504428 0.297451 0.794119
C7    C     C_R   0.543804 0.504607 0.182360 -0.086129
C8    C     C_R   0.456758 0.495812 0.817448 -0.086072
C9    C     C_R   0.322417 0.515423 0.995944 0.176706
C10   C     C_R   0.679419 0.487037 0.003499 0.176621
C11   C     C_R   0.333809 0.508817 0.887072 -0.239307
C12   C     C_R   0.667419 0.492754 0.112584 -0.238658
C13   C     C_R   0.569565 0.487613 0.856263 -0.272177
C14   C     C_R   0.431338 0.513010 0.143349 -0.272551
C15   C     C_R   0.563402 0.493931 0.964318 0.104309
C16   C     C_R   0.437986 0.507562 0.035178 0.103209
C17   C     C_2   0.403918 0.113554 0.517244 -0.349274
C18   C     C_2   0.595947 0.886437 0.482847 -0.349915
C19   C     C_2   0.508067 0.065662 0.475324 0.193904
C20   C     C_2   0.491586 0.934176 0.524618 0.195334
Cu1   Cu    Cu3+1 0.647370 0.522180 0.481340 0.917431
Cu2   Cu    Cu3+1 0.352630 0.477820 0.518660 0.918335
H1    H     H_    0.337978 0.523144 0.198834 0.173277
H2    H     H_    0.662628 0.476704 0.800738 0.173189
H3    H     H_    0.754380 0.486458 0.143517 0.157073
H4    H     H_    0.247118 0.515722 0.856102 0.155636
H5    H     H_    0.702839 0.948443 0.425727 0.129075
H6    H     H_    0.297101 0.051685 0.574511 0.129334
N1    N     N_2   0.131210 0.444490 0.546730 -0.140379
N2    N     N_2   0.868790 0.555510 0.453270 -0.142209
O1    O     O_R   0.578710 0.332530 0.490040 -0.571621
O2    O     O_R   0.421290 0.667470 0.509960 -0.571274
O3    O     O_R   0.329810 0.295070 0.521560 -0.576722
O4    O     O_R   0.670190 0.704930 0.478440 -0.581539
O5    O     O_R   0.604230 0.515670 0.637800 -0.589652
O6    O     O_R   0.395770 0.484330 0.362200 -0.589431
O7    O     O_R   0.355330 0.478200 0.669330 -0.592387
O8    O     O_R   0.644670 0.521800 0.330670 -0.588739
C21   C     C_3   0.187583 0.533969 0.065815 -0.431910
C22   C     C_3   0.069962 0.404669 0.135030 -0.847823
H7    H     H_    0.029219 0.332250 0.082437 0.251230
H8    H     H_    0.115515 0.362363 0.189084 0.258344
H9    H     H_    0.974172 0.422440 0.185652 0.242319
H10   H     H_    0.221189 0.610455 0.116922 0.187442
H11   H     H_    0.134567 0.571534 0.014590 0.205364
C23   C     C_3   0.816407 0.472258 0.933068 -0.432833
C24   C     C_3   0.930932 0.603339 0.864766 -0.847897
H12   H     H_    0.884353 0.642494 0.809555 0.258827
H13   H     H_    0.966978 0.676593 0.917958 0.252584
H14   H     H_    0.030176 0.589434 0.815460 0.238545
H15   H     H_    0.871257 0.436517 0.983843 0.205316
H16   H     H_    0.785227 0.396006 0.881333 0.186557
C25   C     C_3   0.361086 0.858027 0.624854 -0.821660
H17   H     H_    0.352235 0.923683 0.685960 0.206257
H18   H     H_    0.255877 0.818620 0.603060 0.231860
H19   H     H_    0.375228 0.775910 0.666128 0.237833
C26   C     C_3   0.638122 0.141502 0.374770 -0.821024
H20   H     H_    0.646324 0.075605 0.313770 0.206355
H21   H     H_    0.623932 0.223690 0.333647 0.238085
H22   H     H_    0.743691 0.180777 0.396069 0.231454
C27   C     C_3   0.802529 0.374654 0.595625 -0.790590
H23   H     H_    0.802208 0.280550 0.570328 0.198784
H24   H     H_    0.816674 0.389538 0.675728 0.179657
H25   H     H_    0.688079 0.360528 0.614251 0.276762
C28   C     C_3   0.196322 0.618607 0.399050 -0.794441
H26   H     H_    0.178437 0.590214 0.322072 0.185975
H27   H     H_    0.198479 0.716307 0.413911 0.194295
H28   H     H_    0.311620 0.637705 0.384433 0.277195
C29   C     C_3   0.955018 0.671630 0.371335 -0.539916
H29   H     H_    0.015988 0.756957 0.405777 0.171581
H30   H     H_    0.018944 0.650431 0.296874 0.164894
H31   H     H_    0.878173 0.702469 0.341810 0.233690
C30   C     C_3   0.047716 0.348307 0.644285 -0.546526
H32   H     H_    0.965007 0.257642 0.630300 0.169365
H33   H     H_    0.007353 0.394486 0.712762 0.170333
H34   H     H_    0.123212 0.311296 0.669514 0.234681

loop_
_geom_bond_atom_site_label_1
_geom_bond_atom_site_label_2
_ccdc_geom_bond_type
C14   H1    S    
C10   C23   S    
C27   H25   S    
C6    O8    A    
C4    C27   S    
C8    C13   A    
Cu1   O5    S    
Cu2   N1    S    
C5    O7    A    
C2    C18   S    
Cu1   O1    S    
C30   H32   S    
C6    C7    S    
C1    C17   S    
C24   H12   S    
C13   C15   A    
C9    C21   S    
C12   H3    S    
C21   H11   S    
C28   H28   S    
C22   H9    S    
C27   H23   S    
C19   C20   S    
C22   H8    S    
C1    O3    A    
C24   H13   S    
C25   H17   S    
C19   C26   S    
C30   H33   S    
C9    C11   A    
C26   H20   S    
C3    C28   S    
Cu2   O2    S    
C8    C11   A    
C5    O5    A    
C2    O2    A    
C22   H7    S    
C17   C19   D    
C9    C16   A    
C6    O6    A    
C24   H14   S    
C10   C12   A    
C10   C15   A    
C25   H18   S    
C29   H29   S    
C30   H34   S    
C14   C16   A    
C7    C12   A    
C26   H21   S    
C5    C8    S    
N1    C30   S    
Cu1   O8    S    
C21   H10   S    
C3    C4    S    
C23   H16   S    
C29   H30   S    
C1    O1    A    
N2    C29   S    
Cu2   O6    S    
C18   C20   D    
C3    N1    D    
C28   H26   S    
Cu1   N2    S    
C25   H19   S    
C21   C22   S    
C27   H24   S    
Cu2   O3    S    
C23   C24   S    
C26   H22   S    
Cu1   O4    S    
C11   H4    S    
C2    O4    A    
Cu1   Cu2   S    
C17   H6    S    
C23   H15   S    
Cu2   O7    S    
C7    C14   A    
C4    N2    D    
C18   H5    S    
C15   C16   A    
C13   H2    S    
C29   H31   S    
C20   C25   S    
C28   H27   S    
