data_mof_unit_61106.cif
_audit_creation_date              2012-12-10T17:57:25-0500
_audit_creation_method            fapswitch 2.2
_symmetry_space_group_name_H-M    P1
_symmetry_Int_Tables_number       1
_space_group_crystal_system       triclinic
_cell_length_a                    30.713173
_cell_length_b                    29.363884
_cell_length_c                    30.859976
_cell_angle_alpha                 89.997204
_cell_angle_beta                  89.96764
_cell_angle_gamma                 90.30243
_cell_volume                      27830.9255687

loop_
_atom_site_label
_atom_site_type_symbol
_atom_type_description
_atom_site_fract_x
_atom_site_fract_y
_atom_site_fract_z
_atom_type_partial_charge
C1    C     C_R   0.309253 0.999909 0.690889 0.821839
C2    C     C_R   0.690758 0.000153 0.690817 0.825875
C3    C     C_R   0.809183 0.499705 0.690779 0.813225
C4    C     C_R   0.190797 0.500183 0.690812 0.828696
C5    C     C_R   0.809380 0.000611 0.190853 0.823443
C6    C     C_R   0.190753 0.000504 0.190800 0.823432
C7    C     C_R   0.309235 0.499860 0.190839 0.810776
C8    C     C_R   0.690749 0.500157 0.190826 0.826974
C9    C     C_R   0.375222 0.961660 0.595109 0.416288
C10   C     C_R   0.624025 0.040062 0.595944 0.385243
C11   C     C_R   0.879775 0.542086 0.599454 0.379675
C12   C     C_R   0.123192 0.540723 0.596860 0.376436
C13   C     C_R   0.872148 0.036081 0.091328 0.394513
C14   C     C_R   0.126301 0.038256 0.093486 0.387276
C15   C     C_R   0.376095 0.460124 0.096051 0.395554
C16   C     C_R   0.624839 0.539482 0.095235 0.381831
C17   C     C_R   0.404727 0.999083 0.591544 -0.354996
C18   C     C_R   0.597393 0.000815 0.589362 -0.344295
C19   C     C_R   0.901071 0.500761 0.587950 -0.313724
C20   C     C_R   0.097492 0.500971 0.589379 -0.357385
C21   C     C_R   0.904402 0.001312 0.090919 -0.373620
C22   C     C_R   0.097174 0.000632 0.089483 -0.303816
C23   C     C_R   0.403246 0.499086 0.090009 -0.272290
C24   C     C_R   0.597467 0.500679 0.089303 -0.363246
C25   C     C_R   0.398276 0.036910 0.617922 0.039452
C26   C     C_R   0.606339 0.961712 0.613286 0.043488
C27   C     C_R   0.885301 0.460279 0.605965 0.057794
C28   C     C_R   0.107440 0.461517 0.612383 0.046482
C29   C     C_R   0.907946 0.972737 0.126768 0.094315
C30   C     C_R   0.103132 0.963005 0.116279 -0.093570
C31   C     C_R   0.394998 0.537922 0.114565 -0.072372
C32   C     C_R   0.605471 0.461924 0.114067 0.067311
C33   C     C_3   0.429360 0.064171 0.644990 0.788991
C34   C     C_3   0.577032 0.929798 0.637711 0.790335
C35   C     C_3   0.907141 0.418870 0.623925 0.745017
C36   C     C_3   0.078812 0.428920 0.636761 0.791711
C37   C     C_3   0.911394 0.921912 0.130381 0.789215
C38   C     C_3   0.071156 0.936685 0.143596 0.866747
C39   C     C_3   0.424835 0.568439 0.140185 0.802117
C40   C     C_3   0.575189 0.431678 0.139258 0.782988
C41   C     C_3   0.394940 0.063798 0.680768 -0.528081
C42   C     C_3   0.610583 0.930342 0.674241 -0.536799
C43   C     C_3   0.874203 0.419733 0.660869 -0.449968
C44   C     C_3   0.112933 0.428790 0.672670 -0.546961
C45   C     C_3   0.878411 0.924050 0.167411 -0.569637
C46   C     C_3   0.104920 0.937195 0.179943 -0.521263
C47   C     C_3   0.390727 0.568126 0.176089 -0.404172
C48   C     C_3   0.608575 0.432333 0.175914 -0.538222
C49   C     C_R   0.167061 0.009997 0.884784 -0.042285
C50   C     C_R   0.835511 0.020250 0.881856 -0.183240
C51   C     C_R   0.650926 0.537849 0.866716 -0.112531
C52   C     C_R   0.337785 0.472986 0.879369 -0.072972
C53   C     C_R   0.661864 0.027588 0.378972 -0.142344
C54   C     C_R   0.331486 0.990524 0.385099 -0.077296
C55   C     C_R   0.162054 0.527261 0.379243 -0.073795
C56   C     C_R   0.843350 0.465931 0.373320 -0.047952
C57   C     C_R   0.157129 0.999587 0.842125 -0.083967
C58   C     C_R   0.842714 0.000151 0.841944 -0.048016
C59   C     C_R   0.656994 0.499534 0.841317 -0.023204
C60   C     C_R   0.343231 0.499074 0.841965 -0.027322
C61   C     C_R   0.656758 0.000937 0.341909 -0.067305
C62   C     C_R   0.342548 0.998525 0.342254 -0.067761
C63   C     C_R   0.156766 0.500956 0.341957 -0.026805
C64   C     C_R   0.842945 0.499598 0.341722 -0.049722
C65   C     C_R   0.113124 0.989872 0.832194 -0.187754
C66   C     C_R   0.883606 0.979838 0.834728 -0.167660
C67   C     C_R   0.626905 0.463641 0.844373 -0.200682
C68   C     C_R   0.383287 0.521389 0.835115 -0.177431
C69   C     C_R   0.616962 0.978067 0.335299 -0.171959
C70   C     C_R   0.386870 0.006737 0.332678 -0.176412
C71   C     C_R   0.116818 0.478429 0.335168 -0.177204
C72   C     C_R   0.877920 0.530525 0.340039 -0.189873
C73   C     C_R   0.081435 0.989837 0.865199 -0.185111
C74   C     C_R   0.915076 0.979381 0.867862 -0.155977
C75   C     C_R   0.595061 0.464243 0.876873 -0.166414
C76   C     C_R   0.414792 0.521947 0.867873 -0.183512
C77   C     C_R   0.585424 0.977543 0.368052 -0.191636
C78   C     C_R   0.418005 0.007275 0.366127 -0.142963
C79   C     C_R   0.085269 0.477870 0.367903 -0.182167
C80   C     C_R   0.909321 0.530591 0.372988 -0.168422
C81   C     C_R   0.093291 0.000785 0.908028 -0.059404
C82   C     C_R   0.906319 0.000163 0.908060 -0.051048
C83   C     C_R   0.592196 0.501496 0.905546 -0.099365
C84   C     C_R   0.406984 0.498841 0.906946 -0.027204
C85   C     C_R   0.592947 0.001191 0.406873 -0.031305
C86   C     C_R   0.405126 0.999931 0.409380 -0.057108
C87   C     C_R   0.092942 0.501165 0.406879 -0.026961
C88   C     C_R   0.906885 0.498577 0.406911 -0.107290
C89   C     C_R   0.249966 0.915407 0.749929 0.769543
C90   C     C_R   0.750067 0.084599 0.749963 0.771235
C91   C     C_R   0.749934 0.915398 0.750027 0.793356
C92   C     C_R   0.250051 0.084593 0.750039 0.797657
C93   C     C_R   0.749982 0.415405 0.749916 0.781229
C94   C     C_R   0.250043 0.584601 0.749936 0.782332
C95   C     C_R   0.249949 0.415400 0.750042 0.792534
C96   C     C_R   0.749997 0.584591 0.750092 0.793678
C97   C     C_R   0.749985 0.915407 0.249912 0.788151
C98   C     C_R   0.250038 0.084600 0.249931 0.788955
C99   C     C_R   0.249947 0.915400 0.250040 0.792911
C100  C     C_R   0.750038 0.084593 0.250051 0.773640
C101  C     C_R   0.249960 0.415407 0.249934 0.783163
C102  C     C_R   0.750043 0.584601 0.249934 0.772807
C103  C     C_R   0.749966 0.415400 0.250062 0.785330
C104  C     C_R   0.250048 0.584593 0.250044 0.789731
C105  C     C_R   0.136370 0.012191 0.916169 -0.157282
C106  C     C_R   0.865997 0.020829 0.913620 -0.294627
C107  C     C_R   0.618730 0.539952 0.897726 -0.190891
C108  C     C_R   0.369611 0.471870 0.910961 -0.176048
C109  C     C_R   0.630019 0.028642 0.410614 -0.168154
C110  C     C_R   0.361032 0.992447 0.417605 -0.280274
C111  C     C_R   0.130186 0.528309 0.410826 -0.175953
C112  C     C_R   0.875008 0.464188 0.404669 -0.178594
C113  C     C_3   0.169069 0.022558 0.951467 0.658530
C114  C     C_3   0.835273 0.044716 0.945385 0.805469
C115  C     C_3   0.646136 0.573519 0.924691 0.720386
C116  C     C_3   0.336358 0.468548 0.947165 0.757782
C117  C     C_3   0.662943 0.033131 0.447010 0.727906
C118  C     C_3   0.326040 0.983349 0.451744 0.816612
C119  C     C_3   0.163337 0.531834 0.447049 0.759535
C120  C     C_3   0.844266 0.438755 0.435590 0.760911
C121  C     C_3   0.204194 0.018526 0.915036 0.638703
C122  C     C_3   0.801222 0.043834 0.907995 0.706330
C123  C     C_3   0.681637 0.569361 0.889313 0.681552
C124  C     C_3   0.301322 0.470945 0.911573 0.618884
C125  C     C_3   0.698216 0.030556 0.411465 0.654089
C126  C     C_3   0.293299 0.980462 0.413620 0.685344
C127  C     C_3   0.198451 0.529628 0.411481 0.618599
C128  C     C_3   0.809353 0.442407 0.399647 0.642986
C129  C     C_R   0.938545 0.000001 0.941732 0.779300
C130  C     C_R   0.061599 0.000166 0.941994 0.844483
C131  C     C_R   0.438945 0.499826 0.941145 0.850985
C132  C     C_R   0.560537 0.500344 0.940401 0.794760
C133  C     C_R   0.437204 0.999931 0.443274 0.762914
C134  C     C_R   0.561006 0.000179 0.441093 0.851598
C135  C     C_R   0.938953 0.499703 0.441096 0.791960
C136  C     C_R   0.060987 0.500174 0.441079 0.851437
C137  C     C_R   0.440494 0.999735 0.560643 0.887422
C138  C     C_R   0.561264 0.000224 0.558838 0.929941
C139  C     C_R   0.938210 0.500082 0.558363 0.898820
C140  C     C_R   0.061289 0.500247 0.558855 0.930426
C141  C     C_R   0.938282 0.000074 0.058212 0.873536
C142  C     C_R   0.061212 0.000197 0.058849 0.907298
C143  C     C_R   0.438966 0.499758 0.059069 0.884297
C144  C     C_R   0.561308 0.500210 0.058791 0.877195
C145  C     C_R   0.190576 0.999493 0.809231 0.817175
C146  C     C_R   0.809371 0.999940 0.809178 0.782807
C147  C     C_R   0.690675 0.499117 0.809088 0.817722
C148  C     C_R   0.309461 0.500360 0.809271 0.801061
C149  C     C_R   0.690547 0.999653 0.309257 0.796302
C150  C     C_R   0.309385 0.999440 0.309209 0.797702
C151  C     C_R   0.190546 0.499671 0.309267 0.800772
C152  C     C_R   0.809355 0.500384 0.309193 0.794019
C153  C     C_1   0.249929 0.864128 0.749776 -0.161008
C154  C     C_1   0.750126 0.135876 0.749839 -0.160941
C155  C     C_1   0.749854 0.864115 0.750136 -0.178259
C156  C     C_1   0.250109 0.135874 0.750154 -0.169941
C157  C     C_1   0.749954 0.364125 0.749777 -0.176898
C158  C     C_1   0.250079 0.635880 0.749779 -0.161900
C159  C     C_1   0.249887 0.364121 0.750159 -0.179071
C160  C     C_1   0.750028 0.635866 0.750223 -0.139486
C161  C     C_1   0.749954 0.864128 0.249765 -0.177277
C162  C     C_1   0.250076 0.135879 0.249775 -0.163900
C163  C     C_1   0.249889 0.864120 0.250160 -0.180386
C164  C     C_1   0.750093 0.135872 0.250172 -0.163499
C165  C     C_1   0.249926 0.364128 0.249778 -0.161316
C166  C     C_1   0.750087 0.635880 0.249781 -0.164215
C167  C     C_1   0.749919 0.364122 0.250205 -0.169744
C168  C     C_1   0.250106 0.635872 0.250161 -0.179650
C169  C     C_1   0.249945 0.821642 0.749707 0.021073
C170  C     C_1   0.750119 0.178361 0.749782 0.025982
C171  C     C_1   0.749850 0.821628 0.750194 0.012051
C172  C     C_1   0.250090 0.178360 0.750201 0.009965
C173  C     C_1   0.749984 0.321638 0.749731 0.009853
C174  C     C_1   0.250061 0.678365 0.749708 0.023108
C175  C     C_1   0.249903 0.321635 0.750205 0.008065
C176  C     C_1   0.749997 0.678351 0.750267 0.032926
C177  C     C_1   0.749975 0.821642 0.249702 0.011265
C178  C     C_1   0.250059 0.178365 0.249706 0.023094
C179  C     C_1   0.249906 0.821634 0.250210 0.008386
C180  C     C_1   0.750080 0.178359 0.250231 0.022088
C181  C     C_1   0.249943 0.321642 0.249708 0.023764
C182  C     C_1   0.750079 0.678366 0.249711 0.020492
C183  C     C_1   0.749934 0.321637 0.250265 0.022865
C184  C     C_1   0.250089 0.678358 0.250210 0.008108
C185  C     C_1   0.249984 0.771247 0.749674 0.021241
C186  C     C_1   0.750081 0.228756 0.749742 0.020728
C187  C     C_1   0.749888 0.771232 0.750243 0.019818
C188  C     C_1   0.250027 0.228754 0.750225 0.012205
C189  C     C_1   0.750038 0.271243 0.749725 0.017412
C190  C     C_1   0.250021 0.728760 0.749674 0.021784
C191  C     C_1   0.249965 0.271241 0.750227 0.011969
C192  C     C_1   0.749937 0.728745 0.750268 0.024409
C193  C     C_1   0.750014 0.771247 0.249673 0.017067
C194  C     C_1   0.250020 0.228760 0.249673 0.022290
C195  C     C_1   0.249967 0.771239 0.250234 0.011855
C196  C     C_1   0.750031 0.228754 0.250273 0.022236
C197  C     C_1   0.249983 0.271247 0.249674 0.022354
C198  C     C_1   0.750047 0.728760 0.249676 0.019050
C199  C     C_1   0.749983 0.271242 0.250285 0.023110
C200  C     C_1   0.250028 0.728752 0.250234 0.011812
C201  C     C_R   0.367412 0.036486 0.650266 -0.076850
C202  C     C_R   0.636362 0.962297 0.646417 -0.074376
C203  C     C_R   0.855677 0.460829 0.639419 -0.061874
C204  C     C_R   0.137738 0.461954 0.645314 -0.073700
C205  C     C_R   0.877902 0.974318 0.159875 -0.036473
C206  C     C_R   0.133168 0.963823 0.149486 -0.103792
C207  C     C_R   0.364586 0.537441 0.147375 -0.107702
C208  C     C_R   0.635374 0.462604 0.147343 -0.071126
C209  C     C_R   0.341995 0.997981 0.657709 -0.249559
C210  C     C_R   0.658239 0.002197 0.657327 -0.239995
C211  C     C_R   0.841400 0.501650 0.656989 -0.233561
C212  C     C_R   0.158414 0.502199 0.657248 -0.242358
C213  C     C_R   0.843078 0.004365 0.158392 -0.272623
C214  C     C_R   0.158217 0.002503 0.157264 -0.217016
C215  C     C_R   0.341807 0.497829 0.157428 -0.208059
C216  C     C_R   0.658189 0.502204 0.157376 -0.243600
C217  C     C_R   0.344471 0.960684 0.628683 0.404047
C218  C     C_R   0.653864 0.041083 0.630408 0.385526
C219  C     C_R   0.851026 0.542841 0.634889 0.391197
C220  C     C_R   0.153019 0.541665 0.631326 0.384926
C221  C     C_R   0.842051 0.038094 0.125545 0.394957
C222  C     C_R   0.156353 0.039525 0.127753 0.377018
C223  C     C_R   0.345935 0.459166 0.130221 0.390631
C224  C     C_R   0.654605 0.540595 0.129731 0.386858
Cu1   Cu    Cu3+1 0.280900 0.000000 0.780900 1.027932
Cu2   Cu    Cu3+1 0.719100 0.000000 0.780900 1.002348
Cu3   Cu    Cu3+1 0.780900 0.500000 0.780900 1.017896
Cu4   Cu    Cu3+1 0.219100 0.500000 0.780900 0.984648
Cu5   Cu    Cu3+1 0.780900 0.000000 0.280900 1.007468
Cu6   Cu    Cu3+1 0.219100 0.000000 0.280900 0.972701
Cu7   Cu    Cu3+1 0.280900 0.500000 0.280900 0.991230
Cu8   Cu    Cu3+1 0.719100 0.500000 0.280900 1.001903
Cu9   Cu    Cu3+1 0.219090 0.000000 0.719100 0.993116
Cu10  Cu    Cu3+1 0.780910 0.000000 0.719100 0.981062
Cu11  Cu    Cu3+1 0.719090 0.500000 0.719100 0.985679
Cu12  Cu    Cu3+1 0.280910 0.500000 0.719100 0.977164
Cu13  Cu    Cu3+1 0.719090 0.000000 0.219100 0.991804
Cu14  Cu    Cu3+1 0.280910 0.000000 0.219100 0.974810
Cu15  Cu    Cu3+1 0.219090 0.500000 0.219100 0.975491
Cu16  Cu    Cu3+1 0.780910 0.500000 0.219100 0.987336
Cu17  Cu    Cu3+1 0.000000 0.957530 0.999990 1.049075
Cu18  Cu    Cu3+1 1.000000 0.042470 0.999990 0.973709
Cu19  Cu    Cu3+1 0.500000 0.457530 0.999990 1.010409
Cu20  Cu    Cu3+1 0.500000 0.542470 0.999990 0.973322
Cu21  Cu    Cu3+1 0.500000 0.957530 0.499990 1.020141
Cu22  Cu    Cu3+1 0.500000 0.042470 0.499990 1.000880
Cu23  Cu    Cu3+1 0.000000 0.457530 0.499990 0.991670
Cu24  Cu    Cu3+1 0.000000 0.542470 0.499990 0.986746
H1    H     H_    0.404348 0.044286 0.710168 0.195617
H2    H     H_    0.599055 0.946565 0.704695 0.195722
H3    H     H_    0.627559 0.897337 0.678777 0.198694
H4    H     H_    0.380579 0.097779 0.687353 0.197296
H5    H     H_    0.850952 0.390585 0.660538 0.198791
H6    H     H_    0.101724 0.443836 0.703786 0.194556
H7    H     H_    0.130442 0.395925 0.675938 0.199530
H8    H     H_    0.888617 0.427615 0.693087 0.185511
H9    H     H_    0.846537 0.907571 0.160204 0.174540
H10   H     H_    0.095198 0.957230 0.208929 0.201375
H11   H     H_    0.118933 0.903244 0.187334 0.186774
H12   H     H_    0.892318 0.915427 0.199617 0.214946
H13   H     H_    0.401452 0.550885 0.206325 0.214309
H14   H     H_    0.597372 0.449845 0.205835 0.198087
H15   H     H_    0.624583 0.398969 0.181476 0.200259
H16   H     H_    0.374496 0.601457 0.181161 0.160193
H17   H     H_    0.103343 0.981510 0.799430 0.165672
H18   H     H_    0.890899 0.963634 0.804063 0.151542
H19   H     H_    0.629326 0.434391 0.823128 0.140272
H20   H     H_    0.389293 0.540243 0.805519 0.154412
H21   H     H_    0.611206 0.958782 0.305915 0.154565
H22   H     H_    0.397426 0.013083 0.299733 0.159807
H23   H     H_    0.110937 0.459422 0.305644 0.155099
H24   H     H_    0.879772 0.555878 0.314593 0.147606
H25   H     H_    0.047972 0.981379 0.857362 0.133709
H26   H     H_    0.946155 0.963194 0.862036 0.131873
H27   H     H_    0.573403 0.435214 0.880180 0.157558
H28   H     H_    0.444747 0.540937 0.863068 0.141415
H29   H     H_    0.555675 0.958154 0.363448 0.140909
H30   H     H_    0.451927 0.013404 0.358286 0.130847
H31   H     H_    0.055396 0.458730 0.363162 0.144413
H32   H     H_    0.935045 0.555968 0.372307 0.153437
O1    O     O_R   0.321180 0.000000 0.731010 -0.579326
O2    O     O_R   0.678820 0.000000 0.731010 -0.572905
O3    O     O_R   0.821180 0.500000 0.731010 -0.576927
O4    O     O_R   0.178820 0.500000 0.731010 -0.576191
O5    O     O_R   0.821180 0.000000 0.231010 -0.561562
O6    O     O_R   0.178820 0.000000 0.231010 -0.573497
O7    O     O_R   0.321180 0.500000 0.231010 -0.572015
O8    O     O_R   0.678820 0.500000 0.231010 -0.574518
O9    O     O_R   0.268980 0.000000 0.678820 -0.566752
O10   O     O_R   0.731020 0.000000 0.678820 -0.574162
O11   O     O_R   0.768980 0.500000 0.678820 -0.570030
O12   O     O_R   0.231020 0.500000 0.678820 -0.574333
O13   O     O_R   0.768980 1.000000 0.178820 -0.570295
O14   O     O_R   0.231020 1.000000 0.178820 -0.576804
O15   O     O_R   0.268980 0.500000 0.178820 -0.576490
O16   O     O_R   0.731020 0.500000 0.178820 -0.571319
O17   O     O_R   0.276100 0.938030 0.776090 -0.559963
O18   O     O_R   0.723900 0.061970 0.776090 -0.559843
O19   O     O_R   0.723900 0.938030 0.776090 -0.559747
O20   O     O_R   0.276100 0.061970 0.776090 -0.551823
O21   O     O_R   0.776100 0.438030 0.776090 -0.566903
O22   O     O_R   0.223900 0.561970 0.776090 -0.555242
O23   O     O_R   0.223900 0.438030 0.776090 -0.570951
O24   O     O_R   0.776100 0.561970 0.776090 -0.545012
O25   O     O_R   0.776100 0.938030 0.276090 -0.556248
O26   O     O_R   0.223900 0.061970 0.276090 -0.554457
O27   O     O_R   0.223900 0.938030 0.276090 -0.568384
O28   O     O_R   0.776100 0.061970 0.276090 -0.565950
O29   O     O_R   0.276100 0.438030 0.276090 -0.553475
O30   O     O_R   0.723900 0.561970 0.276090 -0.558791
O31   O     O_R   0.723900 0.438030 0.276090 -0.566504
O32   O     O_R   0.276100 0.561970 0.276090 -0.569876
O33   O     O_R   0.223900 0.938040 0.723900 -0.562613
O34   O     O_R   0.776100 0.061960 0.723900 -0.559947
O35   O     O_R   0.776100 0.938040 0.723900 -0.562835
O36   O     O_R   0.223900 0.061960 0.723900 -0.563900
O37   O     O_R   0.723900 0.438040 0.723900 -0.563353
O38   O     O_R   0.276100 0.561960 0.723900 -0.563715
O39   O     O_R   0.276100 0.438040 0.723900 -0.560349
O40   O     O_R   0.723900 0.561960 0.723900 -0.567306
O41   O     O_R   0.723900 0.938040 0.223900 -0.564284
O42   O     O_R   0.276100 0.061960 0.223900 -0.562231
O43   O     O_R   0.276100 0.938040 0.223900 -0.561299
O44   O     O_R   0.723900 0.061960 0.223900 -0.558246
O45   O     O_R   0.223900 0.438040 0.223900 -0.563880
O46   O     O_R   0.776100 0.561960 0.223900 -0.564189
O47   O     O_R   0.776100 0.438040 0.223900 -0.557759
O48   O     O_R   0.223900 0.561960 0.223900 -0.561147
O49   O     O_R   0.231010 0.000000 0.821180 -0.519792
O50   O     O_R   0.768990 0.000000 0.821180 -0.568289
O51   O     O_R   0.731010 0.500000 0.821180 -0.528004
O52   O     O_R   0.268990 0.500000 0.821180 -0.553591
O53   O     O_R   0.731010 1.000000 0.321180 -0.555362
O54   O     O_R   0.268990 1.000000 0.321180 -0.592394
O55   O     O_R   0.231010 0.500000 0.321180 -0.552282
O56   O     O_R   0.768990 0.500000 0.321180 -0.541509
O57   O     O_R   0.178810 0.000000 0.768990 -0.597024
O58   O     O_R   0.821190 0.000000 0.768990 -0.583777
O59   O     O_R   0.678810 0.500000 0.768990 -0.589169
O60   O     O_R   0.321190 0.500000 0.768990 -0.590617
O61   O     O_R   0.678810 1.000000 0.268990 -0.584382
O62   O     O_R   0.321190 1.000000 0.268990 -0.584691
O63   O     O_R   0.178810 0.500000 0.268990 -0.590587
O64   O     O_R   0.821190 0.500000 0.268990 -0.583166
O65   O     O_R   0.954900 0.964110 0.954900 -0.591605
O66   O     O_R   0.045100 0.035890 0.954900 -0.615789
O67   O     O_R   0.045100 0.964110 0.954900 -0.578353
O68   O     O_R   0.954900 0.035890 0.954900 -0.608667
O69   O     O_R   0.454900 0.464110 0.954900 -0.614104
O70   O     O_R   0.545100 0.535890 0.954900 -0.629465
O71   O     O_R   0.545100 0.464110 0.954900 -0.590075
O72   O     O_R   0.454900 0.535890 0.954900 -0.578219
O73   O     O_R   0.454900 0.964110 0.454900 -0.605605
O74   O     O_R   0.545100 0.035890 0.454900 -0.612651
O75   O     O_R   0.545100 0.964110 0.454900 -0.578797
O76   O     O_R   0.454900 0.035890 0.454900 -0.590933
O77   O     O_R   0.954900 0.464110 0.454900 -0.623961
O78   O     O_R   0.045100 0.535890 0.454900 -0.614154
O79   O     O_R   0.045100 0.464110 0.454900 -0.576406
O80   O     O_R   0.954900 0.535890 0.454900 -0.596046
O81   O     O_R   0.454900 0.964130 0.545070 -0.578873
O82   O     O_R   0.545100 0.035870 0.545070 -0.575386
O83   O     O_R   0.545100 0.964130 0.545070 -0.539068
O84   O     O_R   0.454900 0.035870 0.545070 -0.560133
O85   O     O_R   0.954900 0.464130 0.545070 -0.586558
O86   O     O_R   0.045100 0.535870 0.545070 -0.581902
O87   O     O_R   0.045100 0.464130 0.545070 -0.531184
O88   O     O_R   0.954900 0.535870 0.545070 -0.572989
O89   O     O_R   0.954900 0.964130 0.045070 -0.527566
O90   O     O_R   0.045100 0.035870 0.045070 -0.590746
O91   O     O_R   0.045100 0.964130 0.045070 -0.540626
O92   O     O_R   0.954900 0.035870 0.045070 -0.586628
O93   O     O_R   0.454900 0.464130 0.045070 -0.562534
O94   O     O_R   0.545100 0.535870 0.045070 -0.593750
O95   O     O_R   0.545100 0.464130 0.045070 -0.534909
O96   O     O_R   0.454900 0.535870 0.045070 -0.574373
O97   O     O_3   0.318498 0.922211 0.632300 -0.656971
H33   H     H_    0.303156 0.922130 0.660472 0.310118
O98   O     O_3   0.677222 0.080945 0.636803 -0.665493
H34   H     H_    0.693129 0.079646 0.664615 0.309361
O99   O     O_3   0.833615 0.584424 0.646640 -0.667769
H35   H     H_    0.816690 0.581346 0.673754 0.304661
O100  O     O_3   0.175409 0.581954 0.638649 -0.665863
H36   H     H_    0.191850 0.580145 0.666122 0.308042
O101  O     O_3   0.811472 0.072465 0.124619 -0.640451
H37   H     H_    0.798399 0.075977 0.153729 0.313544
O102  O     O_3   0.182290 0.077990 0.131531 -0.671322
H38   H     H_    0.197135 0.078220 0.159953 0.310351
O103  O     O_3   0.322017 0.419562 0.136051 -0.668879
H39   H     H_    0.306016 0.420698 0.163834 0.309646
O104  O     O_3   0.678672 0.580111 0.135461 -0.660318
H40   H     H_    0.694065 0.579284 0.163578 0.309583
O105  O     O_3   0.376224 0.924660 0.567709 -0.653309
H41   H     H_    0.384710 0.935511 0.538649 0.333744
O106  O     O_3   0.621307 0.078433 0.570343 -0.657877
H42   H     H_    0.614515 0.068698 0.540424 0.343605
O107  O     O_3   0.887020 0.582532 0.577893 -0.649943
H43   H     H_    0.888550 0.575609 0.546523 0.316862
O108  O     O_3   0.119632 0.579575 0.572050 -0.659444
H44   H     H_    0.113889 0.570258 0.541787 0.342564
O109  O     O_3   0.867760 0.067833 0.058596 -0.607890
H45   H     H_    0.881479 0.056219 0.031880 0.344784
O110  O     O_3   0.125812 0.074997 0.065628 -0.662934
H46   H     H_    0.116027 0.064373 0.036846 0.348653
O111  O     O_3   0.378527 0.421974 0.070124 -0.662183
H47   H     H_    0.385405 0.431919 0.040282 0.340317
O112  O     O_3   0.622827 0.577432 0.069047 -0.641041
H48   H     H_    0.615648 0.567197 0.039426 0.337338
O113  O     O_3   0.468253 0.041320 0.655290 -0.725411
H49   H     H_    0.460563 0.010722 0.666793 0.315769
O114  O     O_3   0.536225 0.948310 0.648665 -0.721602
H50   H     H_    0.541213 0.978484 0.662387 0.318699
O115  O     O_3   0.573240 0.887494 0.617014 -0.691752
H51   H     H_    0.557771 0.867188 0.637681 0.337189
O116  O     O_3   0.437002 0.107459 0.627368 -0.698399
H52   H     H_    0.453486 0.124728 0.649665 0.338382
O117  O     O_3   0.902706 0.380488 0.597161 -0.742900
H53   H     H_    0.923675 0.384748 0.573043 0.335017
O118  O     O_3   0.038291 0.447160 0.648951 -0.694128
H54   H     H_    0.043435 0.477158 0.662975 0.309487
O119  O     O_3   0.074643 0.387055 0.615339 -0.694462
H55   H     H_    0.059294 0.366405 0.635786 0.331894
O120  O     O_3   0.950069 0.426962 0.637404 -0.686318
H56   H     H_    0.959349 0.398984 0.652809 0.347471
O121  O     O_3   0.897099 0.898034 0.093393 -0.715722
H57   H     H_    0.867368 0.908659 0.086205 0.294580
O122  O     O_3   0.032848 0.960767 0.153360 -0.648014
H58   H     H_    0.041074 0.991657 0.163740 0.292188
O123  O     O_3   0.061692 0.892954 0.127366 -0.653045
H59   H     H_    0.089439 0.878430 0.118471 0.296323
O124  O     O_3   0.952932 0.908352 0.143717 -0.618308
H60   H     H_    0.950727 0.875283 0.150019 0.343864
O125  O     O_3   0.463650 0.547222 0.152868 -0.700263
H61   H     H_    0.483693 0.548988 0.127703 0.343661
O126  O     O_3   0.534858 0.451741 0.149493 -0.705524
H62   H     H_    0.540570 0.482234 0.162279 0.316700
O127  O     O_3   0.570301 0.388869 0.119750 -0.688593
H63   H     H_    0.554167 0.369703 0.140894 0.339792
O128  O     O_3   0.432013 0.611608 0.121446 -0.711268
H64   H     H_    0.403716 0.623205 0.110594 0.304928
O129  O     O_3   0.167272 0.066541 0.971586 -0.610853
C225  C     C_3   0.144432 0.100053 0.947851 0.027341
H65   H     H_    0.108918 0.093114 0.949168 0.167239
H66   H     H_    0.155210 0.101747 0.913496 0.180064
C226  C     C_3   0.152782 0.146392 0.968272 -0.704157
H67   H     H_    0.188143 0.154462 0.967361 0.256537
H68   H     H_    0.134869 0.173008 0.950091 0.192537
H69   H     H_    0.141500 0.146425 0.002466 0.277011
O130  O     O_3   0.819143 0.019789 0.981874 -0.538195
C227  C     C_3   0.835310 0.975035 0.986116 0.016442
H70   H     H_    0.870119 0.975963 0.995659 0.131906
H71   H     H_    0.831147 0.955072 0.955768 0.141060
C228  C     C_3   0.809649 0.950522 0.021285 -0.708454
H72   H     H_    0.774442 0.950417 0.013084 0.263989
H73   H     H_    0.820825 0.914741 0.023840 0.197832
H74   H     H_    0.814327 0.967796 0.052946 0.240079
O131  O     O_3   0.846202 0.089975 0.958782 -0.524854
C229  C     C_3   0.876068 0.113428 0.931687 0.057645
H75   H     H_    0.868365 0.109644 0.896692 0.169303
H76   H     H_    0.909516 0.101213 0.937702 0.165912
C230  C     C_3   0.874843 0.163896 0.942570 -0.695841
H77   H     H_    0.883438 0.169209 0.977169 0.258814
H78   H     H_    0.898554 0.182701 0.922003 0.184924
H79   H     H_    0.841719 0.177500 0.936541 0.269156
O132  O     O_3   0.169793 0.986572 0.982115 -0.616436
C231  C     C_3   0.202574 0.993919 0.013579 0.111889
H80   H     H_    0.193851 0.022767 0.035077 0.208423
H81   H     H_    0.234780 0.001233 0.998532 0.171952
C232  C     C_3   0.206854 0.951458 0.041415 -0.788422
H82   H     H_    0.217407 0.922294 0.021124 0.257009
H83   H     H_    0.231344 0.957400 0.067295 0.215369
H84   H     H_    0.175099 0.943017 0.056690 0.254658
O133  O     O_3   0.630420 0.618916 0.924489 -0.584040
C233  C     C_3   0.590840 0.623148 0.947133 0.112685
H85   H     H_    0.590648 0.603487 0.977860 0.187042
H86   H     H_    0.563578 0.612143 0.925874 0.157013
C234  C     C_3   0.583866 0.672951 0.958527 -0.732990
H87   H     H_    0.583183 0.693891 0.928560 0.246454
H88   H     H_    0.552414 0.676870 0.975870 0.197835
H89   H     H_    0.610628 0.685237 0.979789 0.270997
O134  O     O_3   0.335063 0.427154 0.971902 -0.604095
C235  C     C_3   0.357860 0.390271 0.953201 0.034689
H90   H     H_    0.393522 0.396760 0.954524 0.157150
H91   H     H_    0.347640 0.384220 0.919099 0.174142
C236  C     C_3   0.348049 0.347200 0.978837 -0.684494
H92   H     H_    0.312548 0.339838 0.978109 0.262856
H93   H     H_    0.365712 0.318000 0.964384 0.189650
H94   H     H_    0.358625 0.351388 0.012999 0.277971
O135  O     O_3   0.338393 0.508049 0.973683 -0.602407
C237  C     C_3   0.307913 0.505736 0.008000 0.135211
H95   H     H_    0.318367 0.480465 0.032490 0.182305
H96   H     H_    0.274810 0.496162 0.996554 0.155344
C238  C     C_3   0.305363 0.551999 0.029939 -0.792187
H97   H     H_    0.293022 0.577761 0.006705 0.265808
H98   H     H_    0.282968 0.550101 0.058156 0.208561
H99   H     H_    0.338127 0.562641 0.041413 0.251100
O136  O     O_3   0.661031 0.560842 0.966949 -0.590174
C239  C     C_3   0.665290 0.513431 0.974365 0.011444
H100  H     H_    0.673396 0.493557 0.944844 0.184612
H101  H     H_    0.634596 0.500007 0.988501 0.126249
C240  C     C_3   0.701631 0.505617 0.006958 -0.697338
H102  H     H_    0.695384 0.525076 0.037111 0.263897
H103  H     H_    0.703598 0.468830 0.015025 0.198536
H104  H     H_    0.733251 0.516896 0.993058 0.258110
O137  O     O_3   0.663634 0.074995 0.471011 -0.589982
C241  C     C_3   0.639886 0.110986 0.451965 0.043425
H105  H     H_    0.604407 0.103481 0.453262 0.157902
H106  H     H_    0.650101 0.117000 0.417842 0.175004
C242  C     C_3   0.648401 0.154535 0.477298 -0.686924
H107  H     H_    0.683689 0.162975 0.476596 0.266014
H108  H     H_    0.629973 0.183061 0.462597 0.190972
H109  H     H_    0.637821 0.150271 0.511469 0.275205
O138  O     O_3   0.328196 0.942372 0.476645 -0.562458
C243  C     C_3   0.352809 0.907012 0.457299 0.016939
H110  H     H_    0.387910 0.912478 0.463919 0.152434
H111  H     H_    0.348029 0.904412 0.421690 0.169569
C244  C     C_3   0.339105 0.861613 0.476889 -0.648067
H112  H     H_    0.304136 0.855025 0.470052 0.265908
H113  H     H_    0.358732 0.833767 0.462532 0.183656
H114  H     H_    0.344201 0.861879 0.512480 0.282316
O139  O     O_3   0.314761 0.021123 0.478141 -0.537061
C245  C     C_3   0.351423 0.041094 0.497823 0.080711
H115  H     H_    0.369304 0.062445 0.473912 0.156798
H116  H     H_    0.373261 0.014763 0.511067 0.107880
C246  C     C_3   0.336418 0.071972 0.534374 -0.699800
H117  H     H_    0.319696 0.051554 0.559770 0.249409
H118  H     H_    0.364901 0.089725 0.548842 0.219607
H119  H     H_    0.313554 0.097930 0.521682 0.254795
O140  O     O_3   0.661208 0.994322 0.474423 -0.635637
C247  C     C_3   0.693279 0.996839 0.507241 0.115064
H120  H     H_    0.684070 0.022486 0.531932 0.190898
H121  H     H_    0.725926 0.005999 0.494129 0.199328
C248  C     C_3   0.696654 0.950775 0.529439 -0.781520
H122  H     H_    0.708080 0.924803 0.505939 0.259935
H123  H     H_    0.720121 0.952902 0.556739 0.214296
H124  H     H_    0.664364 0.940228 0.542243 0.262125
O141  O     O_3   0.164310 0.573203 0.471837 -0.605219
C249  C     C_3   0.141497 0.610011 0.453045 0.031630
H125  H     H_    0.105848 0.603440 0.454310 0.158133
H126  H     H_    0.151796 0.616053 0.418954 0.175288
C250  C     C_3   0.151143 0.653133 0.478650 -0.684730
H127  H     H_    0.186627 0.660594 0.477948 0.264042
H128  H     H_    0.133434 0.682270 0.464154 0.191445
H129  H     H_    0.140509 0.648946 0.512807 0.275640
O142  O     O_3   0.855002 0.392220 0.441364 -0.545578
C251  C     C_3   0.892592 0.386771 0.467028 0.095827
H130  H     H_    0.895478 0.412701 0.493231 0.175398
H131  H     H_    0.921723 0.388102 0.445761 0.165332
C252  C     C_3   0.891171 0.340039 0.488224 -0.720582
H132  H     H_    0.888071 0.313137 0.463094 0.255608
H133  H     H_    0.921606 0.334293 0.506790 0.194513
H134  H     H_    0.862965 0.337770 0.510676 0.273963
O143  O     O_3   0.830912 0.458939 0.475658 -0.600521
C253  C     C_3   0.834424 0.506932 0.477706 0.001588
H135  H     H_    0.826799 0.524030 0.446505 0.186183
H136  H     H_    0.867699 0.516523 0.488277 0.121412
C254  C     C_3   0.802564 0.524442 0.511477 -0.701731
H137  H     H_    0.808887 0.508018 0.543257 0.245265
H138  H     H_    0.806285 0.561890 0.515041 0.211920
H139  H     H_    0.768663 0.516588 0.501325 0.258473
O144  O     O_3   0.161529 0.492290 0.473522 -0.601513
C255  C     C_3   0.191691 0.494977 0.508053 0.126477
H140  H     H_    0.180053 0.519216 0.532962 0.180691
H141  H     H_    0.224523 0.506186 0.497079 0.155176
C256  C     C_3   0.195824 0.448334 0.528980 -0.766514
H142  H     H_    0.209452 0.423735 0.505313 0.264315
H143  H     H_    0.217801 0.450484 0.557480 0.207150
H144  H     H_    0.163374 0.435989 0.539832 0.262117
O145  O     O_3   0.226343 0.059138 0.905456 -0.711629
H145  H     H_    0.246489 0.064550 0.930062 0.341553
O146  O     O_3   0.763647 0.017463 0.916669 -0.671392
H146  H     H_    0.771351 0.984711 0.915441 0.307463
O147  O     O_3   0.790663 0.086999 0.891724 -0.706930
H147  H     H_    0.773754 0.081744 0.864787 0.337127
O148  O     O_3   0.232701 0.981191 0.918452 -0.719521
H148  H     H_    0.215081 0.952801 0.920383 0.325347
O149  O     O_3   0.690710 0.609558 0.865769 -0.699586
H149  H     H_    0.664190 0.618638 0.849572 0.320851
O150  O     O_3   0.275992 0.431103 0.907733 -0.758316
H150  H     H_    0.259574 0.433823 0.880191 0.335556
O151  O     O_3   0.276633 0.511199 0.911953 -0.712401
H151  H     H_    0.248740 0.504073 0.926734 0.328563
O152  O     O_3   0.719882 0.547609 0.902698 -0.713048
H152  H     H_    0.736056 0.570168 0.920503 0.357262
O153  O     O_3   0.722734 0.070779 0.407449 -0.706716
H153  H     H_    0.739994 0.067758 0.380431 0.347020
O154  O     O_3   0.275026 0.936790 0.407730 -0.749405
H154  H     H_    0.265807 0.934604 0.377013 0.313637
O155  O     O_3   0.262365 0.015743 0.413770 -0.677181
H155  H     H_    0.235981 0.004653 0.398477 0.344685
O156  O     O_3   0.724883 0.991584 0.413097 -0.714940
H156  H     H_    0.706001 0.964068 0.411584 0.326737
O157  O     O_3   0.223535 0.569628 0.407572 -0.757712
H157  H     H_    0.240067 0.566912 0.380078 0.336079
O158  O     O_3   0.796635 0.400473 0.381545 -0.696232
H158  H     H_    0.778965 0.407766 0.355561 0.327674
O159  O     O_3   0.773882 0.470454 0.409790 -0.742887
H159  H     H_    0.755433 0.452744 0.430188 0.352024
O160  O     O_3   0.223421 0.489572 0.411979 -0.710578
H160  H     H_    0.250912 0.496777 0.427420 0.328946

loop_
_geom_bond_atom_site_label_1
_geom_bond_atom_site_label_2
_ccdc_geom_bond_type
O160  H160  S    
C92   O36   A    
C93   O37   A    
Cu15  O48   S    
C251  C252  S    
C51   C123  S    
O153  H153  S    
C34   C42   S    
C95   O39   A    
O122  H58   S    
C113  O129  S    
C134  O75   A    
C110  C118  S    
C79   C87   A    
C89   O17   A    
C185  C190  T    
C179  C195  S    
C254  H137  S    
C47   H13   S    
Cu6   O54   S    
Cu21  O73   S    
C177  C193  S    
C64   C152  S    
C188  C191  T    
C221  O101  S    
C124  O150  S    
C86   C110  A    
C57   C145  S    
C256  H142  S    
Cu6   O26   S    
C70   H22   S    
C194  C197  T    
C29   C37   S    
C10   O106  S    
Cu10  O58   S    
C154  C170  T    
C247  H120  S    
O121  H57   S    
C123  O152  S    
C214  C222  A    
C151  O55   A    
C136  O78   A    
C158  C174  T    
Cu17  O91   S    
C50   C122  S    
Cu14  O42   S    
Cu6   Cu14  S    
C99   O27   A    
C180  C196  S    
C12   O108  S    
C116  O134  S    
C75   H27   S    
C206  C214  A    
C140  O86   A    
C113  O132  S    
Cu6   O6    S    
C103  O47   A    
Cu21  Cu22  S    
C80   C88   A    
C137  O84   A    
Cu20  O70   S    
C106  C114  S    
C23   C143  S    
C253  H136  S    
C204  C212  A    
C94   O22   A    
C51   C107  A    
C124  O151  S    
Cu16  O46   S    
C98   C162  S    
C76   C84   A    
C115  C123  S    
C143  O96   A    
C78   H30   S    
C57   C65   A    
C112  C120  S    
C20   C28   A    
C27   C35   S    
C241  H105  S    
C232  H82   S    
C137  O81   A    
C74   H26   S    
C33   O116  S    
Cu24  O86   S    
C253  C254  S    
C23   C31   A    
C228  H74   S    
C216  C224  A    
C31   C207  A    
C242  H109  S    
C178  C194  S    
Cu22  O82   S    
C222  O102  S    
C5    C213  S    
C12   C20   A    
C239  H100  S    
C1    O9    A    
C119  O141  S    
C118  O138  S    
C104  O48   A    
C122  O146  S    
Cu5   O53   S    
C147  O59   A    
C63   C71   A    
C42   H3    S    
C235  H91   S    
C248  H123  S    
O103  H39   S    
C36   C44   S    
C237  H95   S    
Cu5   Cu13  S    
O100  H36   S    
C32   C40   S    
C150  O54   A    
C39   C47   S    
C254  H139  S    
C53   C109  A    
C40   C48   S    
Cu21  O75   S    
C91   O35   A    
C62   C150  S    
C55   C111  A    
C142  O90   A    
C87   C136  S    
C88   C135  S    
Cu18  O68   S    
C8    C216  S    
C35   O120  S    
C144  O94   A    
C250  H129  S    
C235  C236  S    
O105  H41   S    
Cu13  O61   S    
C230  H77   S    
C17   C25   A    
O133  C233  S    
C209  C217  A    
C234  H88   S    
O111  H47   S    
C1    O1    A    
Cu14  O14   S    
Cu12  O38   S    
C233  H85   S    
C242  H107  S    
C10   C18   A    
C103  O31   A    
Cu17  O67   S    
Cu12  O60   S    
C133  O73   A    
C56   C128  S    
C226  H67   S    
C183  C199  S    
C138  O82   A    
Cu7   O32   S    
C8    O8    A    
Cu8   O31   S    
C87   C111  A    
C252  H133  S    
C231  H80   S    
C95   O23   A    
Cu23  O85   S    
C17   C137  S    
C60   C148  S    
O113  H49   S    
C89   O33   A    
C12   C220  A    
Cu19  Cu20  S    
C59   C147  S    
C46   H10   S    
C227  H71   S    
C103  C167  S    
O119  H55   S    
C40   O126  S    
C52   C124  S    
C69   C77   A    
O118  H54   S    
C166  C182  T    
C181  C197  S    
C96   O40   A    
C71   C79   A    
O109  H45   S    
O123  H59   S    
C30   C38   S    
C236  H92   S    
Cu24  O88   S    
C27   C203  A    
C105  C113  S    
C146  O58   A    
Cu11  O11   S    
C224  O104  S    
C25   C201  A    
C130  O67   A    
C227  C228  S    
O108  H44   S    
C102  O30   A    
C29   C205  A    
C54   C110  A    
Cu13  O44   S    
C111  C119  S    
Cu17  Cu18  S    
O143  C253  S    
C123  O149  S    
C52   C60   A    
C36   O118  S    
C59   C67   A    
C53   C61   A    
C125  O156  S    
O124  H60   S    
C184  C200  S    
C55   C63   A    
C94   O38   A    
C32   C208  A    
C35   C43   S    
C218  O98   S    
C85   C134  S    
C90   O18   A    
C148  O60   A    
C77   C85   A    
C102  C166  S    
C240  H102  S    
C203  C211  A    
O151  H151  S    
Cu18  O66   S    
C196  C199  T    
C201  C209  A    
O134  C235  S    
C128  O158  S    
C3    C211  S    
C81   C105  A    
C229  H75   S    
C1    C209  S    
Cu2   O18   S    
C28   C36   S    
C92   C156  S    
Cu22  O76   S    
C156  C172  T    
C39   O128  S    
C89   C153  S    
C121  O148  S    
C226  H69   S    
C250  H127  S    
C114  O130  S    
C239  H101  S    
O158  H158  S    
C49   C121  S    
C22   C142  S    
Cu4   O23   S    
O140  C247  S    
O145  H145  S    
C34   O114  S    
C82   C129  S    
C145  O49   A    
C42   H2    S    
C187  C192  T    
C53   C125  S    
C99   C163  S    
Cu13  O13   S    
C19   C139  S    
Cu18  O90   S    
C55   C127  S    
C97   C161  S    
C142  O91   A    
C163  C179  T    
C14   C22   A    
Cu9   O9    S    
C42   C202  S    
C67   C75   A    
Cu24  O78   S    
C11   C219  A    
C45   H12   S    
C50   C106  A    
C230  H79   S    
Cu19  O71   S    
Cu2   O2    S    
C46   C206  S    
O131  C229  S    
C149  O61   A    
C22   C30   A    
C225  H66   S    
Cu20  O96   S    
C13   C221  A    
C37   O124  S    
Cu3   O3    S    
C47   H16   S    
C68   C76   A    
C132  O71   A    
C211  C219  A    
C48   H15   S    
C97   O25   A    
Cu2   Cu10  S    
C2    O10   A    
C246  H118  S    
C243  H110  S    
C72   C80   A    
O107  H43   S    
C43   C203  S    
Cu6   O27   S    
C125  O153  S    
C61   C149  S    
C120  O142  S    
C31   C39   S    
C4    O4    A    
C247  H121  S    
Cu16  O64   S    
C161  C177  T    
C162  C178  T    
Cu23  O87   S    
C7    O7    A    
C245  H115  S    
O148  H148  S    
C220  O100  S    
C99   O43   A    
C223  O103  S    
C113  C121  S    
O130  C227  S    
C246  H119  S    
Cu14  O43   S    
C44   C204  S    
C38   O123  S    
C96   O24   A    
C225  H65   S    
C248  H122  S    
C117  C125  S    
O127  H63   S    
C25   C33   S    
C119  C127  S    
C43   H8    S    
Cu20  O72   S    
Cu8   O30   S    
O115  H51   S    
C247  C248  S    
Cu18  O92   S    
Cu3   O21   S    
C65   H17   S    
Cu11  O37   S    
C109  C117  S    
O98   H34   S    
C2    O2    A    
Cu22  O74   S    
C54   C126  S    
C11   C19   A    
C249  H125  S    
Cu1   O20   S    
C217  O97   S    
C47   C207  S    
Cu9   O36   S    
Cu14  O62   S    
C5    O5    A    
C74   C82   A    
Cu10  O35   S    
C236  H94   S    
C85   C109  A    
C244  H112  S    
C256  H144  S    
C141  O92   A    
C70   C78   A    
C9    C217  A    
C193  C198  T    
Cu9   O57   S    
C251  H130  S    
C135  O77   A    
C73   C81   A    
C228  H73   S    
C212  C220  A    
C90   O34   A    
C213  C221  A    
C232  H84   S    
Cu19  O69   S    
C255  H141  S    
Cu13  O41   S    
Cu1   O1    S    
C90   C154  S    
C164  C180  T    
C241  C242  S    
C254  H138  S    
C205  C213  A    
O146  H146  S    
C94   C158  S    
C238  H97   S    
Cu15  O45   S    
Cu7   O7    S    
C237  H96   S    
Cu8   O8    S    
C134  O74   A    
C147  O51   A    
O117  H53   S    
C16   O112  S    
C232  H83   S    
C255  C256  S    
O150  H150  S    
C239  C240  S    
C219  O99   S    
C148  O52   A    
C122  O147  S    
Cu1   O49   S    
C115  O133  S    
C49   C105  A    
C54   C62   A    
O159  H159  S    
C127  O157  S    
C39   O125  S    
Cu19  O93   S    
C237  C238  S    
C50   C58   A    
O154  H154  S    
C4    O12   A    
C252  H132  S    
C5    O13   A    
C86   C133  S    
C233  H86   S    
C6    C214  S    
C91   O19   A    
C170  C186  S    
C207  C215  A    
C38   O122  S    
C100  C164  S    
C71   H23   S    
C101  C165  S    
Cu10  O34   S    
C138  O83   A    
C35   O117  S    
C174  C190  S    
C18   C138  S    
C231  H81   S    
C100  O44   A    
Cu4   O22   S    
C95   C159  S    
C253  H135  S    
C41   C201  S    
C233  C234  S    
C244  H113  S    
O101  H37   S    
C46   H11   S    
C131  O69   A    
C45   C205  S    
C116  C124  S    
C26   C202  A    
C139  O85   A    
C115  O136  S    
C143  O93   A    
Cu20  O94   S    
C210  C218  A    
C116  O135  S    
C244  H114  S    
O106  H42   S    
C120  C128  S    
C44   H7    S    
C45   H9    S    
Cu11  O59   S    
C234  H89   S    
C231  C232  S    
C8    O16   A    
Cu23  O79   S    
Cu1   Cu9   S    
C108  C116  S    
C186  C189  T    
C21   C141  S    
C83   C132  S    
Cu5   O28   S    
C152  O64   A    
C75   C83   A    
C81   C130  S    
C21   C29   A    
C24   C144  S    
C132  O70   A    
C41   H4    S    
C48   H14   S    
C84   C108  A    
C129  O68   A    
Cu8   O56   S    
C15   C223  A    
C68   H20   S    
C126  O155  S    
C69   H21   S    
C88   C112  A    
C60   C68   A    
C79   H31   S    
C235  H90   S    
C238  H99   S    
C153  C169  T    
O114  H50   S    
C80   H32   S    
C52   C108  A    
C7    C215  S    
C157  C173  T    
C66   C74   A    
C98   O26   A    
C118  O139  S    
C16   C24   A    
O110  H46   S    
C182  C198  S    
C3    O11   A    
O128  H64   S    
C44   H6    S    
C251  H131  S    
C24   C32   A    
O157  H157  S    
O129  C225  S    
C114  O131  S    
C49   C57   A    
O104  H40   S    
C11   O107  S    
C127  O160  S    
O137  C241  S    
C234  H87   S    
C229  H76   S    
C92   O20   A    
Cu2   O19   S    
C93   O21   A    
C6    O6    A    
O99   H35   S    
C40   O127  S    
C252  H134  S    
C145  O57   A    
C150  O62   A    
C175  C191  S    
C136  O79   A    
C176  C192  S    
Cu15  O15   S    
Cu21  O83   S    
C77   H29   S    
Cu16  O16   S    
C15   O111  S    
C65   C73   A    
C76   H28   S    
Cu7   Cu15  S    
O136  C239  S    
Cu9   O33   S    
C226  H68   S    
C104  O32   A    
Cu7   O29   S    
C58   C66   A    
C140  O87   A    
C141  O89   A    
C82   C106  A    
C73   H25   S    
C168  C184  T    
C229  C230  S    
O142  C251  S    
O112  H48   S    
Cu10  O10   S    
Cu21  O81   S    
C19   C27   A    
O139  C245  S    
Cu16  O47   S    
Cu19  O95   S    
C66   H18   S    
Cu3   O51   S    
Cu4   O4    S    
C102  O46   A    
C227  H70   S    
Cu1   O17   S    
Cu5   O5    S    
C208  C216  A    
C159  C175  T    
C160  C176  T    
C62   C70   A    
C48   C208  S    
O147  H147  S    
C202  C210  A    
Cu17  O65   S    
C36   O119  S    
C26   C34   S    
C255  H140  S    
C230  H78   S    
C119  O144  S    
C101  O45   A    
C120  O143  S    
C2    C210  S    
C38   C46   S    
Cu23  O77   S    
C256  H143  S    
C13   C21   A    
C28   C204  A    
C34   O115  S    
C6    O14   A    
Cu5   O25   S    
C33   C41   S    
C131  O72   A    
C241  H106  S    
C242  H108  S    
O120  H56   S    
C130  O66   A    
C7    O15   A    
O141  C249  S    
C173  C189  S    
C152  O56   A    
O155  H155  S    
O156  H156  S    
C100  O28   A    
C243  H111  S    
C91   C155  S    
C155  C171  T    
C126  O154  S    
C104  C168  S    
C67   H19   S    
C149  O53   A    
O116  H52   S    
C13   O109  S    
C128  O159  S    
C63   C151  S    
C18   C26   A    
Cu24  O80   S    
C56   C64   A    
O132  C231  S    
C146  O50   A    
C151  O63   A    
C93   C157  S    
Cu12  O12   S    
C107  C115  S    
O97   H33   S    
C245  H116  S    
C9    C17   A    
C96   C160  S    
Cu7   O55   S    
O144  C255  S    
Cu17  O89   S    
C240  H103  S    
C37   O121  S    
O149  H149  S    
C240  H104  S    
C243  C244  S    
C51   C59   A    
C121  O145  S    
C97   O41   A    
C20   C140  S    
C10   C218  A    
Cu8   Cu16  S    
C195  C200  T    
O135  C237  S    
C144  O95   A    
C61   C69   A    
C167  C183  T    
C9    O105  S    
C14   C222  A    
Cu3   O24   S    
Cu15  O63   S    
C245  C246  S    
C215  C223  A    
Cu11  O40   S    
Cu23  Cu24  S    
C58   C146  S    
Cu12  O39   S    
Cu3   Cu11  S    
C84   C131  S    
C249  H126  S    
C4    C212  S    
C133  O76   A    
C171  C187  S    
C165  C181  T    
C225  C226  S    
C238  H98   S    
C169  C185  S    
O152  H152  S    
C236  H93   S    
Cu4   O52   S    
C30   C206  A    
C78   C86   A    
C43   H5    S    
C248  H124  S    
C172  C188  S    
C15   C23   A    
C83   C107  A    
C33   O113  S    
C135  O80   A    
C64   C72   A    
C228  H72   S    
Cu2   O50   S    
Cu4   Cu12  S    
C16   C224  A    
O126  H62   S    
C114  C122  S    
Cu22  O84   S    
C250  H128  S    
C101  O29   A    
C3    O3    A    
C98   O42   A    
C249  C250  S    
C117  O140  S    
O125  H61   S    
C41   H1    S    
C72   H24   S    
C117  O137  S    
C129  O65   A    
C118  C126  S    
C139  O88   A    
C246  H117  S    
C37   C45   S    
C14   O110  S    
C56   C112  A    
O138  C243  S    
O102  H38   S    
