data_mof_unit_23718.cif
_audit_creation_date              2012-12-10T17:10:23-0500
_audit_creation_method            fapswitch 2.2
_symmetry_space_group_name_H-M    P1
_symmetry_Int_Tables_number       1
_space_group_crystal_system       triclinic
_cell_length_a                    10.78623
_cell_length_b                    12.999728
_cell_length_c                    11.675539
_cell_angle_alpha                 100.075033
_cell_angle_beta                  93.450588
_cell_angle_gamma                 90.438158
_cell_volume                      1608.67875605

loop_
_atom_site_label
_atom_site_type_symbol
_atom_type_description
_atom_site_fract_x
_atom_site_fract_y
_atom_site_fract_z
_atom_type_partial_charge
C1    C     C_R   0.497074 0.298970 0.478285 0.814466
C2    C     C_R   0.502926 0.701030 0.521715 0.814464
C3    C     C_R   0.506826 0.814682 0.534734 -0.181410
C4    C     C_R   0.493174 0.185318 0.465266 -0.181421
C5    C     C_R   0.455980 0.013851 0.347358 -0.249859
C6    C     C_R   0.544020 0.986149 0.652641 -0.249848
C7    C     C_R   0.460595 0.121878 0.356741 0.608901
C8    C     C_R   0.539404 0.878122 0.643258 0.608907
C9    C     C_R   0.521038 0.139552 0.563492 -0.330191
C10   C     C_R   0.478962 0.860448 0.436508 -0.330201
C11   C     C_R   0.516388 0.031646 0.554423 0.073415
C12   C     C_R   0.483611 0.968354 0.445577 0.073415
C13   C     C_R   0.385665 0.399619 0.021580 -0.315949
C14   C     C_R   0.614335 0.600381 0.978420 -0.315950
C15   C     C_R   0.396276 0.409502 0.143804 0.146722
C16   C     C_R   0.603723 0.590498 0.856196 0.146722
C17   C     C_R   0.548927 0.543764 0.157182 0.033172
C18   C     C_R   0.451073 0.456236 0.842818 0.033172
C19   C     C_R   0.541401 0.536569 0.034311 0.056372
C20   C     C_R   0.458598 0.463431 0.965688 0.056371
C21   C     C_R   0.262851 0.500117 0.500617 0.790047
C22   C     C_R   0.737148 0.499887 0.499383 0.790048
C23   C     C_R   0.129476 0.317036 0.532504 -0.146303
C24   C     C_R   0.870516 0.682953 0.467445 -0.146308
C25   C     C_R   0.064832 0.227189 0.546188 -0.132057
C26   C     C_R   0.935155 0.772784 0.453706 -0.132072
C27   C     C_R   0.935867 0.226729 0.544415 -0.132440
C28   C     C_R   0.064119 0.773243 0.455470 -0.132434
C29   C     C_R   0.871060 0.316116 0.528942 -0.137168
C30   C     C_R   0.128932 0.683871 0.470990 -0.137182
C31   C     C_R   0.934848 0.408499 0.515225 0.069775
C32   C     C_R   0.065148 0.591499 0.484750 0.069775
C33   C     C_R   0.065529 0.408955 0.517023 0.066527
C34   C     C_R   0.934468 0.591044 0.482956 0.066532
C35   C     C_R   0.870805 0.499570 0.498288 -0.171133
C36   C     C_R   0.129193 0.500433 0.501708 -0.171134
Cu1   Cu    Cu3+1 0.509250 0.507730 0.615930 0.966306
Cu2   Cu    Cu3+1 0.490750 0.492270 0.384070 0.966299
H1    H     H_    0.114252 0.843201 0.445188 0.139880
H2    H     H_    0.885728 0.156760 0.554646 0.139883
H3    H     H_    0.320969 0.342480 0.971307 0.150490
H4    H     H_    0.679031 0.657519 0.028693 0.150488
H5    H     H_    0.229666 0.313362 0.533750 0.125266
H6    H     H_    0.770325 0.686626 0.466203 0.125270
H7    H     H_    0.115047 0.157579 0.557813 0.138944
H8    H     H_    0.884934 0.842381 0.442041 0.138942
H9    H     H_    0.770799 0.311676 0.527192 0.129051
H10   H     H_    0.229193 0.688311 0.472730 0.129063
H11   H     H_    0.453322 0.812238 0.352719 0.184183
H12   H     H_    0.546678 0.187762 0.647281 0.184187
H13   H     H_    0.430474 0.965878 0.263474 0.169119
H14   H     H_    0.569526 0.034122 0.736526 0.169120
H15   H     H_    0.387413 0.400353 0.789225 0.124395
H16   H     H_    0.612587 0.599647 0.210775 0.124393
H17   H     H_    0.660279 0.640079 0.814094 0.166476
H18   H     H_    0.339721 0.359921 0.185906 0.166477
N1    N     N_R   0.523180 0.519350 0.790130 -0.191106
N2    N     N_R   0.476820 0.480650 0.209870 -0.191107
O1    O     O_R   0.506570 0.354460 0.582000 -0.610297
O2    O     O_R   0.493430 0.645540 0.418000 -0.610306
O3    O     O_R   0.490940 0.341410 0.386200 -0.521960
O4    O     O_R   0.509060 0.658590 0.613800 -0.521959
O5    O     O_R   0.327470 0.506520 0.597900 -0.581658
O6    O     O_R   0.672530 0.493480 0.402100 -0.581662
O7    O     O_R   0.311840 0.493460 0.402100 -0.586085
O8    O     O_R   0.688160 0.506540 0.597900 -0.586080
F1    F     F_    0.568493 0.836315 0.739960 -0.665876
F2    F     F_    0.431507 0.163685 0.260040 -0.665876

loop_
_geom_bond_atom_site_label_1
_geom_bond_atom_site_label_2
_ccdc_geom_bond_type
C11   C12   A    
C31   C33   A    
C22   O8    A    
Cu1   Cu2   S    
C14   C16   A    
C27   C29   A    
C17   H16   S    
C27   H2    S    
C18   N1    A    
C26   C28   A    
C19   C20   A    
C18   H15   S    
Cu2   O7    S    
C17   N2    A    
C14   H4    S    
Cu2   O3    S    
C6    H14   S    
C15   H18   S    
C1    C4    S    
C28   C30   A    
C2    C3    S    
C4    C9    A    
C16   H17   S    
C29   C31   A    
C21   C36   S    
Cu2   N2    S    
Cu1   O8    S    
C30   C32   A    
C22   C35   S    
C9    C11   A    
Cu1   O1    S    
C10   C12   A    
C29   H9    S    
C4    C7    A    
Cu2   O2    S    
C32   C36   A    
C31   C35   A    
C30   H10   S    
C17   C19   A    
C1    O1    A    
C24   C26   A    
Cu1   O4    S    
C18   C20   A    
C16   N1    A    
C23   C25   A    
C13   C15   A    
Cu1   N1    S    
C24   H6    S    
C15   N2    A    
C2    O2    A    
C21   O5    A    
C25   C27   A    
C5    C12   A    
C26   H8    S    
C22   O6    A    
C25   H7    S    
C33   C36   A    
C23   H5    S    
C3    C8    A    
C8    F1    S    
C5    C7    A    
C34   C35   A    
C6    C11   A    
C3    C10   A    
Cu2   O6    S    
C13   H3    S    
C5    H13   S    
C6    C8    A    
C28   H1    S    
C21   O7    A    
C7    F2    S    
Cu1   O5    S    
C10   H11   S    
C14   C19   A    
C13   C20   A    
C24   C34   A    
C9    H12   S    
C2    O4    A    
C1    O3    A    
C23   C33   A    
C32   C34   A    
