data_mof_unit_12557.cif
_audit_creation_date              2013-03-05T15:49:12-0500
_audit_creation_method            fapswitch 2.2
_symmetry_space_group_name_H-M    P1
_symmetry_Int_Tables_number       1
_space_group_crystal_system       triclinic
_cell_length_a                    17.689352
_cell_length_b                    24.620551
_cell_length_c                    15.081728
_cell_angle_alpha                 90.013809
_cell_angle_beta                  126.322421
_cell_angle_gamma                 90.032677
_cell_volume                      5292.1496851

loop_
_atom_site_label
_atom_site_type_symbol
_atom_site_description
_atom_site_fract_x
_atom_site_fract_y
_atom_site_fract_z
_atom_type_partial_charge
C1    C     C_R   0.328914 0.141880 0.910518 0.422623
C2    C     C_R   0.327431 0.858935 0.910324 0.424451
C3    C     C_R   0.828129 0.641442 0.910466 0.420717
C4    C     C_R   0.827976 0.358638 0.910409 0.431658
N1    N     N_R   0.392450 0.103580 0.942190 -0.103421
N2    N     N_R   0.392450 0.896420 0.942190 -0.105195
N3    N     N_R   0.892450 0.603580 0.942190 -0.102420
N4    N     N_R   0.892450 0.396420 0.942190 -0.102243
C5    C     C_R   0.415698 0.864343 0.094913 -0.130663
C6    C     C_R   0.418085 0.137168 0.095287 -0.141388
C7    C     C_R   0.916858 0.363701 0.095175 -0.120234
C8    C     C_R   0.916583 0.636240 0.095076 -0.148417
H1    H     H_    0.448821 0.856506 0.180939 0.125285
H2    H     H_    0.452569 0.145682 0.181399 0.130565
H3    H     H_    0.950682 0.355687 0.181301 0.128744
H4    H     H_    0.950131 0.644322 0.181143 0.125709
N5    N     N_R   0.450490 0.896000 0.057360 -0.077303
N6    N     N_R   0.450490 0.104000 0.057360 -0.073073
N7    N     N_R   0.950490 0.396000 0.057360 -0.072157
N8    N     N_R   0.950490 0.604000 0.057360 -0.074704
C9    C     C_R   0.543284 0.044909 0.301943 -0.130711
C10   C     C_R   0.545261 0.954060 0.301323 -0.073410
C11   C     C_R   0.046422 0.546015 0.301865 -0.064934
C12   C     C_R   0.044896 0.455220 0.302789 -0.134164
H5    H     H_    0.554564 0.086632 0.329368 0.112535
H6    H     H_    0.562175 0.912264 0.327485 0.108368
H7    H     H_    0.063170 0.587890 0.327420 0.104704
H8    H     H_    0.056261 0.413498 0.330116 0.114021
N9    N     N_R   0.525490 0.028390 0.207550 -0.048320
N10   N     N_R   0.525490 0.971610 0.207550 -0.057467
N11   N     N_R   0.025490 0.528390 0.207550 -0.056049
N12   N     N_R   0.025490 0.471610 0.207550 -0.048790
C13   C     C_R   0.231169 0.954101 0.749159 -0.173629
C14   C     C_R   0.230616 0.044934 0.750817 -0.161135
C15   C     C_R   0.730519 0.454976 0.750172 -0.170701
C16   C     C_R   0.731199 0.545818 0.749300 -0.175536
H9    H     H_    0.205726 0.913481 0.723213 0.159637
H10   H     H_    0.203736 0.085533 0.727394 0.154244
H11   H     H_    0.703530 0.414430 0.725702 0.157790
H12   H     H_    0.705804 0.586466 0.723721 0.158940
N13   N     N_R   0.317450 0.971190 0.792000 -0.042125
N14   N     N_R   0.317450 0.028810 0.792000 -0.041974
N15   N     N_R   0.817450 0.471190 0.792000 -0.045424
N16   N     N_R   0.817450 0.528810 0.792000 -0.044027
C17   C     C_R   0.338541 0.159705 0.004039 0.070657
C18   C     C_R   0.335455 0.842171 0.003472 0.067464
C19   C     C_R   0.836668 0.658579 0.003718 0.078058
C20   C     C_R   0.836964 0.341306 0.003859 0.062072
C21   C     C_R   0.554782 0.998988 0.361327 0.152194
C22   C     C_R   0.057540 0.501157 0.362800 0.152269
C23   C     C_R   0.177030 0.999070 0.726213 0.044334
C24   C     C_R   0.676949 0.500757 0.725724 0.049363
C25   C     C_R   0.519314 0.045617 0.752800 -0.108962
C26   C     C_R   0.524407 0.954765 0.759565 -0.033393
C27   C     C_R   0.023170 0.545365 0.758025 -0.049224
C28   C     C_R   0.018062 0.454410 0.751248 -0.198562
H13   H     H_    0.524471 0.087767 0.737823 0.138021
H14   H     H_    0.541115 0.912945 0.759530 0.109456
H15   H     H_    0.039759 0.587196 0.757961 0.107691
H16   H     H_    0.021508 0.412323 0.734373 0.161240
N17   N     N_R   0.473900 0.028390 0.792280 -0.042345
N18   N     N_R   0.473900 0.971610 0.792280 -0.053985
N19   N     N_R   0.973900 0.528390 0.792280 -0.056852
N20   N     N_R   0.973900 0.471610 0.792280 -0.045662
C29   C     C_R   0.764177 0.954378 0.295308 0.606093
C30   C     C_R   0.763094 0.045890 0.296685 0.516402
C31   C     C_R   0.263966 0.454231 0.295271 0.509414
C32   C     C_R   0.264789 0.545804 0.293965 0.599774
N21   N     N_R   0.682310 0.971180 0.208170 -0.117332
N22   N     N_R   0.682310 0.028820 0.208170 -0.110042
N23   N     N_R   0.182310 0.471180 0.208170 -0.109810
N24   N     N_R   0.182310 0.528820 0.208170 -0.116307
C33   C     C_R   0.646793 0.151290 0.093048 -0.056079
C34   C     C_R   0.645836 0.848358 0.092501 0.046707
C35   C     C_R   0.145258 0.651827 0.092511 -0.048415
C36   C     C_R   0.147173 0.348839 0.092863 -0.029271
H17   H     H_    0.690377 0.162407 0.178811 0.144990
H18   H     H_    0.686972 0.836236 0.177657 0.137669
H19   H     H_    0.187299 0.663605 0.177850 0.146620
H20   H     H_    0.189329 0.337141 0.178340 0.152015
N25   N     N_R   0.606470 0.103570 0.057210 -0.047270
N26   N     N_R   0.606470 0.896430 0.057210 -0.055542
N27   N     N_R   0.106470 0.603570 0.057210 -0.047379
N28   N     N_R   0.106470 0.396430 0.057210 -0.055270
C37   C     C_R   0.554082 0.847305 0.909911 -0.173402
C38   C     C_R   0.554969 0.152486 0.910163 -0.158870
C39   C     C_R   0.055904 0.347852 0.909808 -0.181934
C40   C     C_R   0.053581 0.652830 0.910042 -0.148510
H21   H     H_    0.512020 0.835357 0.824645 0.166873
H22   H     H_    0.514020 0.164215 0.824870 0.177368
H23   H     H_    0.015210 0.336127 0.824493 0.181442
H24   H     H_    0.011465 0.664662 0.824758 0.166028
N29   N     N_R   0.549740 0.896000 0.943240 -0.066373
N30   N     N_R   0.549740 0.104000 0.943240 -0.066553
N31   N     N_R   0.049740 0.396000 0.943240 -0.062411
N32   N     N_R   0.049740 0.604000 0.943240 -0.063491
Ni1   Ni    Ni4+2 0.433780 0.065390 0.868430 0.225473
Ni2   Ni    Ni4+2 0.433780 0.934610 0.868430 0.220496
Ni3   Ni    Ni4+2 0.933780 0.565390 0.868430 0.212657
Ni4   Ni    Ni4+2 0.933780 0.434610 0.868430 0.217986
Ni5   Ni    Ni4+2 0.565800 0.934190 0.131570 0.256057
Ni6   Ni    Ni4+2 0.565800 0.065810 0.131570 0.245555
Ni7   Ni    Ni4+2 0.065800 0.434190 0.131570 0.255990
Ni8   Ni    Ni4+2 0.065800 0.565810 0.131570 0.249703
C41   C     C_R   0.547643 0.999861 0.725167 0.088723
C42   C     C_R   0.045904 0.500266 0.723149 0.079259
C43   C     C_R   0.817771 0.000288 0.349254 -0.223887
C44   C     C_R   0.319019 0.499981 0.346728 -0.218202
C45   C     C_R   0.616394 0.183140 0.002738 0.096967
C46   C     C_R   0.615092 0.816484 0.002052 0.168036
C47   C     C_R   0.114144 0.683870 0.002170 0.087323
C48   C     C_R   0.117630 0.317379 0.002321 0.165044
C49   C     C_3   0.010498 0.950699 0.591021 -0.157475
C50   C     C_3   0.002422 0.038880 0.609829 -0.164814
C51   C     C_3   0.502895 0.460097 0.605496 -0.162942
C52   C     C_3   0.510361 0.548760 0.591152 -0.156857
C53   C     C_3   0.932439 0.990886 0.563180 -0.125586
C54   C     C_3   0.432495 0.507717 0.560509 -0.138411
C55   C     C_3   0.911454 0.000465 0.449761 0.113547
C56   C     C_3   0.412649 0.500028 0.447213 0.115383
C57   C     C_3   0.989354 0.960474 0.477606 -0.061429
C58   C     C_3   0.981437 0.048093 0.496198 -0.035877
C59   C     C_3   0.483108 0.452793 0.492064 -0.034920
C60   C     C_3   0.490348 0.540885 0.477812 -0.063306
C61   C     C_3   0.059109 0.007963 0.523976 -0.178206
C62   C     C_3   0.560644 0.493750 0.522664 -0.176930
C63   C     C_3   0.079168 0.998530 0.637536 0.025818
C64   C     C_3   0.579470 0.501278 0.636042 0.026767
H25   H     H_    0.112880 0.014953 0.509144 0.155125
H26   H     H_    0.615123 0.488015 0.508588 0.153427
C65   C     C_3   0.297376 0.798820 0.123490 0.357407
C66   C     C_3   0.303238 0.204388 0.125260 0.302747
C67   C     C_3   0.801245 0.296950 0.125027 0.360044
C68   C     C_3   0.799034 0.702164 0.123858 0.294547
H27   H     H_    0.370737 0.783936 0.182462 0.036667
H28   H     H_    0.376078 0.220583 0.181823 0.058807
H29   H     H_    0.874678 0.281894 0.182538 0.042463
H30   H     H_    0.872133 0.717670 0.182287 0.052409
C69   C     C_3   0.736356 0.254346 0.123202 -0.364333
C70   C     C_3   0.732845 0.743989 0.121694 -0.379096
C71   C     C_3   0.231881 0.756415 0.121294 -0.372828
C72   C     C_3   0.236803 0.245928 0.123036 -0.362007
H31   H     H_    0.784881 0.222626 0.182462 0.151553
H32   H     H_    0.780426 0.775155 0.183509 0.154856
H33   H     H_    0.280163 0.725300 0.182628 0.152167
H34   H     H_    0.284149 0.277510 0.183832 0.147982
C73   C     C_3   0.790882 0.246632 0.967963 0.302169
C74   C     C_3   0.791458 0.753474 0.969793 0.237559
C75   C     C_3   0.290453 0.747222 0.969868 0.292362
C76   C     C_3   0.291942 0.254263 0.967342 0.310671
C77   C     C_3   0.169126 0.819717 0.920967 -0.447041
C78   C     C_3   0.173105 0.181003 0.924822 -0.458094
C79   C     C_3   0.671263 0.319453 0.923906 -0.445347
C80   C     C_3   0.670614 0.680544 0.921943 -0.466323
C81   C     C_3   0.274686 0.803130 0.005961 -0.084534
C82   C     C_3   0.278392 0.198793 0.006808 -0.073428
C83   C     C_3   0.776697 0.302185 0.006683 -0.102894
C84   C     C_3   0.776051 0.697612 0.006232 -0.021941
H35   H     H_    0.154248 0.822700 0.838536 0.181970
H36   H     H_    0.156333 0.176122 0.841686 0.198760
H37   H     H_    0.655011 0.323124 0.840854 0.194908
H38   H     H_    0.655077 0.676877 0.839245 0.188370
C85   C     C_3   0.671648 0.228018 0.005115 -0.098418
C86   C     C_3   0.670263 0.771431 0.004358 -0.024920
C87   C     C_3   0.169336 0.728902 0.004255 -0.094798
C88   C     C_3   0.172988 0.272585 0.005012 -0.073955
C89   C     C_3   0.736711 0.201769 0.978119 0.243399
C90   C     C_3   0.737340 0.798092 0.980877 0.209889
C91   C     C_3   0.236464 0.702439 0.980604 0.250465
C92   C     C_3   0.238946 0.299071 0.979488 0.217747
C93   C     C_3   0.608055 0.273707 0.919095 0.328598
C94   C     C_3   0.607129 0.726349 0.916002 0.292880
C95   C     C_3   0.105906 0.773867 0.915964 0.321073
C96   C     C_3   0.109673 0.227025 0.918120 0.318999
H39   H     H_    0.058590 0.789774 0.935096 0.228373
H40   H     H_    0.062164 0.211200 0.936971 0.239659
H41   H     H_    0.562149 0.289431 0.940443 0.230598
H42   H     H_    0.559292 0.710116 0.934017 0.239510
H43   H     H_    0.759232 0.249573 0.878867 0.161100
H44   H     H_    0.760290 0.751227 0.880753 0.160378
H45   H     H_    0.259669 0.749406 0.880930 0.149477
H46   H     H_    0.258945 0.251227 0.877883 0.158100
H47   H     H_    0.693564 0.180301 0.897052 0.049357
H48   H     H_    0.695063 0.820823 0.901340 0.069471
H49   H     H_    0.194816 0.680007 0.900539 0.057605
H50   H     H_    0.196631 0.321439 0.899484 0.055031
C97   C     C_3   0.648220 0.029531 0.662131 0.351054
C98   C     C_3   0.558913 0.937355 0.597374 0.357818
C99   C     C_3   0.063243 0.562756 0.600121 0.384949
C100  C     C_3   0.145553 0.468613 0.660328 0.393583
C101  C     C_3   0.637749 0.036367 0.551480 -0.514118
C102  C     C_3   0.575539 0.939925 0.508005 -0.511701
C103  C     C_3   0.082596 0.559646 0.513100 -0.452516
C104  C     C_3   0.136116 0.462038 0.550780 -0.467314
H51   H     H_    0.705159 0.028869 0.563963 0.205883
H52   H     H_    0.648099 0.927052 0.541137 0.223477
H53   H     H_    0.157259 0.569565 0.550320 0.247447
H54   H     H_    0.204562 0.469060 0.565460 0.206772
H55   H     H_    0.618333 0.078571 0.519758 0.217497
H56   H     H_    0.528516 0.910145 0.442391 0.161392
H57   H     H_    0.040525 0.591342 0.450125 0.143383
H58   H     H_    0.114939 0.420167 0.517401 0.207128
H59   H     H_    0.442730 0.057391 0.379117 0.173297
H60   H     H_    0.407153 0.989327 0.370511 0.237331
H61   H     H_    0.909550 0.513892 0.369293 0.241004
H62   H     H_    0.941089 0.445162 0.376263 0.164668
C105  C     C_3   0.465893 0.028826 0.530075 0.811737
C106  C     C_3   0.963251 0.473732 0.526469 0.777459
C107  C     C_3   0.555851 0.998804 0.632122 0.003915
C108  C     C_3   0.054923 0.501395 0.630875 -0.007909
C109  C     C_3   0.559086 0.998362 0.461313 0.177157
C110  C     C_3   0.061021 0.501792 0.462269 0.100568
C111  C     C_3   0.462756 0.019011 0.427212 -0.570030
C112  C     C_3   0.962931 0.483214 0.425755 -0.433548
O1    O     O_3   0.281712 0.168340 0.810984 -0.775360
H63   H     H_    0.306388 0.154144 0.771154 0.326385
O2    O     O_3   0.280861 0.831653 0.811642 -0.775145
H64   H     H_    0.307485 0.844356 0.772997 0.325252
O3    O     O_3   0.781709 0.668579 0.811710 -0.776007
H65   H     H_    0.807882 0.655458 0.772826 0.324229
O4    O     O_3   0.780427 0.332045 0.810929 -0.774723
H66   H     H_    0.805816 0.345583 0.771439 0.326334
C113  C     C_2   0.023742 0.897277 0.645960 0.495879
H67   H     H_    0.029651 0.896226 0.721507 0.019708
O5    O     O_2   0.026359 0.855056 0.605525 -0.570569
C114  C     C_2   0.009103 0.079817 0.687459 0.451998
H68   H     H_    0.022226 0.066112 0.763669 0.036139
O6    O     O_2   0.998331 0.128074 0.664995 -0.562800
C115  C     C_2   0.509049 0.417760 0.680540 0.445485
H69   H     H_    0.519316 0.430297 0.755779 0.037914
O7    O     O_2   0.500929 0.369693 0.656961 -0.564123
C116  C     C_2   0.523066 0.601202 0.648868 0.500576
H70   H     H_    0.529574 0.600702 0.724843 0.009440
O8    O     O_2   0.524742 0.644345 0.610320 -0.570383
C117  C     C_2   0.991309 0.918663 0.406552 0.608042
H71   H     H_    0.047743 0.889176 0.443855 0.047322
O9    O     O_2   0.931733 0.918328 0.307105 -0.538010
C118  C     C_2   0.973544 0.101132 0.442400 0.566898
H72   H     H_    0.983746 0.139164 0.484408 0.077776
O10   O     O_2   0.956771 0.101690 0.351386 -0.532796
C119  C     C_2   0.475526 0.400769 0.435517 0.567922
H73   H     H_    0.484371 0.362041 0.474680 0.075988
O11   O     O_2   0.460182 0.401834 0.345281 -0.529855
C120  C     C_2   0.492470 0.584060 0.409097 0.611340
H74   H     H_    0.548382 0.613958 0.448197 0.045819
O12   O     O_2   0.433611 0.585074 0.309518 -0.537919
O13   O     O_3   0.290737 0.849998 0.160360 -0.710388
H75   H     H_    0.329136 0.848300 0.241930 0.333691
O14   O     O_3   0.299591 0.153446 0.165513 -0.751582
H76   H     H_    0.344390 0.154744 0.247049 0.301787
O15   O     O_3   0.795488 0.347750 0.163893 -0.720100
H77   H     H_    0.835148 0.345600 0.245491 0.313704
O16   O     O_3   0.793256 0.650868 0.161234 -0.733334
H78   H     H_    0.837429 0.651204 0.242861 0.328398
C121  C     C_2   0.177198 0.777212 0.163101 0.640751
H79   H     H_    0.183602 0.756324 0.230606 -0.016029
O17   O     O_2   0.125995 0.816796 0.122873 -0.478389
C122  C     C_2   0.185109 0.223242 0.167580 0.656867
H80   H     H_    0.225331 0.204984 0.248820 0.026830
O18   O     O_2   0.100131 0.226619 0.116835 -0.549525
C123  C     C_2   0.684336 0.274464 0.168934 0.620659
H81   H     H_    0.694814 0.253940 0.239102 -0.010824
O19   O     O_2   0.631394 0.313332 0.129530 -0.477557
C124  C     C_2   0.679913 0.721300 0.164589 0.646212
H82   H     H_    0.719204 0.702449 0.245254 0.054709
O20   O     O_2   0.594942 0.725275 0.113129 -0.550860
O21   O     O_3   0.886018 0.233102 0.020142 -0.629154
H83   H     H_    0.918329 0.232019 0.100652 0.365673
O22   O     O_3   0.886944 0.766714 0.023273 -0.684598
H84   H     H_    0.918584 0.767662 0.103652 0.351232
O23   O     O_3   0.385975 0.734106 0.023729 -0.628966
H85   H     H_    0.417648 0.733958 0.104138 0.363423
O24   O     O_3   0.386827 0.267838 0.017597 -0.658200
H86   H     H_    0.420663 0.268228 0.098409 0.356700
O25   O     O_3   0.799345 0.164088 0.059944 -0.680057
H87   H     H_    0.771270 0.127378 0.033914 0.344220
O26   O     O_3   0.799013 0.835089 0.065086 -0.694020
H88   H     H_    0.819780 0.861305 0.033470 0.380844
O27   O     O_3   0.299362 0.665799 0.064863 -0.673836
H89   H     H_    0.273065 0.628675 0.039725 0.358889
O28   O     O_3   0.302569 0.335740 0.063295 -0.680201
H90   H     H_    0.275166 0.372690 0.039506 0.343207
C125  C     C_2   0.147454 0.876322 0.940905 0.766272
H91   H     H_    0.191026 0.910212 0.950555 -0.031618
O29   O     O_2   0.080738 0.885375 0.943114 -0.527566
C126  C     C_2   0.154170 0.125197 0.951128 0.786906
H92   H     H_    0.189033 0.090088 0.946935 -0.051165
O30   O     O_2   0.100932 0.118388 0.976612 -0.539016
C127  C     C_2   0.651478 0.375878 0.946774 0.813232
H93   H     H_    0.692745 0.409994 0.951792 -0.055172
O31   O     O_2   0.589201 0.384511 0.957256 -0.524960
C128  C     C_2   0.649971 0.624210 0.944325 0.748902
H94   H     H_    0.684626 0.589343 0.938983 -0.039508
O32   O     O_2   0.595345 0.616720 0.967550 -0.529292
O33   O     O_3   0.546191 0.254377 0.810440 -0.721757
H95   H     H_    0.583352 0.241941 0.784547 0.326511
O34   O     O_3   0.547753 0.746535 0.807766 -0.745259
H96   H     H_    0.586723 0.759106 0.784414 0.316749
O35   O     O_3   0.045903 0.753629 0.807794 -0.746366
H97   H     H_    0.084472 0.740799 0.784075 0.314755
O36   O     O_3   0.049776 0.246541 0.809401 -0.719992
H98   H     H_    0.088337 0.258632 0.785183 0.327601
C129  C     C_2   0.665199 0.084133 0.719074 0.675258
H99   H     H_    0.685340 0.084683 0.802470 -0.014279
O37   O     O_2   0.661040 0.127384 0.676698 -0.576709
C130  C     C_2   0.469855 0.903356 0.553169 0.482461
H100  H     H_    0.471589 0.870536 0.602309 0.024213
O38   O     O_2   0.397360 0.909750 0.461004 -0.560020
C131  C     C_2   0.976263 0.598838 0.555062 0.436176
H101  H     H_    0.978486 0.631161 0.605419 0.030782
O39   O     O_2   0.905321 0.594875 0.460869 -0.550306
C132  C     C_2   0.159600 0.413858 0.716137 0.517619
H102  H     H_    0.183375 0.413376 0.801025 0.019629
O40   O     O_2   0.148515 0.370489 0.670478 -0.558675
O41   O     O_3   0.728835 0.998832 0.739996 -0.700677
H103  H     H_    0.748907 0.976071 0.703196 0.364288
O42   O     O_3   0.634928 0.909552 0.689623 -0.745924
H104  H     H_    0.638558 0.872517 0.666050 0.311646
O43   O     O_3   0.140107 0.588802 0.694852 -0.705381
H105  H     H_    0.147113 0.625700 0.673728 0.310492
O44   O     O_3   0.226691 0.499469 0.735274 -0.676155
H106  H     H_    0.282359 0.479546 0.751178 0.318856
O45   O     O_3   0.472158 0.085342 0.549418 -0.790883
H107  H     H_    0.412131 0.102455 0.489453 0.322663
O46   O     O_3   0.383416 0.009033 0.513587 -0.727038
H108  H     H_    0.328567 0.026060 0.445926 0.332426
O47   O     O_3   0.880414 0.496356 0.504927 -0.722128
H109  H     H_    0.864674 0.476923 0.549635 0.330973
O48   O     O_3   0.963950 0.417069 0.541962 -0.793859
H110  H     H_    0.901579 0.402443 0.481319 0.339681
O49   O     O_3   0.779384 0.901889 0.333707 -0.745450
H111  H     H_    0.837573 0.900981 0.409616 0.342929
O50   O     O_3   0.772438 0.096289 0.341528 -0.769290
H112  H     H_    0.815082 0.092663 0.422607 0.317223
O51   O     O_3   0.274690 0.403672 0.340103 -0.770199
H113  H     H_    0.318882 0.407120 0.421091 0.317594
O52   O     O_3   0.279952 0.598141 0.333227 -0.747027
H114  H     H_    0.337758 0.598847 0.409434 0.341823
C133  C     C_2   0.863150 0.979794 0.587582 0.453116
H115  H     H_    0.884232 0.984355 0.670911 0.036789
O53   O     O_2   0.784076 0.964232 0.515115 -0.610940
C134  C     C_2   0.362286 0.517102 0.584103 0.465930
H116  H     H_    0.383237 0.512641 0.667389 0.033437
O54   O     O_2   0.282428 0.531042 0.510887 -0.605642

loop_
_geom_bond_atom_site_label_1
_geom_bond_atom_site_label_2
_geom_bond_distance
_ccdc_geom_bond_type
C121  O17   1.220059 D    
C67   H29   1.114924 S    
C27   H15   1.070889 S    
C72   H34   1.111722 S    
C37   N29   1.319642 A    
C113  H67   1.081064 S    
C14   N14   1.331676 A    
O52   H114  0.987207 S    
C129  O37   1.221688 D    
O50   H112  0.989770 S    
C18   C81   1.458589 S    
N3    Ni3   1.902592 S    
C80   C84   1.568846 S    
C97   C129  1.525892 S    
C53   C55   1.538649 S    
N16   Ni3   1.887253 S    
C78   C126  1.521375 S    
O23   H85   0.989780 S    
C42   C108  1.491971 S    
N32   Ni3   1.907829 S    
C103  H57   1.108400 S    
C120  H74   1.084358 S    
C72   C122  1.525408 S    
C44   C56   1.437479 S    
C7    H3    1.078748 S    
C78   C82   1.568479 S    
C106  C112  1.533521 S    
C91   O27   1.411835 S    
C77   C81   1.569154 S    
C60   C120  1.500637 S    
C71   H33   1.112276 S    
H62   C112  1.114321 S    
C95   H39   1.106181 S    
C5    C18   1.376392 A    
C7    C20   1.375139 A    
C8    C19   1.375905 A    
C33   N25   1.312745 A    
C87   C91   1.569809 S    
C118  O10   1.220617 D    
C88   C96   1.577688 S    
C51   C59   1.540114 S    
C39   H23   1.076770 S    
O45   H107  0.992973 S    
C86   C90   1.568815 S    
C92   O28   1.411515 S    
C37   C46   1.377116 A    
C45   C85   1.461057 S    
N14   Ni1   1.887253 S    
C46   C86   1.464605 S    
C134  H116  1.084357 S    
C59   C62   1.536022 S    
N1    N6    1.399498 A    
N30   Ni1   1.907829 S    
O36   H98   0.991103 S    
C9    N9    1.326600 A    
C79   H37   1.110511 S    
C11   N11   1.313128 A    
N15   N16   1.418639 A    
C12   N12   1.326702 A    
C115  H69   1.082366 S    
C106  O48   1.413412 S    
C32   N24   1.319240 A    
C51   C54   1.544943 S    
C8    N8    1.310679 A    
C116  O8    1.219749 D    
C130  H100  1.084685 S    
C28   C42   1.394134 A    
C73   C89   1.527901 S    
C10   C21   1.374637 A    
H61   C112  1.111687 S    
C67   C69   1.542636 S    
C16   N16   1.324682 A    
C98   C130  1.543044 S    
N2    Ni2   1.902443 S    
C53   C133  1.498793 S    
C123  O19   1.219824 D    
C94   O34   1.408802 S    
C26   C41   1.386783 A    
H59   C111  1.113934 S    
C34   C46   1.375713 A    
N21   Ni5   1.894309 S    
C128  O32   1.221151 D    
C75   C81   1.564853 S    
C23   C63   1.429283 S    
C54   C134  1.498756 S    
C126  O30   1.221209 D    
C76   C92   1.527738 S    
C6    N6    1.308181 A    
C95   O35   1.408542 S    
C52   C54   1.541440 S    
N9    Ni6   1.907380 S    
C102  H56   1.110211 S    
C100  C108  1.605290 S    
N21   N22   1.419129 A    
C54   C56   1.538801 S    
C104  C110  1.551110 S    
O51   H113  0.989409 S    
C73   H43   1.110470 S    
O44   H106  0.994294 S    
C61   C63   1.547074 S    
C33   H17   1.077309 S    
C35   H19   1.076735 S    
C101  C109  1.554766 S    
C122  O18   1.220477 D    
C30   C43   1.384877 A    
C9    C21   1.380836 A    
C30   N22   1.319072 A    
O14   H76   0.993329 S    
N9    N10   1.397952 A    
C75   C91   1.528405 S    
C77   C125  1.522044 S    
C99   C108  1.612477 S    
C123  H81   1.085169 S    
C4    O4    1.375165 S    
C105  O45   1.412398 S    
C132  H102  1.085461 S    
C119  H73   1.083267 S    
N6    Ni6   1.896193 S    
C49   C113  1.497414 S    
N19   Ni3   1.902188 S    
C40   C47   1.377475 A    
C69   H31   1.112553 S    
C97   C107  1.602900 S    
C124  H82   1.085116 S    
C39   N31   1.317698 A    
C28   N20   1.321168 A    
C47   C87   1.464871 S    
C15   N15   1.331150 A    
C99   C131  1.543215 S    
C16   C24   1.368422 A    
C22   C110  1.464619 S    
O26   H88   0.993140 S    
C52   C116  1.497551 S    
C21   C109  1.464253 S    
C66   O14   1.411541 S    
C55   C57   1.536516 S    
C12   C22   1.381203 A    
N4    N7    1.399513 A    
C80   C94   1.556699 S    
C8    H4    1.078824 S    
C6    H2    1.078856 S    
O2    H64   0.992168 S    
C106  O47   1.414243 S    
C51   C64   1.527765 S    
N28   N31   1.384993 A    
C77   H35   1.110262 S    
C57   C61   1.534400 S    
O4    H66   0.992127 S    
C61   H25   1.111881 S    
C72   C88   1.579380 S    
N11   N12   1.397952 A    
C66   H28   1.115363 S    
C6    C17   1.374391 A    
C127  H93   1.085319 S    
C17   C82   1.453889 S    
C49   C53   1.541699 S    
C32   O52   1.376259 S    
C3    O3    1.375226 S    
C68   C84   1.571746 S    
N1    Ni1   1.902592 S    
C88   C92   1.570368 S    
C69   C123  1.523170 S    
C34   H18   1.077646 S    
C86   C94   1.577914 S    
C59   C119  1.499887 S    
C60   C62   1.534975 S    
C94   H42   1.105280 S    
N2    N5    1.399513 A    
N23   Ni7   1.894308 S    
C62   C64   1.547359 S    
C10   N10   1.312888 A    
C109  C111  1.545797 S    
C74   O22   1.412487 S    
C80   H38   1.110437 S    
C36   H20   1.078192 S    
C68   O16   1.411256 S    
C98   O42   1.413355 S    
O21   H83   0.989769 S    
C113  O5    1.219766 D    
C70   C86   1.579312 S    
C71   C87   1.575981 S    
C98   C102  1.541687 S    
N11   Ni8   1.907380 S    
C58   C61   1.536008 S    
C69   C85   1.576635 S    
C122  H80   1.085083 S    
N4    Ni4   1.902443 S    
N23   N24   1.419129 A    
N25   N30   1.385008 A    
C1    C17   1.387818 A    
C104  H54   1.107728 S    
N27   N32   1.385008 A    
C3    C19   1.388086 A    
C66   C82   1.572659 S    
C120  O12   1.219741 D    
C67   C83   1.572511 S    
N17   N18   1.397952 A    
C101  H51   1.107133 S    
C50   C53   1.545926 S    
C100  C132  1.529951 S    
N19   N20   1.397952 A    
C99   C103  1.542006 S    
C31   O51   1.375263 S    
C114  H68   1.083052 S    
C70   C124  1.524632 S    
C125  H91   1.085243 S    
C105  C107  1.596177 S    
C93   H41   1.105889 S    
C29   C43   1.386704 A    
C40   N32   1.319524 A    
N13   N14   1.418639 A    
O25   H87   0.992996 S    
C36   N28   1.312665 A    
C24   C64   1.428294 S    
O15   H77   0.993346 S    
C76   H46   1.110673 S    
C7    N7    1.308891 A    
C1    N1    1.321356 A    
C102  H52   1.112817 S    
C3    N3    1.322495 A    
C4    C20   1.388774 A    
C5    H1    1.078668 S    
C134  O54   1.218798 D    
C31   C44   1.386504 A    
C62   H26   1.111847 S    
C104  H58   1.110132 S    
C41   C107  1.494104 S    
O34   H96   0.991200 S    
C9    H5    1.080704 S    
C79   C127  1.521415 S    
C130  O38   1.220684 D    
C117  H71   1.084360 S    
C97   O41   1.414805 S    
C85   C93   1.577077 S    
C67   O15   1.410256 S    
C29   O49   1.376232 S    
C56   C59   1.538410 S    
O41   H103  0.990795 S    
C74   H44   1.110494 S    
N26   N29   1.384993 A    
O22   H84   0.989727 S    
C75   H45   1.110578 S    
C34   N26   1.315749 A    
C43   C55   1.438109 S    
C90   O26   1.410602 S    
C27   C42   1.386392 A    
C12   H8    1.080615 S    
C38   C45   1.378756 A    
N15   Ni4   1.888638 S    
O3    H65   0.992137 S    
C25   H13   1.077357 S    
N31   Ni4   1.909264 S    
C11   C22   1.374638 A    
C26   N18   1.317668 A    
C13   H9    1.070767 S    
C28   H16   1.077293 S    
C15   H11   1.072946 S    
O35   H97   0.991238 S    
C50   C114  1.495291 S    
C98   C107  1.612402 S    
C133  H115  1.084318 S    
C48   C88   1.459800 S    
C92   H50   1.118168 S    
C14   C23   1.375916 A    
C96   O36   1.408863 S    
C65   O13   1.409917 S    
C49   C63   1.530679 S    
C110  C112  1.546023 S    
C38   H22   1.076745 S    
C74   C90   1.530301 S    
O33   H95   0.991278 S    
C118  H72   1.083883 S    
C37   H21   1.076994 S    
C52   C60   1.538736 S    
N17   Ni1   1.902188 S    
C70   H32   1.111622 S    
C103  C110  1.553885 S    
N22   Ni6   1.895706 S    
C33   C45   1.375694 A    
C77   C95   1.558572 S    
C39   C48   1.377876 A    
C93   O33   1.408559 S    
C13   C23   1.368037 A    
N24   Ni8   1.895707 S    
C20   C83   1.455575 S    
C35   C47   1.376344 A    
C13   N13   1.324698 A    
C65   C81   1.572124 S    
O27   H89   0.992974 S    
O47   H109  0.991718 S    
C115  O7    1.219305 D    
O49   H111  0.987262 S    
C50   C63   1.527845 S    
C35   N27   1.316000 A    
O16   H78   0.993279 S    
C29   N21   1.319768 A    
N10   Ni5   1.907506 S    
C80   C128  1.522060 S    
C116  H70   1.081718 S    
C132  O40   1.221568 D    
C31   N23   1.318817 A    
O1    H63   0.992092 S    
C79   C83   1.568623 S    
O46   H108  0.993068 S    
C96   H40   1.105264 S    
O43   H105  0.994449 S    
N20   Ni4   1.902065 S    
C124  O20   1.220413 D    
N3    N8    1.399498 A    
C10   H6    1.079257 S    
C15   C24   1.375462 A    
C100  O44   1.411113 S    
C78   H36   1.110757 S    
C105  O46   1.413240 S    
C125  O29   1.220838 D    
O48   H110  0.993685 S    
C76   O24   1.412621 S    
C4    N4    1.321637 A    
C58   C118  1.499860 S    
C131  H101  1.084408 S    
C2    C18   1.388592 A    
C128  H94   1.085493 S    
C101  H55   1.110195 S    
C65   H27   1.114787 S    
C68   C70   1.545460 S    
C126  H92   1.085489 S    
C87   C95   1.577911 S    
C105  C111  1.538166 S    
C30   O50   1.375253 S    
N5    Ni5   1.894770 S    
C38   N30   1.318055 A    
N18   Ni2   1.902065 S    
N7    Ni7   1.894770 S    
C89   H47   1.118250 S    
C129  H99   1.085456 S    
C57   C117  1.500867 S    
C1    O1    1.375225 S    
C2    O2    1.375235 S    
C11   H7    1.078616 S    
C97   C101  1.575291 S    
C78   C96   1.555714 S    
C76   C82   1.563937 S    
C117  O9    1.219708 D    
C2    N2    1.322607 A    
C25   N17   1.321432 A    
N25   Ni6   1.896080 S    
C66   C72   1.543660 S    
N12   Ni7   1.907506 S    
N27   Ni8   1.896080 S    
C71   C121  1.522623 S    
C40   H24   1.076817 S    
C16   H12   1.071245 S    
C75   O23   1.412095 S    
C73   O21   1.412176 S    
C89   O25   1.411767 S    
C99   O43   1.413650 S    
C90   H48   1.117796 S    
O28   H90   0.992956 S    
H60   C111  1.111439 S    
C27   N19   1.316921 A    
C119  O11   1.220204 D    
C85   C89   1.569681 S    
C102  C109  1.552017 S    
C25   C41   1.393468 A    
C36   C48   1.375270 A    
C79   C93   1.557670 S    
O24   H86   0.989728 S    
C49   C57   1.538187 S    
C74   C84   1.563737 S    
C5    N5    1.311353 A    
C133  O53   1.219012 D    
C114  O6    1.219291 D    
C121  H79   1.085134 S    
C73   C83   1.564733 S    
C26   H14   1.071456 S    
C55   C58   1.539123 S    
C14   H10   1.073194 S    
C65   C71   1.544832 S    
C68   H30   1.115221 S    
O13   H75   0.993319 S    
N8    Ni8   1.896193 S    
C91   H49   1.118580 S    
C131  O39   1.220777 D    
C103  H53   1.113714 S    
C127  O31   1.220806 D    
N26   Ni5   1.896217 S    
O42   H104  0.994438 S    
C51   C115  1.494672 S    
C100  C104  1.567427 S    
C50   C58   1.540419 S    
C106  C108  1.595679 S    
C52   C64   1.530025 S    
N28   Ni7   1.896217 S    
N13   Ni2   1.888638 S    
C32   C44   1.386947 A    
N29   Ni2   1.909264 S    
C56   C60   1.536466 S    
C19   C84   1.457421 S    
