data_mof_unit_18690.cif
_audit_creation_date              2012-12-10T18:54:21-0500
_audit_creation_method            fapswitch 2.2
_symmetry_space_group_name_H-M    P1
_symmetry_Int_Tables_number       1
_space_group_crystal_system       triclinic
_cell_length_a                    10.541669
_cell_length_b                    10.024097
_cell_length_c                    23.423867
_cell_angle_alpha                 90.926867
_cell_angle_beta                  92.898439
_cell_angle_gamma                 90.10648
_cell_volume                      2471.71793231

loop_
_atom_site_label
_atom_site_type_symbol
_atom_type_description
_atom_site_fract_x
_atom_site_fract_y
_atom_site_fract_z
_atom_type_partial_charge
C1    C     C_R   0.260831 0.499900 0.499866 0.864879
C2    C     C_R   0.739168 0.500100 0.500130 0.864945
C3    C     C_R   0.550812 0.620334 0.241123 0.439045
C4    C     C_R   0.449982 0.380192 0.759062 0.439184
C5    C     C_R   0.549562 0.616796 0.300427 -0.293999
C6    C     C_R   0.451363 0.383288 0.699748 -0.293824
C7    C     C_R   0.512299 0.500095 0.327565 -0.095500
C8    C     C_R   0.487557 0.500155 0.672444 -0.095695
C9    C     C_R   0.483974 0.385084 0.294834 -0.216903
C10   C     C_R   0.514446 0.615760 0.705007 -0.217159
C11   C     C_R   0.484218 0.388235 0.235764 -0.179942
C12   C     C_R   0.514109 0.613059 0.764077 -0.179944
C13   C     C_R   0.515625 0.506051 0.208854 0.250929
C14   C     C_R   0.483960 0.495092 0.791169 0.250227
C15   C     C_R   0.059195 0.500993 0.447849 -0.167570
C16   C     C_R   0.940805 0.499003 0.552145 -0.167505
C17   C     C_R   0.928813 0.501437 0.447786 -0.244861
C18   C     C_R   0.071187 0.498566 0.552208 -0.244897
C19   C     C_R   0.871630 0.500255 0.499993 0.016352
C20   C     C_R   0.128370 0.499746 0.500002 0.016366
C21   C     C_R   0.592062 0.073353 0.530358 -0.015945
C22   C     C_R   0.407963 0.926633 0.469627 -0.015957
C23   C     C_R   0.407030 0.069758 0.470196 -0.017164
C24   C     C_R   0.592973 0.930231 0.529801 -0.017270
C25   C     C_R   0.503200 0.499460 0.389640 0.882719
C26   C     C_R   0.496757 0.500565 0.610363 0.882826
C27   C     C_R   0.592209 0.441873 0.880536 0.548367
C28   C     C_R   0.407618 0.560011 0.119527 0.548135
C29   C     C_R   0.389890 0.549021 0.879477 0.534347
C30   C     C_R   0.609975 0.452923 0.120546 0.535535
C31   C     C_R   0.391751 0.550458 0.938998 -0.025218
C32   C     C_R   0.608247 0.451861 0.061032 -0.025135
C33   C     C_R   0.498824 0.500262 0.969928 -0.024574
C34   C     C_R   0.501174 0.502110 0.030112 -0.024733
C35   C     C_R   0.603568 0.449192 0.940731 -0.071408
C36   C     C_R   0.396455 0.553252 0.059316 -0.071013
C37   C     C_R   0.287858 0.599071 0.967700 -0.215182
C38   C     C_R   0.712335 0.403716 0.032330 -0.215329
C39   C     C_R   0.286828 0.597463 0.027183 0.001957
C40   C     C_R   0.713442 0.405581 0.972849 0.002942
H1    H     H_    0.204433 0.634732 0.943708 0.177909
H2    H     H_    0.795894 0.368414 0.056330 0.177324
H3    H     H_    0.578731 0.704715 0.325105 0.179816
H4    H     H_    0.423027 0.294936 0.675195 0.179726
H5    H     H_    0.460670 0.293339 0.314604 0.167635
H6    H     H_    0.536593 0.707690 0.685104 0.167854
H7    H     H_    0.459252 0.299399 0.210713 0.161592
H8    H     H_    0.538034 0.702381 0.788990 0.162285
H9    H     H_    0.106197 0.500871 0.407750 0.148909
H10   H     H_    0.893803 0.499105 0.592244 0.148920
H11   H     H_    0.872911 0.502259 0.407656 0.136133
H12   H     H_    0.127088 0.497742 0.592338 0.136079
N1    N     N_R   0.488078 0.493756 0.851943 -0.335148
N2    N     N_R   0.511652 0.507859 0.148093 -0.335202
N3    N     N_R   0.500000 0.857200 0.500000 -0.122536
N4    N     N_R   0.500000 0.142800 0.500000 -0.122504
O1    O     O_R   0.316770 0.614620 0.500000 -0.613526
O2    O     O_R   0.683230 0.385380 0.500000 -0.613502
O3    O     O_R   0.683230 0.614620 0.500000 -0.616335
O4    O     O_R   0.316770 0.385380 0.500000 -0.616378
O5    O     O_R   0.499970 0.614690 0.416160 -0.623775
O6    O     O_R   0.500030 0.385310 0.583840 -0.623653
O7    O     O_R   0.500030 0.614690 0.583840 -0.615628
O8    O     O_R   0.499970 0.385310 0.416160 -0.615442
O9    O     O_2   0.682242 0.381718 0.850403 -0.544332
O10   O     O_2   0.317461 0.619781 0.149713 -0.544992
O11   O     O_2   0.290595 0.601661 0.849004 -0.582958
O12   O     O_2   0.709253 0.400190 0.151003 -0.582199
Zn1   Zn    Zn3+2 0.500000 0.653120 0.500000 0.951929
Zn2   Zn    Zn3+2 0.500000 0.346880 0.500000 0.952049
C41   C     C_R   0.165417 0.632699 0.052828 0.188388
C42   C     C_R   0.113086 0.760515 0.045653 -0.143469
C43   C     C_R   0.996275 0.791717 0.068276 -0.140315
C44   C     C_R   0.931102 0.695720 0.098117 -0.076902
C45   C     C_R   0.982343 0.568217 0.105067 -0.139298
C46   C     C_R   0.097993 0.535927 0.081788 -0.094120
H13   H     H_    0.162773 0.835701 0.022635 0.135125
H14   H     H_    0.956387 0.890364 0.062733 0.141944
H15   H     H_    0.840946 0.720021 0.115818 0.180422
H16   H     H_    0.932613 0.494211 0.128489 0.186458
H17   H     H_    0.135724 0.436107 0.086754 0.125742
C47   C     C_R   0.835274 0.371929 0.947198 0.188473
C48   C     C_R   0.900870 0.469276 0.917741 -0.094388
C49   C     C_R   0.016891 0.438646 0.894459 -0.139549
C50   C     C_R   0.070410 0.312321 0.901926 -0.076207
C51   C     C_R   0.007106 0.215808 0.932272 -0.140378
C52   C     C_R   0.889888 0.245298 0.954881 -0.144825
H18   H     H_    0.861425 0.568264 0.912391 0.125665
H19   H     H_    0.065146 0.513079 0.870660 0.186606
H20   H     H_    0.160883 0.289339 0.884241 0.180217
H21   H     H_    0.048758 0.118082 0.938216 0.142354
H22   H     H_    0.841678 0.169702 0.978283 0.134968
Cl1   Cl    Cl    0.596955 0.767813 0.208086 -0.633986
Cl2   Cl    Cl    0.405071 0.232528 0.792305 -0.633152
C53   C     C_R   0.690220 0.145188 0.566269 0.186629
C54   C     C_R   0.814073 0.156540 0.547488 -0.123000
C55   C     C_R   0.913168 0.199589 0.585261 -0.140180
C56   C     C_R   0.888927 0.234346 0.641683 -0.128526
C57   C     C_R   0.765995 0.223009 0.660745 -0.135410
C58   C     C_R   0.667661 0.175806 0.623495 -0.120382
H23   H     H_    0.834127 0.127122 0.504244 0.107083
H24   H     H_    0.008725 0.206338 0.570791 0.138416
H25   H     H_    0.965603 0.268850 0.670719 0.150939
H26   H     H_    0.747555 0.247225 0.704755 0.177058
H27   H     H_    0.575043 0.157879 0.639631 0.132163
C59   C     C_R   0.309871 0.854767 0.433683 0.186526
C60   C     C_R   0.332599 0.823952 0.376488 -0.120142
C61   C     C_R   0.234348 0.776683 0.339207 -0.135527
C62   C     C_R   0.111345 0.765459 0.358201 -0.128466
C63   C     C_R   0.086948 0.800372 0.414590 -0.140079
C64   C     C_R   0.185952 0.843489 0.452398 -0.122979
H28   H     H_    0.425308 0.841678 0.360401 0.132594
H29   H     H_    0.252914 0.752300 0.295227 0.177111
H30   H     H_    0.034739 0.730902 0.329139 0.151134
H31   H     H_    0.991340 0.793692 0.429009 0.138442
H32   H     H_    0.165773 0.873004 0.495617 0.107055
C65   C     C_R   0.303876 0.136707 0.436881 0.196478
C66   C     C_R   0.185972 0.157186 0.460939 -0.124017
C67   C     C_R   0.080196 0.193944 0.426416 -0.148332
C68   C     C_R   0.091311 0.211073 0.367812 -0.112277
C69   C     C_R   0.207489 0.187579 0.343401 -0.138124
C70   C     C_R   0.312491 0.147648 0.377716 -0.150597
H33   H     H_    0.175583 0.140873 0.506037 0.111340
H34   H     H_    0.989640 0.209529 0.445050 0.142398
H35   H     H_    0.009426 0.240340 0.341236 0.144010
H36   H     H_    0.215193 0.196202 0.297710 0.145432
H37   H     H_    0.398698 0.117040 0.358129 0.117410
C71   C     C_R   0.696119 0.863250 0.563115 0.196296
C72   C     C_R   0.687429 0.852118 0.622268 -0.149803
C73   C     C_R   0.792367 0.812035 0.656584 -0.137732
C74   C     C_R   0.908588 0.788652 0.632193 -0.112775
C75   C     C_R   0.919790 0.806000 0.573607 -0.148117
C76   C     C_R   0.814054 0.842843 0.539076 -0.124008
H38   H     H_    0.601246 0.882784 0.641847 0.116906
H39   H     H_    0.784595 0.803254 0.702265 0.145528
H40   H     H_    0.990441 0.759303 0.658773 0.143948
H41   H     H_    0.010380 0.790506 0.554988 0.142395
H42   H     H_    0.824502 0.859282 0.493991 0.111332

loop_
_geom_bond_atom_site_label_1
_geom_bond_atom_site_label_2
_ccdc_geom_bond_type
C38   C40   A    
C9    H5    S    
C8    C26   S    
C60   H28   S    
C11   H7    S    
C53   C54   A    
C26   O7    A    
C45   C46   A    
C71   C72   A    
C17   H11   S    
C55   C56   A    
C18   H12   S    
C23   N4    A    
C50   C51   A    
C24   N3    A    
C30   N2    A    
C58   H27   S    
C48   C49   A    
C16   H10   S    
C72   C73   A    
C51   H21   S    
C41   C46   A    
C59   C60   A    
C56   H25   S    
C61   C62   A    
O6    Zn2   S    
C15   C17   A    
C43   C44   A    
C70   H37   S    
C63   C64   A    
C17   C19   A    
C29   O11   S    
C73   H39   S    
C75   C76   A    
C10   H6    S    
C60   C61   A    
C31   C33   A    
C64   H32   S    
O8    Zn2   S    
C45   H16   S    
C18   C20   A    
C55   H24   S    
C3    C13   A    
C12   H8    S    
C48   H18   S    
C5    H3    S    
C76   H42   S    
C67   H34   S    
C54   H23   S    
C66   C67   A    
C29   C31   A    
C59   C64   A    
C15   C20   A    
C44   C45   A    
O7    Zn1   S    
C49   C50   A    
C53   C58   A    
C4    C6    A    
C74   H40   S    
C1    O4    A    
C5    C7    A    
C28   N2    A    
C51   C52   A    
O2    Zn2   S    
C6    C8    A    
C21   C53   S    
C27   C35   A    
C75   H41   S    
C22   C59   S    
C31   C37   A    
C25   O8    A    
C32   C34   A    
C61   H29   S    
C28   O10   S    
C65   C70   A    
C42   H13   S    
C27   O9    S    
C1    O1    A    
C40   C47   S    
C57   C58   A    
O4    Zn2   S    
C43   H14   S    
C54   C55   A    
C27   N1    A    
C33   C34   A    
C3    Cl1   S    
C25   O5    A    
C67   C68   A    
C9    C11   A    
C69   C70   A    
N3    Zn1   S    
C10   C12   A    
C62   H30   S    
O3    Zn1   S    
C4    Cl2   S    
C16   C18   A    
C12   C14   A    
C47   C48   A    
C32   C38   A    
C44   H15   S    
C49   H19   S    
C74   C75   A    
C52   H22   S    
C68   C69   A    
C13   N2    S    
O5    Zn1   S    
C7    C9    A    
C1    C20   S    
C57   H26   S    
C2    C19   S    
C2    O3    A    
C36   C39   A    
C42   C43   A    
C3    C5    A    
C46   H17   S    
C23   C65   S    
C21   N4    A    
C50   H20   S    
C2    O2    A    
C38   H2    S    
C22   N3    A    
N4    Zn2   S    
C7    C25   S    
C35   C40   A    
C26   O6    A    
C41   C42   A    
C37   C39   A    
C4    C14   A    
C71   C76   A    
C30   C32   A    
C11   C13   A    
C29   N1    A    
C16   C19   A    
C33   C35   A    
C73   C74   A    
C34   C36   A    
C66   H33   S    
C15   H9    S    
C68   H35   S    
C37   H1    S    
C72   H38   S    
C69   H36   S    
C14   N1    S    
C28   C36   A    
C8    C10   A    
C56   C57   A    
C21   C24   A    
C62   C63   A    
C24   C71   S    
C39   C41   S    
C22   C23   A    
C6    H4    S    
O1    Zn1   S    
C65   C66   A    
C63   H31   S    
C30   O12   S    
C47   C52   A    
