data_mof_unit_9632.cif
_audit_creation_date              2012-12-11T15:48:40-0500
_audit_creation_method            fapswitch 2.2
_symmetry_space_group_name_H-M    P1
_symmetry_Int_Tables_number       1
_space_group_crystal_system       triclinic
_cell_length_a                    10.951446
_cell_length_b                    10.96438
_cell_length_c                    18.818176
_cell_angle_alpha                 90.408333
_cell_angle_beta                  90.173595
_cell_angle_gamma                 60.213861
_cell_volume                      1961.03108182

loop_
_atom_site_label
_atom_site_type_symbol
_atom_type_description
_atom_site_fract_x
_atom_site_fract_y
_atom_site_fract_z
_atom_type_partial_charge
C1    C     C_R   0.239674 0.645502 0.610416 0.539870
C2    C     C_3   0.675361 0.547841 0.799932 -0.252822
C3    C     C_3   0.698140 0.673633 0.812428 0.051705
C4    C     C_3   0.669674 0.647604 0.676540 0.057001
C5    C     C_3   0.812443 0.638928 0.690172 -0.249203
C6    C     C_3   0.662238 0.530560 0.719759 -0.212288
C7    C     C_R   0.682389 0.151532 0.822172 0.016571
C8    C     C_R   0.778138 0.175854 0.784922 -0.007155
C9    C     C_R   0.772271 0.185105 0.710928 0.013258
C10   C     C_R   0.579399 0.139307 0.709509 -0.180623
C11   C     C_R   0.575889 0.145115 0.782608 -0.170117
C12   C     C_R   0.653541 0.621834 0.601140 0.538349
C13   C     C_3   0.933935 0.096472 0.786232 -0.272917
C14   C     C_3   0.929017 0.104207 0.705751 -0.281564
C15   C     C_R   0.674474 0.164176 0.672118 0.015491
C16   C     C_R   0.180319 0.667774 0.834959 0.013860
C17   C     C_R   0.154451 0.575920 0.794113 0.019260
C18   C     C_R   0.163210 0.573386 0.720396 -0.004766
C19   C     C_R   0.211805 0.764216 0.725672 -0.171650
C20   C     C_R   0.211777 0.760720 0.799516 -0.178877
C21   C     C_3   0.228703 0.419565 0.797717 -0.283418
C22   C     C_3   0.236042 0.417433 0.717297 -0.271390
C23   C     C_R   0.630213 0.225717 0.601885 0.535214
C24   C     C_R   0.194657 0.665575 0.684733 0.012797
C25   C     C_R   0.651929 0.677047 0.168555 0.016247
C26   C     C_R   0.700871 0.544905 0.198717 0.015161
C27   C     C_R   0.701322 0.531129 0.271346 0.047945
C28   C     C_R   0.589025 0.781393 0.287684 -0.176005
C29   C     C_R   0.588914 0.796338 0.213700 -0.164954
C30   C     C_3   0.837540 0.410172 0.190602 -0.276449
C31   C     C_3   0.839544 0.398144 0.270656 -0.267224
C32   C     C_R   0.652279 0.646891 0.317181 0.038617
C33   C     C_R   0.660113 0.157476 0.175628 0.019515
C34   C     C_R   0.220433 0.650285 0.401949 0.541922
C35   C     C_R   0.528419 0.239598 0.205957 0.007686
C36   C     C_R   0.517084 0.252529 0.278481 0.045482
C37   C     C_R   0.768987 0.115550 0.292593 -0.186150
C38   C     C_R   0.781422 0.101973 0.219315 -0.164505
C39   C     C_3   0.395435 0.233829 0.198613 -0.276610
C40   C     C_3   0.386249 0.241826 0.278902 -0.264367
C41   C     C_R   0.635618 0.186914 0.322516 0.028584
C42   C     C_R   0.146520 0.666947 0.182630 -0.012367
C43   C     C_R   0.231212 0.714962 0.212475 0.004939
C44   C     C_R   0.244067 0.715559 0.284583 0.028876
C45   C     C_R   0.642599 0.622382 0.392155 0.544226
C46   C     C_R   0.099687 0.607432 0.300106 0.042430
C47   C     C_R   0.086447 0.606358 0.226355 -0.118297
C48   C     C_3   0.226938 0.853467 0.205558 -0.270434
C49   C     C_3   0.234731 0.856169 0.285476 -0.262822
C50   C     C_R   0.176652 0.666591 0.329318 0.032558
C51   C     C_R   0.702104 0.099813 0.895238 0.542588
C52   C     C_R   0.722930 0.687868 0.888357 0.543333
C53   C     C_R   0.118935 0.705670 0.905962 0.538757
C54   C     C_R   0.676716 0.105323 0.104224 0.550924
C55   C     C_R   0.696004 0.691269 0.097805 0.549663
C56   C     C_R   0.616324 0.228689 0.395473 0.544285
C57   C     C_R   0.091644 0.709723 0.112681 0.550294
C58   C     C_3   0.568224 0.807718 0.783203 -0.233349
C59   C     C_3   0.551867 0.792750 0.703057 -0.237574
C60   C     C_3   0.830409 0.650550 0.770430 -0.216189
Cr1   Cr    Cr6+3 0.392960 0.397920 0.502240 0.999666
Cr2   Cr    Cr6+3 0.398340 0.708480 0.501250 1.001687
Cr3   Cr    Cr6+3 0.708670 0.393570 0.496460 1.007187
Cr4   Cr    Cr6+3 0.937650 0.938540 0.007610 1.001624
Cr5   Cr    Cr6+3 0.625330 0.937370 0.994520 1.000663
Cr6   Cr    Cr6+3 0.937940 0.625230 0.001190 1.003249
H1    H     H_    0.582423 0.899492 0.792352 0.143545
H2    H     H_    0.750820 0.427298 0.703164 0.148408
H3    H     H_    0.922983 0.551325 0.788204 0.143546
H4    H     H_    0.498763 0.126897 0.682395 0.128368
H5    H     H_    0.493697 0.133000 0.807578 0.137182
H6    H     H_    0.972885 0.989495 0.807139 0.174567
H7    H     H_    0.978865 0.157566 0.811321 0.126867
H8    H     H_    0.972437 0.168952 0.684162 0.131735
H9    H     H_    0.967391 0.000850 0.678982 0.145444
H10   H     H_    0.230313 0.842088 0.700888 0.132439
H11   H     H_    0.470968 0.827289 0.811512 0.115585
H12   H     H_    0.226394 0.838104 0.828650 0.128855
H13   H     H_    0.160573 0.379604 0.818751 0.132179
H14   H     H_    0.332341 0.377131 0.824370 0.143326
H15   H     H_    0.343940 0.373638 0.696322 0.179669
H16   H     H_    0.170773 0.378039 0.691489 0.123588
H17   H     H_    0.543907 0.873770 0.321597 0.111015
H18   H     H_    0.550785 0.900206 0.192494 0.136365
H19   H     H_    0.925995 0.422543 0.170711 0.157803
H20   H     H_    0.824001 0.327871 0.162855 0.142828
H21   H     H_    0.831278 0.308085 0.289865 0.156665
H22   H     H_    0.447308 0.804019 0.692955 0.138570
H23   H     H_    0.925028 0.409157 0.296004 0.175492
H24   H     H_    0.862429 0.070934 0.325545 0.113328
H25   H     H_    0.885896 0.038911 0.197621 0.146036
H26   H     H_    0.311067 0.329165 0.172373 0.142351
H27   H     H_    0.294480 0.338605 0.299098 0.164583
H28   H     H_    0.402349 0.143170 0.303748 0.128586
H29   H     H_    0.017881 0.571184 0.204124 0.153739
H30   H     H_    0.126657 0.941217 0.185503 0.153223
H31   H     H_    0.556501 0.878160 0.673822 0.112463
H32   H     H_    0.322262 0.842074 0.178791 0.144960
H33   H     H_    0.330981 0.851988 0.306162 0.162616
H34   H     H_    0.135781 0.938870 0.310440 0.127734
H35   H     H_    0.851403 0.738513 0.781138 0.126353
H36   H     H_    0.817550 0.725183 0.661951 0.115338
H37   H     H_    0.765176 0.450057 0.821611 0.131128
H38   H     H_    0.578193 0.565191 0.827546 0.119357
H39   H     H_    0.562203 0.530708 0.708551 0.127553
O1    O     O_R   0.507380 0.255700 0.581440 -0.536350
O2    O     O_R   0.524480 0.695810 0.424040 -0.507908
O3    O     O_R   0.736390 0.504290 0.414790 -0.515257
O4    O     O_R   0.691300 0.277290 0.422170 -0.506880
O5    O     O_3   0.499990 0.499990 0.499980 -0.246337
O6    O     O_R   0.089400 0.825690 0.930570 -0.530822
O7    O     O_R   0.818460 0.054440 0.929850 -0.499964
O8    O     O_R   0.606060 0.077150 0.915510 -0.535509
O9    O     O_R   0.646550 0.806680 0.917570 -0.510653
O10   O     O_R   0.837170 0.593410 0.915250 -0.527746
O11   O     O_R   0.065200 0.635530 0.931570 -0.499466
O12   O     O_R   0.280320 0.527350 0.578930 -0.504269
O13   O     O_R   0.068260 0.828890 0.091840 -0.528548
O14   O     O_R   0.798870 0.057410 0.079340 -0.515973
O15   O     O_R   0.584930 0.080350 0.076780 -0.524492
O16   O     O_R   0.626960 0.809650 0.067060 -0.509279
O17   O     O_R   0.816040 0.596610 0.076510 -0.526965
O18   O     O_R   0.045610 0.638500 0.081060 -0.515471
O19   O     O_3   0.833640 0.833710 0.001100 -0.247823
O20   O     O_R   0.260510 0.739590 0.584590 -0.533995
O21   O     O_R   0.532300 0.695080 0.573820 -0.510765
O22   O     O_R   0.744840 0.503500 0.576370 -0.530226
O23   O     O_R   0.699120 0.276560 0.571960 -0.501610
O24   O     O_R   0.498940 0.256500 0.419860 -0.523396
O25   O     O_R   0.272500 0.528080 0.429150 -0.507855
O26   O     O_R   0.252060 0.740380 0.423010 -0.522594
H40   H     H_    0.900359 0.537669 0.669930 0.131430
H41   H     H_    0.409843 0.133346 0.176945 0.148904
N1    N     N_3   0.024435 0.560477 0.343771 -0.658094
H42   H     H_    0.959453 0.642275 0.378273 0.235559
H43   H     H_    0.095888 0.475324 0.374125 0.241564

loop_
_geom_bond_atom_site_label_1
_geom_bond_atom_site_label_2
_ccdc_geom_bond_type
C44   C49   S    
C55   O16   A    
C51   O7    A    
C54   O15   A    
Cr5   O9    S    
C39   H26   S    
C35   C36   A    
C40   H27   S    
C9    C14   S    
C7    C8    A    
C12   O22   A    
C7    C11   A    
C26   C27   A    
C51   O8    A    
Cr4   O14   S    
Cr6   O11   S    
C37   H24   S    
C18   C24   A    
C14   H8    S    
C28   C29   A    
C1    O20   A    
C10   C15   A    
C30   C31   S    
C11   H5    S    
Cr4   O7    S    
C57   O18   A    
Cr4   O13   S    
C4    C59   S    
C32   C45   S    
Cr5   O19   S    
C59   H22   S    
C58   H11   S    
C16   C53   S    
Cr5   O15   S    
C5    H40   S    
C19   C20   A    
C16   C17   A    
C31   H23   S    
Cr6   O17   S    
Cr5   O16   S    
C30   H20   S    
C43   C48   S    
C56   O24   A    
C53   O11   A    
Cr1   O24   S    
C3    C60   S    
C53   O6    A    
C15   C23   S    
C55   O17   A    
C21   C22   S    
C28   H17   S    
C37   C41   A    
C36   C41   A    
C2    C6    S    
Cr1   O5    S    
C42   C57   S    
Cr3   O23   S    
C25   C29   A    
C34   C50   S    
C31   H21   S    
Cr6   O10   S    
C27   C31   S    
C13   C14   S    
C22   H15   S    
C28   C32   A    
C29   H18   S    
C4    C6    S    
C39   C40   S    
Cr2   O21   S    
C8    C9    A    
Cr4   O6    S    
N1    H43   S    
Cr2   O2    S    
C25   C26   A    
Cr4   O19   S    
C23   O1    A    
Cr1   O12   S    
C38   H25   S    
C17   C21   S    
Cr3   O4    S    
C35   C39   S    
C43   C44   A    
C3    C58   S    
C41   C56   S    
C37   C38   A    
C46   N1    S    
Cr2   O5    S    
C36   C40   S    
C16   C20   A    
C21   H13   S    
C17   C18   A    
C1    O12   A    
C30   H19   S    
Cr1   O1    S    
Cr1   O25   S    
C10   H4    S    
C48   C49   S    
C13   H7    S    
C2    H38   S    
C26   C30   S    
C59   H31   S    
Cr6   O19   S    
C4    C12   S    
C42   C43   A    
C60   H35   S    
C22   H16   S    
C56   O4    A    
C39   H41   S    
C52   O10   A    
C44   C50   A    
C33   C54   S    
C5    H36   S    
C19   H10   S    
C48   H30   S    
C5    C60   S    
C27   C32   A    
C18   C22   S    
Cr5   O8    S    
Cr2   O26   S    
C25   C55   S    
C40   H28   S    
C4    C5    S    
C34   O26   A    
Cr2   O20   S    
C3    C52   S    
C45   O3    A    
N1    H42   S    
C13   H6    S    
C52   O9    A    
C48   H32   S    
C46   C50   A    
C33   C38   A    
C20   H12   S    
C14   H9    S    
Cr3   O5    S    
C2    C3    S    
C58   C59   S    
C7    C51   S    
C49   H34   S    
C49   H33   S    
C60   H3    S    
C21   H14   S    
C6    H2    S    
C33   C35   A    
C6    H39   S    
C19   C24   A    
C42   C47   A    
C9    C15   A    
C2    H37   S    
C46   C47   A    
C10   C11   A    
C8    C13   S    
C58   H1    S    
C12   O21   A    
C34   O25   A    
C1    C24   S    
C47   H29   S    
Cr6   O18   S    
C23   O23   A    
Cr3   O3    S    
C54   O14   A    
Cr3   O22   S    
C45   O2    A    
C57   O13   A    
