data_mof_unit_67837.cif
_audit_creation_date              2012-12-10T16:55:43-0500
_audit_creation_method            fapswitch 2.2
_symmetry_space_group_name_H-M    P1
_symmetry_Int_Tables_number       1
_space_group_crystal_system       triclinic
_cell_length_a                    7.868426
_cell_length_b                    8.58219
_cell_length_c                    10.483314
_cell_angle_alpha                 92.885493
_cell_angle_beta                  85.453322
_cell_angle_gamma                 92.176344
_cell_volume                      704.387423463

loop_
_atom_site_label
_atom_site_type_symbol
_atom_type_description
_atom_site_fract_x
_atom_site_fract_y
_atom_site_fract_z
_atom_type_partial_charge
Br1   Br    Br    0.221521 0.749640 0.125338 -0.314082
Br2   Br    Br    0.778479 0.250359 0.874662 -0.314082
Br3   Br    Br    0.380736 0.155391 0.099856 -0.297170
Br4   Br    Br    0.619264 0.844608 0.900144 -0.297170
Br5   Br    Br    0.044857 0.321342 0.336516 -0.250457
Br6   Br    Br    0.955143 0.678658 0.663484 -0.250457
C1    C     C_R   0.543032 0.793930 0.496435 0.910373
C2    C     C_3   0.502372 0.498191 0.876624 -0.243521
C3    C     C_3   0.453467 0.357973 0.039412 0.267100
C4    C     C_3   0.546533 0.642027 0.960588 0.267101
C5    C     C_2   0.557324 0.952171 0.469983 -0.046232
C6    C     C_2   0.442675 0.047828 0.530018 -0.046232
C7    C     C_R   0.456968 0.206070 0.503565 0.910373
C8    C     C_R   0.500920 0.498661 0.741966 0.961558
C9    C     C_R   0.499079 0.501339 0.258034 0.961558
C10   C     C_3   0.342351 0.459823 0.964805 -0.268678
C11   C     C_3   0.657649 0.540177 0.035194 -0.268678
C12   C     C_3   0.388186 0.604231 0.050428 0.273338
C13   C     C_3   0.611814 0.395769 0.949572 0.273338
C14   C     C_3   0.497628 0.501809 0.123376 -0.243521
H1    H     H_    0.214051 0.426409 0.933070 0.237420
H2    H     H_    0.785949 0.573591 0.066930 0.237420
I1    I     I_    0.719324 0.000299 0.301523 -0.053294
I2    I     I_    0.280676 0.999701 0.698477 -0.053294
N1    N     N_2   0.950320 0.457950 0.465730 0.078918
N2    N     N_2   0.049680 0.542050 0.534270 0.078918
O1    O     O_R   0.389250 0.738570 0.508410 -0.600328
O2    O     O_R   0.610750 0.261430 0.491590 -0.600328
O3    O     O_R   0.678390 0.711620 0.486450 -0.587457
O4    O     O_R   0.321610 0.288380 0.513550 -0.587457
O5    O     O_R   0.355460 0.513510 0.697030 -0.605472
O6    O     O_R   0.644540 0.486490 0.302970 -0.605471
O7    O     O_R   0.644600 0.486560 0.675070 -0.580805
O8    O     O_R   0.355400 0.513440 0.324930 -0.580805
Zn1   Zn    Zn3+2 0.306940 0.517990 0.514670 1.118789
Zn2   Zn    Zn3+2 0.693060 0.482010 0.485330 1.118789

loop_
_geom_bond_atom_site_label_1
_geom_bond_atom_site_label_2
_ccdc_geom_bond_type
C5    C6    D    
C7    O2    A    
C10   H1    S    
C1    O3    A    
C6    I2    S    
C9    O8    A    
C11   H2    S    
C8    O5    A    
C11   C14   S    
C8    O7    A    
N1    N2    D    
C9    O6    A    
C2    C10   S    
C1    C5    S    
O3    Zn2   S    
Br1   C12   S    
Br6   N2    S    
O4    Zn1   S    
C4    C12   S    
Br3   C3    S    
O6    Zn2   S    
O5    Zn1   S    
C5    I1    S    
C11   C13   S    
C3    C10   S    
C12   C14   S    
C9    C14   S    
C3    C14   S    
Br5   N1    S    
C2    C13   S    
N1    Zn2   S    
Br4   C4    S    
C7    O4    A    
O7    Zn2   S    
C1    O1    A    
C6    C7    S    
O2    Zn2   S    
C10   C12   S    
O8    Zn1   S    
N2    Zn1   S    
C2    C8    S    
C4    C11   S    
O1    Zn1   S    
Br2   C13   S    
C3    C13   S    
C2    C4    S    
