data_mof_unit_51631.cif
_audit_creation_date              2012-12-11T15:18:30-0500
_audit_creation_method            fapswitch 2.2
_symmetry_space_group_name_H-M    P1
_symmetry_Int_Tables_number       1
_space_group_crystal_system       triclinic
_cell_length_a                    6.948649
_cell_length_b                    19.739736
_cell_length_c                    23.817015
_cell_angle_alpha                 93.037143
_cell_angle_beta                  91.253998
_cell_angle_gamma                 89.170456
_cell_volume                      3261.18872999

loop_
_atom_site_label
_atom_site_type_symbol
_atom_type_description
_atom_site_fract_x
_atom_site_fract_y
_atom_site_fract_z
_atom_type_partial_charge
O1    O     O_R   0.620100 0.812200 0.810870 -0.540994
O2    O     O_R   0.379900 0.187800 0.189130 -0.538624
O3    O     O_R   0.296960 0.671650 0.794750 -0.539542
O4    O     O_R   0.703040 0.328350 0.205250 -0.540166
O5    O     O_R   0.120160 0.687800 0.689130 -0.540916
O6    O     O_R   0.879840 0.312200 0.310870 -0.542016
C1    C     C_R   0.466922 0.646391 0.804481 0.693717
C2    C     C_R   0.532852 0.353137 0.195113 0.693535
O7    O     O_R   0.290810 0.810670 0.817290 -0.530949
O8    O     O_R   0.709190 0.189330 0.182710 -0.533361
O9    O     O_R   0.113980 0.827820 0.711840 -0.535900
O10   O     O_R   0.886020 0.172180 0.288160 -0.537442
C3    C     C_R   0.459223 0.834159 0.832143 0.723137
C4    C     C_R   0.540248 0.167765 0.166518 0.720559
O11   O     O_R   0.626290 0.672180 0.788160 -0.529758
O12   O     O_R   0.373710 0.327820 0.211840 -0.531854
O13   O     O_3   0.451520 0.755460 0.715370 -0.370239
O14   O     O_3   0.548480 0.244540 0.284630 -0.370734
V1    V     V_3+5 0.179200 0.748980 0.756420 1.425483
V2    V     V_3+5 0.820800 0.251020 0.243580 1.422747
O15   O     O_R   0.783880 0.828350 0.705250 -0.543594
O16   O     O_R   0.216120 0.171650 0.294750 -0.539646
C5    C     C_R   0.951393 0.852148 0.693312 0.701068
C6    C     C_R   0.049052 0.147874 0.306769 0.702648
O17   O     O_R   0.790030 0.689320 0.682700 -0.538262
O18   O     O_R   0.209970 0.310680 0.317300 -0.538460
C7    C     C_R   0.958706 0.667666 0.666142 0.704159
C8    C     C_R   0.041568 0.332155 0.334006 0.706104
V3    V     V_3+5 0.678400 0.751010 0.743570 1.416623
V4    V     V_3+5 0.321600 0.248990 0.256430 1.419616
O19   O     O_3   0.955950 0.744540 0.784620 -0.360243
O20   O     O_3   0.044050 0.255460 0.215380 -0.360285
C9    C     C_R   0.151284 0.441616 0.385716 0.138885
C10   C     C_R   0.856505 0.556886 0.615370 0.141689
C11   C     C_R   0.032742 0.383470 0.382132 -0.123968
C12   C     C_R   0.969209 0.616331 0.618074 -0.124744
C13   C     C_R   0.894639 0.375959 0.423168 -0.176577
C14   C     C_R   0.105786 0.624483 0.576693 -0.174851
C15   C     C_R   0.874775 0.423702 0.468676 0.080175
C16   C     C_R   0.128091 0.576120 0.531694 0.080060
C17   C     C_R   0.008092 0.476906 0.476320 -0.112084
C18   C     C_R   0.996317 0.522421 0.524314 -0.113643
C19   C     C_R   0.155150 0.483749 0.436548 0.038718
C20   C     C_R   0.851048 0.515055 0.564484 0.039098
C21   C     C_R   0.723322 0.418595 0.506485 0.273492
C22   C     C_R   0.280436 0.580970 0.494226 0.269628
C23   C     C_R   0.702521 0.467827 0.551714 0.222760
C24   C     C_R   0.303868 0.530889 0.449761 0.223933
H1    H     H_    0.799097 0.333005 0.418552 0.169565
H2    H     H_    0.198942 0.668124 0.580838 0.167442
C25   C     C_R   0.959134 0.916542 0.663242 -0.171794
C26   C     C_R   0.048305 0.083666 0.337377 -0.170965
C27   C     C_R   0.983039 0.040350 0.664402 0.422175
C28   C     C_R   0.069996 0.959650 0.338098 0.425001
C29   C     C_R   0.957576 0.980246 0.693224 0.200886
C30   C     C_R   0.059232 0.019680 0.307992 0.202661
C31   C     C_R   0.985777 0.914243 0.604819 -0.239979
C32   C     C_R   0.045014 0.086259 0.396487 -0.237881
C33   C     C_R   0.034580 0.972801 0.576104 -0.029951
C34   C     C_R   0.076766 0.027528 0.427799 -0.028720
C35   C     C_R   0.027629 0.036854 0.606164 -0.046176
C36   C     C_R   0.085785 0.963334 0.397964 -0.043799
C37   C     C_R   0.081085 0.969619 0.517503 0.014245
C38   C     C_R   0.089262 0.030615 0.488236 0.013864
C39   C     C_R   0.128951 0.091185 0.521080 0.001520
C40   C     C_R   0.139934 0.908825 0.487743 0.002647
C41   C     C_R   0.073418 0.096074 0.578049 0.355341
C42   C     C_R   0.117477 0.904029 0.428410 0.355626
H3    H     H_    0.012079 0.134557 0.417416 0.129193
H4    H     H_    0.964693 0.866214 0.582131 0.129501
C43   C     C_R   0.480267 0.584243 0.836803 -0.179970
C44   C     C_R   0.522690 0.417403 0.166022 -0.167758
C45   C     C_R   0.543583 0.463110 0.842149 0.109051
C46   C     C_R   0.508122 0.541172 0.167882 0.107532
C47   C     C_R   0.499105 0.519346 0.809861 0.341892
C48   C     C_R   0.535283 0.480753 0.196389 0.328541
C49   C     C_R   0.468660 0.589744 0.895431 -0.254438
C50   C     C_R   0.520289 0.415697 0.107089 -0.247756
C51   C     C_R   0.525290 0.535340 0.929330 0.055484
C52   C     C_R   0.520313 0.476333 0.077872 0.038830
C53   C     C_R   0.586901 0.473926 0.900826 -0.069358
C54   C     C_R   0.472979 0.537164 0.108614 -0.066669
C55   C     C_R   0.517625 0.538334 0.989962 -0.091210
C56   C     C_R   0.560704 0.478139 0.019171 -0.098010
C57   C     C_R   0.667522 0.425439 0.990394 0.337267
C58   C     C_R   0.457673 0.597253 0.022632 0.340244
C59   C     C_R   0.691519 0.426067 0.932006 0.091049
C60   C     C_R   0.405006 0.592543 0.078650 0.109329
H5    H     H_    0.519070 0.366734 0.084417 0.168570
H6    H     H_    0.413660 0.637403 0.912228 0.176245
C61   C     C_R   0.489644 0.048478 0.125457 0.050232
C62   C     C_R   0.503982 0.955495 0.871573 0.050413
C63   C     C_R   0.529903 0.117910 0.118037 -0.146370
C64   C     C_R   0.469158 0.885579 0.879745 -0.144412
C65   C     C_R   0.561598 0.140499 0.063525 0.263346
C66   C     C_R   0.439625 0.863711 0.934408 0.260738
C67   C     C_R   0.537107 0.095628 0.015423 0.019182
C68   C     C_R   0.458381 0.909636 0.981914 0.017146
C69   C     C_R   0.499836 0.026212 0.022355 -0.091376
C70   C     C_R   0.492976 0.979182 0.974532 -0.089091
C71   C     C_R   0.460798 0.004013 0.076635 0.022723
C72   C     C_R   0.530065 0.001227 0.920086 0.021156
C73   C     C_R   0.553965 0.118067 0.960074 0.072593
C74   C     C_R   0.438470 0.887876 0.037255 0.052533
C75   C     C_R   0.588311 0.069453 0.915662 0.316783
C76   C     C_R   0.397918 0.936605 0.080690 0.321941
C77   C     C_3   0.245399 0.463781 0.332450 -0.277102
C78   C     C_3   0.097059 0.476377 0.285457 -0.781262
H7    H     H_    0.049667 0.428356 0.263612 0.225478
H8    H     H_    0.970038 0.504070 0.303084 0.240104
H9    H     H_    0.161214 0.507603 0.253413 0.227115
H10   H     H_    0.319925 0.512629 0.339035 0.249603
H11   H     H_    0.353230 0.425216 0.318079 0.206263
C79   C     C_3   0.774465 0.532805 0.669595 -0.287059
C80   C     C_3   0.933530 0.517073 0.712830 -0.764008
H12   H     H_    0.043421 0.482310 0.693410 0.236063
H13   H     H_    0.004647 0.563782 0.730055 0.218961
H14   H     H_    0.870872 0.491836 0.748648 0.232294
H15   H     H_    0.673550 0.571687 0.687429 0.204206
H16   H     H_    0.694893 0.484954 0.663181 0.252986
C81   C     C_3   0.856446 0.384018 0.906054 -0.324519
C82   C     C_3   0.053210 0.409883 0.927550 -0.705760
H17   H     H_    0.075340 0.462255 0.914206 0.219888
H18   H     H_    0.068124 0.410007 0.973955 0.248495
H19   H     H_    0.168895 0.376387 0.909825 0.209821
H20   H     H_    0.841026 0.329878 0.915557 0.203419
H21   H     H_    0.859401 0.386565 0.859800 0.158796
C83   C     C_3   0.255049 0.642177 0.102981 -0.337324
C84   C     C_3   0.069233 0.641806 0.067219 -0.727951
H22   H     H_    0.095056 0.660083 0.024788 0.260728
H23   H     H_    0.009873 0.589762 0.062896 0.217394
H24   H     H_    0.960652 0.676054 0.087809 0.208541
H25   H     H_    0.213474 0.628437 0.145641 0.166639
H26   H     H_    0.313648 0.694106 0.106391 0.197625
O21   O     O_3   0.577353 0.486015 0.253452 -0.661375
H27   H     H_    0.632911 0.442742 0.265832 0.278345
O22   O     O_3   0.466709 0.508470 0.752730 -0.660490
H28   H     H_    0.394905 0.547595 0.737913 0.273220
C85   C     C_3   0.521729 0.391735 0.814846 -0.333850
C86   C     C_3   0.320102 0.379142 0.789203 -0.676561
H29   H     H_    0.207687 0.405023 0.815167 0.217914
H30   H     H_    0.308669 0.397279 0.745957 0.259514
H31   H     H_    0.291218 0.323848 0.786354 0.210342
H32   H     H_    0.630521 0.382966 0.781629 0.193718
H33   H     H_    0.544563 0.352699 0.846235 0.165116
C87   C     C_3   0.556736 0.608156 0.199689 -0.322099
C88   C     C_3   0.773415 0.614181 0.210725 -0.709135
H34   H     H_    0.826099 0.575721 0.239629 0.254737
H35   H     H_    0.851530 0.607490 0.170605 0.216829
H36   H     H_    0.806058 0.665153 0.230300 0.221121
H37   H     H_    0.516294 0.653137 0.176411 0.163948
H38   H     H_    0.479181 0.612476 0.240069 0.210325
O23   O     O_3   0.768976 0.376686 0.018677 -0.644932
H39   H     H_    0.830572 0.399508 0.052402 0.292027
O24   O     O_3   0.468191 0.661664 0.004021 -0.658733
H40   H     H_    0.595160 0.664661 0.986056 0.276116
C89   C     C_3   0.497204 0.017171 0.183477 -0.316340
C90   C     C_3   0.610798 0.052036 0.232050 -0.710717
H41   H     H_    0.748318 0.070535 0.216797 0.245101
H42   H     H_    0.525719 0.093786 0.252791 0.226679
H43   H     H_    0.643271 0.015109 0.264704 0.225979
H44   H     H_    0.349363 0.009933 0.197310 0.254760
H45   H     H_    0.567822 0.966365 0.178331 0.224488
C91   C     C_3   0.492638 0.985917 0.813261 -0.318514
C92   C     C_3   0.390609 0.947712 0.764174 -0.714311
H46   H     H_    0.483242 0.906563 0.745687 0.224438
H47   H     H_    0.252352 0.928009 0.777940 0.248647
H48   H     H_    0.360077 0.983002 0.730173 0.223727
H49   H     H_    0.411412 0.034812 0.817806 0.228075
H50   H     H_    0.638996 0.996908 0.799978 0.256112
O25   O     O_3   0.640504 0.203529 0.056696 -0.644095
H51   H     H_    0.601192 0.236158 0.087369 0.277858
O26   O     O_3   0.367910 0.799749 0.941727 -0.644451
H52   H     H_    0.422648 0.766706 0.913542 0.275908
C93   C     C_3   0.514132 0.191921 0.945914 -0.294136
C94   C     C_3   0.374396 0.198511 0.895708 -0.788665
H53   H     H_    0.441374 0.180926 0.855619 0.256210
H54   H     H_    0.242286 0.168913 0.901731 0.239293
H55   H     H_    0.332245 0.252647 0.892139 0.217076
H56   H     H_    0.440830 0.220359 0.980826 0.229545
H57   H     H_    0.650970 0.217826 0.937977 0.191627
C95   C     C_3   0.481427 0.814884 0.052229 -0.276099
C96   C     C_3   0.603547 0.808934 0.106232 -0.804941
H58   H     H_    0.732113 0.841660 0.105377 0.239503
H59   H     H_    0.519609 0.822969 0.144232 0.253362
H60   H     H_    0.653228 0.755515 0.109573 0.222689
H61   H     H_    0.344328 0.787408 0.055198 0.215172
H62   H     H_    0.570573 0.789046 0.019333 0.236563
O27   O     O_3   0.685301 0.087491 0.868748 -0.658705
H63   H     H_    0.756007 0.130079 0.877624 0.297283
O28   O     O_3   0.291497 0.919600 0.126155 -0.655269
H64   H     H_    0.222957 0.876675 0.116645 0.297347
O29   O     O_3   0.595122 0.365957 0.497772 -0.653385
H65   H     H_    0.538769 0.356024 0.534253 0.294194
O30   O     O_3   0.407500 0.633981 0.502692 -0.654374
H66   H     H_    0.464944 0.643341 0.466229 0.295097
O31   O     O_3   0.530173 0.475710 0.579460 -0.654385
H67   H     H_    0.424551 0.456193 0.555444 0.303853
O32   O     O_3   0.478410 0.522274 0.423281 -0.652843
H68   H     H_    0.582125 0.542969 0.447349 0.304955
O33   O     O_3   0.070758 0.158468 0.607282 -0.599687
H69   H     H_    0.046272 0.194315 0.580257 0.284697
O34   O     O_3   0.133890 0.841650 0.399556 -0.599845
H70   H     H_    0.095302 0.805836 0.424576 0.286670
O35   O     O_3   0.057355 0.013162 0.249902 -0.664733
H71   H     H_    0.070323 0.057847 0.233653 0.279630
O36   O     O_3   0.938369 0.986274 0.750954 -0.663850
H72   H     H_    0.913120 0.941751 0.766215 0.281253
O37   O     O_3   0.971684 0.103198 0.693003 -0.595610
H73   H     H_    0.920877 0.099006 0.731131 0.340109
O38   O     O_3   0.070259 0.896556 0.309659 -0.596619
H74   H     H_    0.046052 0.900766 0.268908 0.339360
C97   C     C_3   0.277506 0.142068 0.502775 -0.336818
C98   C     C_3   0.459336 0.107503 0.478927 -0.697523
H75   H     H_    0.517431 0.069865 0.508205 0.223021
H76   H     H_    0.430125 0.081771 0.437190 0.232858
H77   H     H_    0.571135 0.146170 0.473581 0.210721
H78   H     H_    0.216880 0.178507 0.473298 0.164715
H79   H     H_    0.329492 0.174200 0.539546 0.203953
C99   C     C_3   0.275392 0.857122 0.514936 -0.336611
C100  C     C_3   0.439066 0.890583 0.550053 -0.695567
H80   H     H_    0.513005 0.928248 0.525303 0.222462
H81   H     H_    0.385356 0.916021 0.589359 0.232928
H82   H     H_    0.546085 0.851283 0.562058 0.208910
H83   H     H_    0.198522 0.820797 0.539805 0.164977
H84   H     H_    0.348900 0.824945 0.482037 0.204965

loop_
_geom_bond_atom_site_label_1
_geom_bond_atom_site_label_2
_ccdc_geom_bond_type
C6    C26   S    
C74   C95   S    
O25   H51   S    
C89   C90   S    
O13   V3    S    
C17   C18   A    
C62   C64   A    
C91   H50   S    
C88   H34   S    
C9    C77   S    
C86   H31   S    
C52   C56   A    
V1    O19   S    
C83   C84   S    
C74   C76   A    
C79   C80   S    
C97   H79   S    
O21   H27   S    
C15   C17   A    
O35   H71   S    
C16   C22   A    
O9    V1    S    
C92   H46   S    
C46   C48   A    
C55   C56   A    
C91   C92   S    
C88   H35   S    
C86   H30   S    
O5    V1    S    
C81   H21   S    
C100  H82   S    
O3    C1    A    
C96   H59   S    
C1    C43   S    
C58   C60   A    
C31   C33   A    
C40   C42   A    
O31   H67   S    
O12   V4    S    
C80   H12   S    
C78   H7    S    
C72   C75   A    
C34   C36   A    
O33   H69   S    
C21   C23   A    
O4    C2    A    
O7    C3    A    
C95   C96   S    
C77   H11   S    
C40   C99   S    
C90   H43   S    
C9    C11   A    
O5    C7    A    
C27   C35   A    
O7    V1    S    
C94   H55   S    
O6    C8    A    
C30   O35   S    
O38   H74   S    
C8    C11   S    
O8    V2    S    
C39   C41   A    
C66   C68   A    
C44   C50   A    
C77   C78   S    
O3    V1    S    
O14   V4    S    
C31   H4    S    
C19   C24   A    
C89   H45   S    
C4    C63   S    
O14   V2    S    
C79   H15   S    
C20   C23   A    
C62   C72   A    
C93   H57   S    
C84   H24   S    
C62   C91   S    
C57   C59   A    
C37   C40   A    
O32   H68   S    
C2    O12   A    
C14   C16   A    
C37   C38   A    
C42   O34   S    
C90   H42   S    
C17   C19   A    
C91   H49   S    
C92   H47   S    
C18   C20   A    
C76   O28   S    
C61   C71   A    
O2    C4    A    
C45   C53   A    
C99   C100  S    
C67   C69   A    
C48   O21   S    
V2    O20   S    
C34   C38   A    
O11   V3    S    
C28   C30   A    
C27   C29   A    
C50   H5    S    
O17   V3    S    
C13   C15   A    
C22   C24   A    
C49   H6    S    
C43   C47   A    
C2    C44   S    
C66   O26   S    
C87   C88   S    
C24   O32   S    
O28   H64   S    
C9    C19   A    
C75   O27   S    
C22   O30   S    
C88   H36   S    
C10   C20   A    
C56   C57   A    
C52   C54   A    
C47   O22   S    
C96   H60   S    
C59   C81   S    
C98   H75   S    
C95   H62   S    
C1    O11   A    
C28   C36   A    
C25   C29   A    
C80   H13   S    
O26   H52   S    
O15   V3    S    
O36   H72   S    
C87   H37   S    
C21   O29   S    
O4    V2    S    
C58   O24   S    
C96   H58   S    
C39   C97   S    
C100  H80   S    
C41   O33   S    
C73   C93   S    
C83   H26   S    
C61   C63   A    
C13   H1    S    
C85   H32   S    
C35   C41   A    
C5    C25   S    
C69   C70   A    
C97   C98   S    
C97   H78   S    
C80   H14   S    
O10   V2    S    
C70   C72   A    
O37   H73   S    
C49   C51   A    
C99   H84   S    
C44   C48   A    
C73   C75   A    
C77   H10   S    
C57   O23   S    
C86   H29   S    
C64   C66   A    
C50   C52   A    
C81   C82   S    
C53   C59   A    
C26   C32   A    
C87   H38   S    
C27   O37   S    
C33   C35   A    
C69   C71   A    
O18   V4    S    
C92   H48   S    
C68   C70   A    
O15   C5    A    
O8    C4    A    
C90   H41   S    
O16   C6    A    
O1    C3    A    
O2    V4    S    
C45   C47   A    
C82   H18   S    
C12   C14   A    
C43   C49   A    
C29   O36   S    
C51   C53   A    
C84   H22   S    
C46   C54   A    
C71   C76   A    
C85   H33   S    
O16   V4    S    
C11   C13   A    
V3    O19   S    
C33   C37   A    
C46   C87   S    
C16   C18   A    
C98   H77   S    
C85   C86   S    
C65   C67   A    
C32   H3    S    
C93   H56   S    
C14   H2    S    
C36   C42   A    
C7    C12   S    
C10   C79   S    
C45   C85   S    
O22   H28   S    
O10   C6    A    
O18   C8    A    
C78   H9    S    
C15   C21   A    
C3    C64   S    
C100  H81   S    
C38   C39   A    
C82   H19   S    
C94   H53   S    
O23   H39   S    
C98   H76   S    
C81   H20   S    
C60   C83   S    
C93   C94   S    
C83   H25   S    
V4    O20   S    
O1    V3    S    
C65   O25   S    
O6    V2    S    
C54   C60   A    
O9    C5    A    
O13   V1    S    
C78   H8    S    
C99   H83   S    
C10   C12   A    
C95   H61   S    
C28   O38   S    
O27   H63   S    
C67   C73   A    
C61   C89   S    
O30   H66   S    
C51   C55   A    
C25   C31   A    
C55   C58   A    
C63   C65   A    
O29   H65   S    
O24   H40   S    
C23   O31   S    
O34   H70   S    
C82   H17   S    
C32   C34   A    
C89   H44   S    
C68   C74   A    
C79   H16   S    
C26   C30   A    
C94   H54   S    
C84   H23   S    
O17   C7    A    
