data_mof_unit_59168.cif
_audit_creation_date              2012-12-10T17:50:38-0500
_audit_creation_method            fapswitch 2.2
_symmetry_space_group_name_H-M    P1
_symmetry_Int_Tables_number       1
_space_group_crystal_system       triclinic
_cell_length_a                    15.686306
_cell_length_b                    10.710351
_cell_length_c                    9.974985
_cell_angle_alpha                 92.817711
_cell_angle_beta                  91.112746
_cell_angle_gamma                 91.990055
_cell_volume                      1672.44537263

loop_
_atom_site_label
_atom_site_type_symbol
_atom_type_description
_atom_site_fract_x
_atom_site_fract_y
_atom_site_fract_z
_atom_type_partial_charge
C1    C     C_R   0.506831 0.261190 0.497023 0.955190
C2    C     C_3   0.083763 0.514580 0.501118 -0.071797
C3    C     C_3   0.977997 0.633290 0.538389 0.180797
C4    C     C_3   0.916920 0.521274 0.504148 -0.042107
C5    C     C_3   0.029211 0.596574 0.414536 0.133193
C6    C     C_3   0.967741 0.483993 0.378015 -0.213588
C7    C     C_1   0.174412 0.509347 0.498298 0.107781
C8    C     C_1   0.826082 0.521089 0.505294 0.018424
C9    C     C_R   0.626846 0.135834 0.673269 0.177520
C10   C     C_R   0.650097 0.089873 0.796961 -0.257078
C11   C     C_R   0.614231 0.977400 0.835946 0.434308
C12   C     C_R   0.338257 0.500640 0.498950 0.912294
C13   C     C_R   0.561760 0.904329 0.745957 -0.195463
C14   C     C_R   0.539198 0.947714 0.618004 -0.061468
C15   C     C_R   0.561771 0.071905 0.593205 0.054533
C16   C     C_R   0.517604 0.128910 0.490048 -0.144905
C17   C     C_R   0.468654 0.059018 0.394421 -0.220667
C18   C     C_R   0.458726 0.931947 0.402232 0.180042
C19   C     C_R   0.495169 0.874762 0.512823 -0.123723
C20   C     C_R   0.351136 0.415820 0.126176 0.365443
C21   C     C_R   0.274549 0.421756 0.052909 0.350266
C22   C     C_R   0.277353 0.406818 0.914281 -0.308753
C23   C     C_R   0.497957 0.740319 0.504025 0.896705
C24   C     C_R   0.356607 0.396900 0.853864 0.223642
C25   C     C_R   0.429825 0.450645 0.923296 0.010024
C26   C     C_R   0.428343 0.455443 0.067070 -0.043847
C27   C     C_R   0.567247 0.546013 0.076834 -0.125378
C28   C     C_R   0.566890 0.548437 0.934905 0.409835
C29   C     C_R   0.661752 0.505019 0.501390 0.924447
C30   C     C_3   0.970009 0.437124 0.592340 -0.277966
C31   C     C_3   0.022532 0.402215 0.467152 0.423282
C32   C     C_1   0.249535 0.504796 0.497312 -0.112408
C33   C     C_1   0.750678 0.515426 0.504366 -0.135527
C34   C     C_3   0.032017 0.550726 0.625848 0.333934
H1    H     H_    0.536177 0.818782 0.783253 0.222673
H2    H     H_    0.621831 0.584897 0.134536 0.193526
H3    H     H_    0.219371 0.379110 0.858144 0.225738
H4    H     H_    0.943677 0.371055 0.664637 0.200435
H5    H     H_    0.940050 0.456534 0.277154 0.196466
H6    H     H_    0.435863 0.102776 0.314710 0.229325
H7    H     H_    0.697442 0.140101 0.861345 0.183591
N1    N     N_R   0.499210 0.498800 0.142780 -0.119015
N2    N     N_R   0.499180 0.498720 0.857170 -0.138153
O1    O     O_R   0.500000 0.316780 0.614690 -0.592988
O2    O     O_R   0.499990 0.316750 0.385360 -0.570470
O3    O     O_R   0.376780 0.500000 0.614650 -0.624552
O4    O     O_R   0.376770 0.499980 0.385310 -0.574567
O5    O     O_R   0.500010 0.683250 0.614640 -0.629234
O6    O     O_R   0.500000 0.683220 0.385310 -0.595063
O7    O     O_R   0.623230 0.500020 0.614690 -0.558847
O8    O     O_R   0.623220 0.500000 0.385350 -0.629933
Zn1   Zn    Zn3+2 0.500010 0.500020 0.653130 1.008058
Zn2   Zn    Zn3+2 0.499990 0.499980 0.346870 1.009542
Cl1   Cl    Cl    0.053995 0.248065 0.421071 -0.534640
Cl2   Cl    Cl    0.638986 0.925125 0.995622 -0.607776
N3    N     N_2   0.404517 0.863390 0.306244 -0.306167
H8    H     H_    0.342542 0.892567 0.307443 0.238099
C35   C     C_3   0.437096 0.853672 0.171388 -0.629000
H9    H     H_    0.438580 0.946488 0.126142 0.240341
H10   H     H_    0.395079 0.788131 0.108148 0.219272
H11   H     H_    0.502357 0.816646 0.172228 0.283121
Cl3   Cl    Cl    0.350563 0.286191 0.226447 -0.586397
Cl4   Cl    Cl    0.175487 0.402603 0.130724 -0.510969
N4    N     N_2   0.363785 0.300626 0.752031 -0.236847
H12   H     H_    0.310429 0.288129 0.689923 0.231364
C36   C     C_3   0.390375 0.182964 0.802046 -0.701431
H13   H     H_    0.343701 0.147737 0.875016 0.245123
H14   H     H_    0.454531 0.194577 0.851285 0.249940
H15   H     H_    0.393819 0.112368 0.717255 0.230013
Cl5   Cl    Cl    0.655619 0.621034 0.863533 -0.568576
N5    N     N_2   0.064308 0.681220 0.319406 -0.308464
H16   H     H_    0.112467 0.643169 0.263616 0.276871
C37   C     C_3   0.001850 0.740850 0.238110 -0.623503
H17   H     H_    0.034474 0.811783 0.177681 0.255339
H18   H     H_    0.954827 0.788861 0.302451 0.258547
H19   H     H_    0.968038 0.670463 0.168788 0.250785
N6    N     N_2   0.948959 0.756745 0.576366 -0.304660
H20   H     H_    0.904223 0.755675 0.650695 0.260804
C38   C     C_3   0.015122 0.852981 0.600938 -0.645128
H21   H     H_    0.985435 0.945061 0.616228 0.248706
H22   H     H_    0.057914 0.858024 0.514021 0.265544
H23   H     H_    0.053133 0.834648 0.692397 0.267315
Cl6   Cl    Cl    0.076129 0.590042 0.789115 -0.600506
N7    N     N_2   0.677576 0.233858 0.620664 -0.312281
H24   H     H_    0.709294 0.290985 0.693065 0.249117
C39   C     C_3   0.734067 0.189697 0.516631 -0.743731
H25   H     H_    0.773554 0.268340 0.480825 0.239769
H26   H     H_    0.696770 0.146681 0.429392 0.261329
H27   H     H_    0.777658 0.119984 0.556420 0.255157

loop_
_geom_bond_atom_site_label_1
_geom_bond_atom_site_label_2
_ccdc_geom_bond_type
C36   H14   S    
O3    Zn1   S    
C37   H17   S    
C2    C7    S    
C4    C8    S    
C25   N2    A    
N6    H20   S    
N7    C39   S    
C13   H1    S    
N1    Zn2   S    
C5    C6    S    
C39   H26   S    
N2    Zn1   S    
C23   O6    A    
C36   H15   S    
C35   H10   S    
C15   C16   A    
C29   C33   S    
N3    H8    S    
C30   H4    S    
C18   C19   A    
C16   C17   A    
O7    Zn1   S    
C23   O5    A    
C9    C10   A    
C18   N3    S    
O4    Zn2   S    
O1    Zn1   S    
C35   H11   S    
C6    C31   S    
O2    Zn2   S    
C24   N4    S    
C21   C22   A    
C12   C32   S    
C10   H7    S    
C20   Cl3   S    
C37   H18   S    
C12   O4    A    
C29   O7    A    
N6    C38   S    
C30   C34   S    
C24   C25   A    
C12   O3    A    
N5    C37   S    
C39   H25   S    
C3    C34   S    
C35   H9    S    
C22   H3    S    
C2    C31   S    
O8    Zn2   S    
C17   H6    S    
N4    C36   S    
C19   C23   S    
C1    O1    A    
C17   C18   A    
C1    C16   S    
N7    H24   S    
C4    C6    S    
C37   H19   S    
C22   C24   A    
C2    C5    S    
C34   Cl6   S    
C3    C4    S    
C3    N6    S    
C11   Cl2   S    
C26   N1    A    
C38   H22   S    
C29   O8    A    
C7    C32   T    
C2    C34   S    
C6    H5    S    
C14   C19   A    
C28   Cl5   S    
C3    C5    S    
C39   H27   S    
C38   H23   S    
C27   H2    S    
C28   N2    A    
N4    H12   S    
C25   C26   A    
N5    H16   S    
C5    N5    S    
C11   C13   A    
C27   N1    A    
C1    O2    A    
C30   C31   S    
C20   C26   A    
O6    Zn2   S    
N3    C35   S    
C36   H13   S    
C8    C33   T    
C31   Cl1   S    
C9    C15   A    
C21   Cl4   S    
C10   C11   A    
C9    N7    S    
C38   H21   S    
O5    Zn1   S    
C20   C21   A    
C27   C28   A    
C14   C15   A    
C13   C14   A    
C4    C30   S    
