data_mof_unit_26040.cif
_audit_creation_date              2013-03-05T15:52:19-0500
_audit_creation_method            fapswitch 2.2
_symmetry_space_group_name_H-M    P1
_symmetry_Int_Tables_number       1
_space_group_crystal_system       triclinic
_cell_length_a                    10.895553
_cell_length_b                    10.802243
_cell_length_c                    17.066626
_cell_angle_alpha                 80.122614
_cell_angle_beta                  99.677422
_cell_angle_gamma                 119.323758
_cell_volume                      1717.05352586

loop_
_atom_site_label
_atom_site_type_symbol
_atom_site_description
_atom_site_fract_x
_atom_site_fract_y
_atom_site_fract_z
_atom_type_partial_charge
O1    O     O_R   0.754020 0.497590 0.609930 -0.443203
O2    O     O_R   0.481420 0.271390 0.600630 -0.489423
C1    C     C_R   0.361968 0.231176 0.627519 0.544103
O3    O     O_R   0.263810 0.254550 0.589590 -0.464863
O4    O     O_R   0.300820 0.531200 0.560890 -0.425022
C2    C     C_R   0.411158 0.623283 0.602057 0.547347
O5    O     O_R   0.491480 0.744020 0.564270 -0.415641
O6    O     O_R   0.726290 0.693800 0.583010 -0.507037
C3    C     C_R   0.775599 0.618237 0.626973 0.582281
O7    O     O_R   0.747830 0.500190 0.434090 -0.401691
O8    O     O_R   0.475680 0.273800 0.437630 -0.460673
C4    C     C_R   0.349076 0.221668 0.402902 0.586074
O9    O     O_R   0.257620 0.257160 0.413750 -0.453449
O10   O     O_R   0.295080 0.533620 0.397890 -0.443496
C5    C     C_R   0.365226 0.656048 0.361460 0.592489
O11   O     O_R   0.485280 0.746620 0.388440 -0.435937
O12   O     O_R   0.720550 0.696220 0.420010 -0.424400
C6    C     C_R   0.705440 0.587476 0.388939 0.560602
Cr1   Cr    Cr6+3 0.608440 0.389080 0.519680 1.202278
Cr2   Cr    Cr6+3 0.288640 0.400090 0.490760 1.212480
Cr3   Cr    Cr6+3 0.602940 0.710800 0.489510 1.219157
O13   O     O_3   0.500010 0.499990 0.499980 -0.418023
C7    C     C_R   0.353885 0.651417 0.839283 0.013121
C8    C     C_R   0.252506 0.539453 0.795898 -0.114978
C9    C     C_R   0.275921 0.525122 0.721217 -0.077714
C10   C     C_R   0.507541 0.733326 0.732575 0.156117
C11   C     C_R   0.489242 0.733553 0.811784 0.372275
C12   C     C_3   0.098434 0.490855 0.772874 0.313269
C13   C     C_3   0.122835 0.473747 0.691300 0.592391
C14   C     C_R   0.396645 0.629613 0.684956 -0.065758
H1    H     H_    0.028581 0.390728 0.808114 0.148360
C15   C     C_1   0.821167 0.655227 0.706320 0.076677
C16   C     C_1   0.849452 0.683132 0.774084 0.092392
C17   C     C_1   0.345443 0.188660 0.709914 0.022018
C18   C     C_1   0.319968 0.159848 0.778182 0.026663
C19   C     C_1   0.328017 0.678783 0.279611 0.136435
C20   C     C_1   0.308310 0.700722 0.209148 0.159096
C21   C     C_R   0.782351 0.637405 0.144160 0.023371
C22   C     C_R   0.752198 0.511857 0.195488 -0.089748
C23   C     C_R   0.728083 0.502492 0.273018 -0.105029
C24   C     C_R   0.706642 0.717230 0.243798 0.170322
C25   C     C_R   0.728341 0.721487 0.162399 0.240471
C26   C     C_3   0.818593 0.416180 0.220199 0.369262
C27   C     C_3   0.794505 0.409420 0.306576 0.548559
C28   C     C_R   0.719632 0.609120 0.302443 -0.036046
C29   C     C_R   0.312763 0.135898 0.168446 -0.038031
C30   C     C_R   0.230194 0.183842 0.193050 -0.100497
C31   C     C_R   0.234625 0.194486 0.271997 -0.120251
C32   C     C_R   0.400484 0.104264 0.307861 0.459402
C33   C     C_R   0.395892 0.091263 0.227091 0.395612
C34   C     C_3   0.071659 0.119432 0.182935 0.566998
C35   C     C_3   0.078624 0.128946 0.271220 0.582176
C36   C     C_R   0.321588 0.160742 0.329536 -0.009212
O14   O     O_R   0.163320 0.092900 0.874450 -0.460870
O15   O     O_R   0.934650 0.822080 0.882840 -0.448921
C37   C     C_R   0.891737 0.701665 0.856113 0.579480
O16   O     O_R   0.915520 0.604140 0.893670 -0.484698
O17   O     O_R   0.191760 0.638110 0.923230 -0.470560
C38   C     C_R   0.315989 0.705168 0.899564 0.633925
O18   O     O_R   0.406180 0.826930 0.920660 -0.409165
O19   O     O_R   0.358620 0.062870 0.901950 -0.501747
C39   C     C_R   0.283224 0.113009 0.857729 0.540230
O20   O     O_R   0.163910 0.085460 0.050210 -0.443288
O21   O     O_R   0.935200 0.815170 0.045770 -0.418403
C40   C     C_R   0.877914 0.685057 0.080140 0.613887
O22   O     O_R   0.916120 0.596690 0.069430 -0.461935
O23   O     O_R   0.192310 0.631200 0.086170 -0.431126
C41   C     C_R   0.289266 0.734773 0.126256 0.596622
O24   O     O_R   0.406770 0.819480 0.096420 -0.397397
O25   O     O_R   0.359170 0.055960 0.064880 -0.449209
C42   C     C_R   0.280479 0.096844 0.088110 0.588243
Cr4   Cr    Cr6+3 0.052530 0.947560 0.964210 1.211775
Cr5   Cr    Cr6+3 0.059970 0.626800 0.992920 1.194174
Cr6   Cr    Cr6+3 0.373320 0.938440 0.995370 1.228114
O26   O     O_3   0.161940 0.837600 0.984160 -0.369949
N1    N     N_R   0.626060 0.855313 0.698424 0.118833
O27   O     O_R   0.753073 0.891112 0.732690 -0.259994
O28   O     O_R   0.604080 0.953831 0.653048 -0.220339
N2    N     N_R   0.736337 0.280447 0.185333 0.134579
O29   O     O_R   0.679040 0.277286 0.111840 -0.281836
O30   O     O_R   0.736502 0.165794 0.223619 -0.084149
F1    F     F_    0.698679 0.277401 0.338989 -0.524148
N3    N     N_R   0.925451 0.475494 0.360687 0.147381
O31   O     O_R   0.960358 0.394229 0.414442 -0.161797
O32   O     O_R   0.994513 0.612934 0.364705 -0.253206
F2    F     F_    0.471703 0.052415 0.364665 -0.482198
F3    F     F_    0.460177 0.022416 0.207776 -0.526693
F4    F     F_    0.003468 0.979347 0.165607 -0.579193
N4    N     N_R   0.023997 0.209282 0.126856 0.127697
O33   O     O_R   0.108997 0.310003 0.078018 -0.310199
O34   O     O_R   0.890404 0.172759 0.115163 -0.164130
N5    N     N_R   0.035292 0.225229 0.293646 0.127003
O35   O     O_R   0.123991 0.360684 0.290953 -0.330065
O36   O     O_R   0.936906 0.173835 0.341724 -0.134802
F5    F     F_    0.024614 0.997232 0.316575 -0.535199
F6    F     F_    0.597191 0.832970 0.856073 -0.534958
F7    F     F_    0.065918 0.600337 0.769423 -0.611560
N6    N     N_R   0.049974 0.325610 0.672258 0.083042
O37   O     O_R   0.058528 0.224963 0.723169 -0.336453
O38   O     O_R   0.974033 0.293069 0.604132 -0.174480
F8    F     F_    0.101131 0.566115 0.630277 -0.516017
N7    N     N_R   0.680501 0.825366 0.264567 0.090541
O39   O     O_R   0.757477 0.900936 0.322614 -0.137608
O40   O     O_R   0.610346 0.876220 0.213153 -0.204252
N8    N     N_R   0.673970 0.788819 0.097038 0.118721
O41   O     O_R   0.566814 0.707998 0.050185 -0.323941
O42   O     O_R   0.751989 0.920909 0.070838 -0.160220
N9    N     N_R   0.966377 0.487291 0.207404 0.085608
O43   O     O_R   0.009521 0.432435 0.163707 -0.216790
O44   O     O_R   0.042587 0.620914 0.219730 -0.380034

loop_
_geom_bond_atom_site_label_1
_geom_bond_atom_site_label_2
_geom_bond_distance
_ccdc_geom_bond_type
C12   F7    1.380994 S    
O15   C37   1.286382 A    
O11   Cr3   2.069291 S    
C24   C25   1.437263 A    
C27   N3    1.477690 S    
O4    Cr2   1.949374 S    
N9    O43   1.292520 A    
C7    C38   1.465818 S    
C4    O9    1.278583 A    
N8    O42   1.295894 A    
O8    Cr1   1.938267 S    
C10   C11   1.399783 A    
C13   N6    1.464206 S    
C12   C13   1.517841 S    
N1    O28   1.301605 A    
C21   C25   1.396522 A    
C27   F1    1.376590 S    
C21   C22   1.402611 A    
C26   N2    1.462883 S    
C5    O11   1.256501 A    
N6    O37   1.301391 A    
C20   C41   1.406144 S    
C24   N7    1.439830 S    
C35   F5    1.387458 S    
C17   C18   1.196267 T    
O16   Cr5   2.067546 S    
C3    C15   1.416061 S    
N7    O39   1.295661 A    
N3    O31   1.300126 A    
C41   O24   1.283552 A    
O25   Cr6   1.952569 S    
C10   N1    1.437529 S    
C7    C8    1.398165 A    
O25   C42   1.277712 A    
O23   Cr5   1.949735 S    
C7    C11   1.410904 A    
N4    O34   1.296537 A    
C8    C12   1.494606 S    
O15   Cr4   1.938131 S    
C16   C37   1.414630 S    
C38   O18   1.266021 A    
Cr3   O13   1.975267 S    
Cr5   O26   1.975597 S    
C11   F6    1.360294 S    
C23   C28   1.380300 A    
Cr4   O26   2.014849 S    
O6    Cr3   1.951027 S    
C9    C13   1.501658 S    
C31   C36   1.377538 A    
O1    Cr1   2.058938 S    
Cr6   O26   1.998375 S    
C34   C35   1.514456 S    
O10   Cr2   1.936894 S    
Cr1   O13   2.014645 S    
O1    C3    1.282697 A    
C8    C9    1.388955 A    
C22   C23   1.369296 A    
N2    O30   1.298071 A    
O6    C3    1.265602 A    
C30   C34   1.503774 S    
O14   C39   1.288983 A    
C1    C17   1.415394 S    
O17   C38   1.281797 A    
O5    Cr3   2.082398 S    
O22   Cr5   2.076139 S    
O12   Cr3   1.961258 S    
O23   C41   1.302960 A    
C26   C27   1.523713 S    
C30   C31   1.362632 A    
C21   C40   1.485736 S    
C31   C35   1.485738 S    
O7    Cr1   2.059066 S    
N5    O36   1.298883 A    
O12   C6    1.297339 A    
C13   F8    1.388506 S    
O24   Cr6   2.060444 S    
N1    O27   1.299219 A    
N7    O40   1.294760 A    
C29   C42   1.439608 S    
C33   F3    1.350672 S    
N3    O32   1.303252 A    
Cr2   O13   1.998807 S    
C10   C14   1.425443 A    
N6    O38   1.300743 A    
C35   N5    1.459258 S    
C37   O16   1.252090 A    
C1    O3    1.265796 A    
C6    C28   1.476706 S    
C5    C19   1.401913 S    
C9    C14   1.402496 A    
C29   C30   1.382710 A    
C19   C20   1.188995 T    
O9    Cr2   2.064258 S    
C2    C14   1.466404 S    
O2    Cr1   1.938330 S    
C32   F2    1.357262 S    
C12   H1    1.111409 S    
C4    C36   1.433239 S    
O20   C42   1.282470 A    
C34   F4    1.381219 S    
C22   C26   1.499866 S    
O8    C4    1.284519 A    
C2    O5    1.290732 A    
O19   Cr6   1.940129 S    
N8    O41   1.300756 A    
C29   C33   1.418445 A    
C15   C16   1.196714 T    
O2    C1    1.292985 A    
C40   O22   1.261963 A    
O21   C40   1.300030 A    
O4    C2    1.308751 A    
O7    C6    1.324293 A    
C32   C36   1.394994 A    
O18   Cr6   2.075503 S    
N5    O35   1.297643 A    
N9    O44   1.299492 A    
C18   C39   1.417047 S    
C26   N9    1.442085 S    
O21   Cr4   1.934315 S    
O19   C39   1.274706 A    
C25   N8    1.430317 S    
N2    O29   1.301798 A    
O3    Cr2   2.053500 S    
C23   C27   1.496112 S    
O14   Cr4   2.051588 S    
O20   Cr4   2.055853 S    
C32   C33   1.399556 A    
C24   C28   1.448759 A    
O10   C5    1.267802 A    
N4    O33   1.302937 A    
C34   N4    1.461377 S    
O17   Cr5   1.960590 S    
