data_mof_unit_29458.cif
_audit_creation_date              2012-12-10T20:51:45-0500
_audit_creation_method            fapswitch 2.2
_symmetry_space_group_name_H-M    P1
_symmetry_Int_Tables_number       1
_space_group_crystal_system       triclinic
_cell_length_a                    8.093922
_cell_length_b                    8.924384
_cell_length_c                    16.935313
_cell_angle_alpha                 89.786916
_cell_angle_beta                  95.344758
_cell_angle_gamma                 90.043459
_cell_volume                      1217.96588697

loop_
_atom_site_label
_atom_site_type_symbol
_atom_type_description
_atom_site_fract_x
_atom_site_fract_y
_atom_site_fract_z
_atom_type_partial_charge
C1    C     C_R   0.499909 0.217953 0.499910 0.935097
C2    C     C_R   0.569017 0.425351 0.140819 -0.165297
C3    C     C_R   0.560284 0.498376 0.903704 0.314437
C4    C     C_R   0.439696 0.501566 0.096296 0.314436
C5    C     C_R   0.683159 0.425863 0.865843 -0.241680
C6    C     C_R   0.316825 0.574088 0.134155 -0.241680
C7    C     C_R   0.673582 0.420208 0.783300 -0.023575
C8    C     C_R   0.326410 0.579764 0.216698 -0.023572
C9    C     C_1   0.499901 0.065195 0.499962 -0.232800
C10   C     C_1   0.500098 0.934805 0.500037 -0.232797
C11   C     C_R   0.798380 0.329964 0.745582 0.133098
C12   C     C_R   0.500090 0.782047 0.500089 0.935101
C13   C     C_R   0.968022 0.365022 0.758729 -0.150083
C14   C     C_R   0.085317 0.280731 0.722475 -0.120985
C15   C     C_R   0.034410 0.160765 0.673247 -0.116201
C16   C     C_R   0.866178 0.123952 0.660691 -0.114705
C17   C     C_R   0.748467 0.207634 0.696942 -0.114350
C18   C     C_R   0.201615 0.670017 0.254412 0.133100
C19   C     C_R   0.251532 0.792356 0.303046 -0.114358
C20   C     C_R   0.133824 0.876045 0.339294 -0.114707
C21   C     C_R   0.965591 0.839232 0.326742 -0.116200
C22   C     C_R   0.914681 0.719256 0.277522 -0.120983
C23   C     C_R   0.522832 0.495593 0.653441 0.856322
C24   C     C_R   0.031973 0.634958 0.241270 -0.150081
C25   C     C_R   0.477168 0.504406 0.346559 0.856320
C26   C     C_R   0.540006 0.493940 0.739190 -0.078641
C27   C     C_R   0.459992 0.506045 0.260810 -0.078643
C28   C     C_R   0.421106 0.571727 0.777585 -0.275426
C29   C     C_R   0.578889 0.428248 0.222417 -0.275425
C30   C     C_R   0.430969 0.574603 0.859183 -0.165300
H1    H     H_    0.679896 0.369305 0.255694 0.167861
H2    H     H_    0.826935 0.030570 0.622851 0.139656
H3    H     H_    0.618508 0.177672 0.686869 0.097616
H4    H     H_    0.381491 0.822319 0.313115 0.097617
H5    H     H_    0.173069 0.969435 0.377128 0.139653
H6    H     H_    0.874606 0.903961 0.354922 0.133257
H7    H     H_    0.784270 0.691707 0.267504 0.148761
H8    H     H_    0.990874 0.541658 0.203671 0.130020
H9    H     H_    0.320103 0.630679 0.744311 0.167862
H10   H     H_    0.663350 0.364766 0.112668 0.151512
H11   H     H_    0.336634 0.635183 0.887337 0.151513
H12   H     H_    0.782083 0.367565 0.901011 0.143510
H13   H     H_    0.217897 0.632378 0.098985 0.143508
H14   H     H_    0.009119 0.458315 0.796335 0.130021
H15   H     H_    0.215728 0.308279 0.732496 0.148763
H16   H     H_    0.125397 0.096042 0.645066 0.133260
N1    N     N_1   0.073640 0.500030 0.499990 -0.029800
N2    N     N_1   0.926360 0.499970 0.500010 -0.029799
N3    N     N_2   0.568026 0.488544 0.986768 -0.203801
N4    N     N_2   0.431953 0.511389 0.013232 -0.203803
O1    O     O_R   0.636850 0.285340 0.500000 -0.612479
O2    O     O_R   0.363150 0.714660 0.500000 -0.612478
O3    O     O_R   0.363100 0.285350 0.500000 -0.621469
O4    O     O_R   0.636900 0.714650 0.500000 -0.621469
O5    O     O_R   0.652140 0.498630 0.616140 -0.605462
O6    O     O_R   0.347860 0.501370 0.383860 -0.605462
O7    O     O_R   0.378390 0.498650 0.616130 -0.627047
O8    O     O_R   0.621610 0.501350 0.383870 -0.627049
Zn1   Zn    Zn3+2 0.682780 0.499990 0.500010 0.982653
Zn2   Zn    Zn3+2 0.317220 0.500010 0.499990 0.982655

loop_
_geom_bond_atom_site_label_1
_geom_bond_atom_site_label_2
_ccdc_geom_bond_type
C3    C30   A    
C2    C4    A    
C5    H12   S    
C30   H11   S    
C23   O5    A    
O5    Zn1   S    
C16   H2    S    
C11   C13   A    
C9    C10   T    
C19   C20   A    
C24   H8    S    
N1    N2    T    
C28   H9    S    
C25   O6    A    
C6    H13   S    
C23   O7    A    
C28   C30   A    
C3    N3    S    
C1    C9    S    
C29   H1    S    
C21   H6    S    
C21   C22   A    
C20   C21   A    
C7    C11   S    
C1    O1    A    
C7    C26   A    
C17   H3    S    
C2    C29   A    
C18   C24   A    
C10   C12   S    
C12   O2    A    
O3    Zn2   S    
N3    N4    D    
C14   H15   S    
O4    Zn1   S    
C22   C24   A    
C25   C27   S    
C25   O8    A    
C8    C18   S    
C15   C16   A    
C2    H10   S    
N1    Zn2   S    
O1    Zn1   S    
C27   C29   A    
N2    Zn1   S    
C4    C6    A    
C18   C19   A    
C23   C26   S    
C5    C7    A    
C8    C27   A    
C1    O3    A    
C14   C15   A    
C11   C17   A    
O7    Zn2   S    
C6    C8    A    
O2    Zn2   S    
C15   H16   S    
O8    Zn1   S    
C13   C14   A    
C22   H7    S    
C26   C28   A    
C20   H5    S    
C13   H14   S    
C12   O4    A    
O6    Zn2   S    
C4    N4    S    
C16   C17   A    
C3    C5    A    
C19   H4    S    
