data_mof_unit_66853.cif
_audit_creation_date              2013-03-05T15:57:21-0500
_audit_creation_method            fapswitch 2.2
_symmetry_space_group_name_H-M    P1
_symmetry_Int_Tables_number       1
_space_group_crystal_system       triclinic
_cell_length_a                    17.158194
_cell_length_b                    18.446655
_cell_length_c                    8.365978
_cell_angle_alpha                 89.94472
_cell_angle_beta                  101.789317
_cell_angle_gamma                 90.074164
_cell_volume                      2592.0669309

loop_
_atom_site_label
_atom_site_type_symbol
_atom_site_description
_atom_site_fract_x
_atom_site_fract_y
_atom_site_fract_z
_atom_type_partial_charge
P1    P     P_3+3 0.834140 0.419320 0.003900 0.457137
P2    P     P_3+3 0.834140 0.580680 0.503900 0.455908
P3    P     P_3+3 0.334140 0.919320 0.003900 0.445379
P4    P     P_3+3 0.334140 0.080680 0.503900 0.460438
O1    O     O_2   0.841960 0.394640 0.833410 -0.360147
O2    O     O_2   0.841960 0.605360 0.333410 -0.381256
O3    O     O_2   0.341960 0.894640 0.833410 -0.367525
O4    O     O_2   0.341960 0.105360 0.333410 -0.393603
O5    O     O_3   0.907950 0.463080 0.102990 -0.411777
O6    O     O_3   0.907950 0.536920 0.602990 -0.398783
O7    O     O_3   0.407950 0.963080 0.102990 -0.416648
O8    O     O_3   0.407950 0.036920 0.602990 -0.396983
O9    O     O_3   0.972780 0.329600 0.629720 -0.351172
O10   O     O_3   0.972780 0.670400 0.129720 -0.353327
O11   O     O_3   0.472780 0.829600 0.629720 -0.375536
O12   O     O_3   0.472780 0.170400 0.129720 -0.382581
O13   O     O_2   0.834316 0.281317 0.682717 -0.368165
O14   O     O_2   0.842075 0.728465 0.199433 -0.409144
O15   O     O_2   0.345535 0.765773 0.698237 -0.390952
O16   O     O_2   0.344447 0.234033 0.195885 -0.383849
O17   O     O_3   0.750293 0.475555 0.966137 -0.557787
O18   O     O_3   0.751550 0.522794 0.468417 -0.545858
O19   O     O_3   0.253109 0.978396 0.958030 -0.556291
O20   O     O_3   0.250819 0.023900 0.469228 -0.557376
O21   O     O_3   0.937834 0.183364 0.666815 -0.467840
O22   O     O_3   0.948149 0.818707 0.131982 -0.502688
O23   O     O_3   0.451371 0.677293 0.621912 -0.492926
O24   O     O_3   0.449800 0.323715 0.120326 -0.502822
H1    H     H_    0.038743 0.193875 0.567572 0.039831
H2    H     H_    0.009076 0.788609 0.946357 0.001359
H3    H     H_    0.565662 0.686544 0.754470 0.146627
H4    H     H_    0.564055 0.302214 0.244144 0.154261
C1    C     C_3   0.019044 0.083053 0.630872 -0.022145
C2    C     C_3   0.066865 0.876621 0.085299 -0.022907
C3    C     C_3   0.565221 0.620501 0.540828 -0.106127
C4    C     C_3   0.565575 0.387496 0.066093 -0.132769
H5    H     H_    0.630880 0.617261 0.582363 0.091171
H6    H     H_    0.630807 0.380877 0.078774 0.085399
H7    H     H_    0.055326 0.090295 0.754905 0.165172
H8    H     H_    0.099847 0.843992 0.188375 0.120205
P5    P     P_3+3 0.165830 0.418670 0.685610 0.454475
P6    P     P_3+3 0.165830 0.581330 0.185610 0.459048
P7    P     P_3+3 0.665830 0.918670 0.685610 0.466282
P8    P     P_3+3 0.665830 0.081330 0.185610 0.464463
P9    P     P_3+3 0.099749 0.262403 0.106774 0.493997
P10   P     P_3+3 0.095980 0.740521 0.609782 0.455454
P11   P     P_3+3 0.598643 0.761496 0.108447 0.436503
P12   P     P_3+3 0.596858 0.239809 0.610977 0.450653
O25   O     O_2   0.157990 0.394030 0.856030 -0.370491
O26   O     O_2   0.157990 0.605970 0.356030 -0.379406
O27   O     O_2   0.657990 0.894030 0.856030 -0.386948
O28   O     O_2   0.657990 0.105970 0.356030 -0.362863
O29   O     O_3   0.027110 0.329490 0.059550 -0.344445
O30   O     O_3   0.027110 0.670510 0.559550 -0.402443
O31   O     O_3   0.527110 0.829490 0.059550 -0.386050
O32   O     O_3   0.527110 0.170510 0.559550 -0.388100
O33   O     O_2   0.156597 0.270266 0.986490 -0.372811
O34   O     O_2   0.150114 0.738552 0.482793 -0.375142
O35   O     O_2   0.653970 0.766931 0.984433 -0.397346
O36   O     O_2   0.653645 0.235593 0.489431 -0.395014
O37   O     O_3   0.249166 0.475653 0.723364 -0.573470
O38   O     O_3   0.249104 0.524423 0.221877 -0.564777
O39   O     O_3   0.747135 0.977935 0.722442 -0.537714
O40   O     O_3   0.751224 0.027476 0.232251 -0.540542
O41   O     O_3   0.049540 0.181188 0.049959 -0.472736
O42   O     O_3   0.041004 0.820827 0.570889 -0.516515
O43   O     O_3   0.550174 0.677911 0.066954 -0.510551
O44   O     O_3   0.544929 0.321334 0.566515 -0.485638
C5    C     C_3   0.007492 0.162723 0.171846 0.409808
C6    C     C_3   0.960307 0.801250 0.552269 0.436023
C7    C     C_3   0.471690 0.685352 0.090662 0.399570
C8    C     C_3   0.470782 0.312790 0.611888 0.406251
H9    H     H_    0.987801 0.210830 0.233664 0.009228
H10   H     H_    0.942211 0.767674 0.441255 0.192131
H11   H     H_    0.436002 0.717417 0.988979 0.147464
H12   H     H_    0.432618 0.274987 0.526242 0.131614
H13   H     H_    0.045856 0.127787 0.263852 0.084039
H14   H     H_    0.949816 0.771452 0.660949 0.019763
H15   H     H_    0.470160 0.711925 0.209337 0.029757
H16   H     H_    0.478076 0.292642 0.739428 0.010899
C9    C     C_3   0.932639 0.121532 0.095853 -0.787975
C10   C     C_3   0.907192 0.866743 0.530707 -0.825292
C11   C     C_3   0.433453 0.610990 0.091508 -0.810093
C12   C     C_3   0.427833 0.384852 0.601683 -0.772562
H17   H     H_    0.368515 0.616731 0.084306 0.197913
H18   H     H_    0.365728 0.377155 0.616241 0.183285
H19   H     H_    0.891620 0.158995 0.015845 0.232876
H20   H     H_    0.847326 0.851251 0.461951 0.195159
H21   H     H_    0.947801 0.075147 0.024449 0.312712
H22   H     H_    0.933405 0.908546 0.463606 0.330425
H23   H     H_    0.444297 0.578305 0.987095 0.278633
H24   H     H_    0.426911 0.409404 0.481258 0.314990
C13   C     C_3   0.232104 0.458960 0.292290 0.394080
C14   C     C_3   0.230512 0.542630 0.784457 0.364802
C15   C     C_3   0.733263 0.953641 0.238758 0.401075
C16   C     C_3   0.723996 0.045804 0.772053 0.364509
H25   H     H_    0.247742 0.464973 0.426327 0.119917
H26   H     H_    0.239791 0.538517 0.918650 0.113199
H27   H     H_    0.741764 0.937456 0.368659 0.093313
H28   H     H_    0.724041 0.043704 0.903946 0.075494
H29   H     H_    0.168981 0.441900 0.254563 0.100434
H30   H     H_    0.168828 0.560913 0.733468 0.116746
H31   H     H_    0.672466 0.937804 0.175536 0.123515
H32   H     H_    0.665011 0.064158 0.703365 0.127591
C17   C     C_3   0.283872 0.399922 0.241608 -0.870856
C18   C     C_3   0.286950 0.599390 0.740899 -0.857171
C19   C     C_3   0.791651 0.912877 0.159070 -0.864416
C20   C     C_3   0.784051 0.101606 0.741894 -0.757054
H33   H     H_    0.343609 0.421491 0.236172 0.303771
H34   H     H_    0.348076 0.577337 0.756792 0.288678
H35   H     H_    0.853316 0.924293 0.222501 0.299770
H36   H     H_    0.844426 0.083075 0.796912 0.290966
H37   H     H_    0.290344 0.354167 0.329188 0.216878
H38   H     H_    0.287679 0.647952 0.818877 0.215222
H39   H     H_    0.779280 0.854023 0.160745 0.244561
H40   H     H_    0.774012 0.154381 0.796127 0.198708
H41   H     H_    0.256391 0.379437 0.119172 0.270122
H42   H     H_    0.267279 0.615557 0.611938 0.270377
H43   H     H_    0.786955 0.932063 0.032354 0.261435
H44   H     H_    0.779640 0.108582 0.609285 0.276625
Ba1   Ba    Ba6+2 1.000000 0.447380 0.844850 1.568353
Ba2   Ba    Ba6+2 0.000000 0.552620 0.344850 1.558766
Ba3   Ba    Ba6+2 0.500000 0.947380 0.844850 1.540353
Ba4   Ba    Ba6+2 0.500000 0.052620 0.344850 1.551067
C21   C     C_3   0.770414 0.544475 0.917829 0.382460
C22   C     C_3   0.770348 0.456838 0.403021 0.395311
C23   C     C_3   0.281501 0.047772 0.933143 0.439720
C24   C     C_3   0.268501 0.958000 0.402277 0.396715
H45   H     H_    0.775657 0.542107 0.788552 0.105346
H46   H     H_    0.761641 0.462792 0.269308 0.109572
H47   H     H_    0.316488 0.046292 0.835732 0.096406
H48   H     H_    0.256325 0.963285 0.267774 0.105676
H49   H     H_    0.826294 0.565681 0.994793 0.116778
H50   H     H_    0.831916 0.438223 0.454142 0.099793
H51   H     H_    0.318845 0.069192 0.046980 0.135381
H52   H     H_    0.330796 0.939964 0.447665 0.105524
C25   C     C_3   0.704081 0.596529 0.934668 -0.795205
C26   C     C_3   0.713552 0.399253 0.441470 -0.793974
C27   C     C_3   0.211398 0.098272 0.882335 -0.946877
C28   C     C_3   0.214233 0.900366 0.449068 -0.840550
H53   H     H_    0.645340 0.573503 0.877958 0.290605
H54   H     H_    0.652173 0.420473 0.421820 0.313274
H55   H     H_    0.185295 0.089500 0.751302 0.229523
H56   H     H_    0.151829 0.919618 0.425784 0.293920
H57   H     H_    0.711832 0.648684 0.874442 0.195362
H58   H     H_    0.714433 0.351105 0.363001 0.188418
H59   H     H_    0.230238 0.155275 0.900299 0.243257
H60   H     H_    0.218010 0.850384 0.378421 0.209211
H61   H     H_    0.704986 0.606326 0.065572 0.274416
H62   H     H_    0.731032 0.383156 0.570937 0.267734
H63   H     H_    0.166946 0.088844 0.959069 0.314455
H64   H     H_    0.232597 0.887951 0.580336 0.266680
O45   O     O_3   0.092100 0.536880 0.086720 -0.397431
O46   O     O_3   0.092100 0.463120 0.586720 -0.401077
O47   O     O_3   0.592100 0.036880 0.086720 -0.412475
O48   O     O_3   0.592100 0.963120 0.586720 -0.396358
P13   P     P_3+3 0.899171 0.736408 0.079715 0.444880
P14   P     P_3+3 0.897657 0.264541 0.581540 0.489919
P15   P     P_3+3 0.402549 0.239530 0.077192 0.453995
P16   P     P_3+3 0.402716 0.760618 0.577656 0.465211
C29   C     C_3   0.987579 0.156650 0.567614 0.211650
C30   C     C_3   0.990536 0.836750 0.009807 0.252293
C31   C     C_3   0.533793 0.684524 0.625341 0.226039
C32   C     C_3   0.531562 0.316685 0.119763 0.294686
H65   H     H_    0.952945 0.148704 0.442578 0.039154
H66   H     H_    0.952843 0.871943 0.918383 0.106194
H67   H     H_    0.550007 0.733583 0.562751 0.047455
H68   H     H_    0.543499 0.274716 0.033023 0.009809
H69   H     H_    0.553416 0.629931 0.407431 0.123802
H70   H     H_    0.540251 0.397538 0.935605 0.131523
H71   H     H_    0.056188 0.059790 0.549319 0.086279
H72   H     H_    0.104510 0.881788 0.992501 0.092012
H73   H     H_    0.458594 0.581873 0.205827 0.303784
H74   H     H_    0.457664 0.422021 0.698651 0.277436
H75   H     H_    0.902229 0.100338 0.191140 0.230201
H76   H     H_    0.899598 0.887254 0.650218 0.264356
C33   C     C_R   0.137303 0.677552 0.921026 -0.501127
C34   C     C_R   0.136984 0.321723 0.421971 -0.483079
C35   C     C_R   0.637163 0.177672 0.922412 -0.527106
C36   C     C_R   0.641640 0.825368 0.416910 -0.536862
C37   C     C_R   0.864387 0.321368 0.264618 -0.476183
C38   C     C_R   0.859254 0.674722 0.769224 -0.522460
C39   C     C_R   0.361891 0.823042 0.266583 -0.532766
C40   C     C_R   0.364389 0.178564 0.764484 -0.533318
C41   C     C_R   0.792233 0.211873 0.299754 -0.192789
C42   C     C_R   0.790085 0.786078 0.800980 -0.217445
C43   C     C_R   0.291510 0.712337 0.299862 -0.185761
C44   C     C_R   0.291622 0.287508 0.799936 -0.205674
C45   C     C_R   0.849485 0.263972 0.362589 0.165014
C46   C     C_R   0.845069 0.732506 0.865751 0.205509
C47   C     C_R   0.347752 0.765211 0.363798 0.236514
C48   C     C_R   0.349054 0.235566 0.862549 0.213154
C49   C     C_R   0.817443 0.332540 0.109213 0.281749
C50   C     C_R   0.815477 0.666035 0.610519 0.262614
C51   C     C_R   0.315645 0.833561 0.110321 0.260028
C52   C     C_R   0.317430 0.167325 0.609029 0.287392
C53   C     C_R   0.756255 0.280947 0.045926 -0.078938
C54   C     C_R   0.756254 0.719005 0.544877 -0.083826
C55   C     C_R   0.255528 0.781289 0.045733 -0.073222
C56   C     C_R   0.256330 0.218888 0.545224 -0.053933
C57   C     C_R   0.243575 0.719387 0.141961 -0.080598
C58   C     C_R   0.243711 0.280397 0.642107 -0.066737
C59   C     C_R   0.744247 0.219046 0.142147 -0.063871
C60   C     C_R   0.743811 0.780450 0.641714 -0.059773
C61   C     C_R   0.183119 0.667302 0.077964 0.279263
C62   C     C_R   0.182930 0.332253 0.578628 0.278553
C63   C     C_R   0.683129 0.167456 0.079086 0.272345
C64   C     C_R   0.684960 0.833743 0.576373 0.281698
C65   C     C_R   0.151937 0.735168 0.823193 0.222126
C66   C     C_R   0.152691 0.265012 0.323023 0.153161
C67   C     C_R   0.651076 0.235746 0.825388 0.209206
C68   C     C_R   0.655169 0.767085 0.320534 0.218015
C69   C     C_R   0.208239 0.787967 0.887222 -0.214511
C70   C     C_R   0.209179 0.212312 0.386288 -0.213624
C71   C     C_R   0.707453 0.288577 0.889089 -0.207199
C72   C     C_R   0.709847 0.713198 0.385497 -0.202123
H77   H     H_    0.285861 0.666333 0.375530 0.185221
H78   H     H_    0.285101 0.332880 0.876812 0.187866
H79   H     H_    0.785034 0.166960 0.377034 0.188190
H80   H     H_    0.784111 0.831546 0.876887 0.179867
H81   H     H_    0.712884 0.334807 0.813729 0.191828
H82   H     H_    0.715144 0.667088 0.309922 0.190690
H83   H     H_    0.214074 0.833938 0.811654 0.183214
H84   H     H_    0.216294 0.167482 0.307962 0.190614
H85   H     H_    0.091670 0.638489 0.871510 0.168612
H86   H     H_    0.091063 0.360488 0.372682 0.163985
H87   H     H_    0.592011 0.138255 0.872362 0.171324
H88   H     H_    0.597927 0.865725 0.365422 0.176011
H89   H     H_    0.909673 0.360651 0.314704 0.161563
H90   H     H_    0.903394 0.634709 0.820620 0.170304
H91   H     H_    0.407615 0.862007 0.316191 0.175576
H92   H     H_    0.410605 0.140084 0.814003 0.171748
N1    N     N_R   0.953882 0.033911 0.640046 0.273572
O49   O     O_R   0.954345 0.998397 0.774447 -0.421931
O50   O     O_R   0.892478 0.029562 0.519903 -0.400432
N2    N     N_R   0.050402 0.948641 0.141900 0.268124
O51   O     O_R   0.009189 0.956430 0.254949 -0.397628
O52   O     O_R   0.084900 0.004866 0.093317 -0.402254
N3    N     N_R   0.528845 0.552238 0.573918 0.299997
O53   O     O_R   0.573561 0.498136 0.635846 -0.374097
O54   O     O_R   0.453138 0.541831 0.518754 -0.361821
N4    N     N_R   0.551091 0.450752 0.160715 0.270667
O55   O     O_R   0.507004 0.446925 0.269684 -0.345454
O56   O     O_R   0.586742 0.511423 0.141651 -0.380263

loop_
_geom_bond_atom_site_label_1
_geom_bond_atom_site_label_2
_geom_bond_distance
_ccdc_geom_bond_type
C67   C71   1.399070 A    
P1    O17   1.750185 S    
O10   Ba2   2.798092 S    
C35   C67   1.392946 A    
C4    H70   1.104912 S    
C6    H14   1.107655 S    
O27   Ba3   2.868613 S    
C5    H13   1.110940 S    
C20   H44   1.103859 S    
P3    O19   1.747288 S    
N3    O53   1.300629 A    
O26   Ba2   2.866265 S    
P5    O37   1.749709 S    
P4    O4    1.528542 D    
O6    Ba1   2.830415 S    
C2    N2    1.458036 S    
C28   H60   1.104754 S    
C7    H15   1.112796 S    
P7    O39   1.748513 S    
Ba3   Ba4   4.609823 S    
C70   H84   1.078038 S    
Ba3   O47   2.830278 S    
C26   H62   1.103696 S    
P8    O40   1.747965 S    
P9    O33   1.544524 D    
C1    H7    1.103734 S    
O11   Ba3   2.799849 S    
C16   H28   1.103903 S    
C18   H38   1.107239 S    
C29   H65   1.102229 S    
P1    O1    1.529464 D    
O15   P16   1.547300 D    
O32   Ba4   2.799168 S    
C25   H57   1.106005 S    
C3    H5    1.110718 S    
C23   H51   1.106512 S    
P10   O42   1.751405 S    
P3    O3    1.529464 D    
C24   H52   1.110045 S    
C43   H77   1.074290 S    
P4    O20   1.747092 S    
C10   H20   1.107145 S    
O18   C22   1.399288 S    
C14   H26   1.103763 S    
C15   H27   1.107314 S    
C33   C65   1.394318 A    
O1    Ba1   2.862895 S    
O41   C5    1.405579 S    
N2    O51   1.299609 A    
P4    Ba4   3.419042 S    
O22   P13   1.746431 S    
P4    C52   1.875441 S    
P5    Ba1   3.421316 S    
P5    C62   1.881375 S    
C36   C68   1.392350 A    
P13   C46   1.841781 S    
C25   H53   1.106904 S    
O23   C31   1.414769 S    
C30   H66   1.105768 S    
C37   C45   1.393339 A    
C38   H90   1.082143 S    
C14   C18   1.519088 S    
O20   C24   1.398290 S    
C60   C64   1.435581 A    
O21   C29   1.396931 S    
C15   H31   1.107860 S    
O16   P15   1.547334 D    
C6    H10   1.106968 S    
C39   C51   1.397252 A    
C40   C48   1.392314 A    
C21   H49   1.110930 S    
C5    H9    1.114532 S    
C38   C50   1.394742 A    
P4    O8    1.585896 S    
C37   C49   1.397699 A    
N1    O49   1.299398 A    
C28   H64   1.102746 S    
C51   C55   1.434022 A    
C53   C71   1.411935 A    
C8    H12   1.111983 S    
P6    O38   1.749772 S    
O28   Ba4   2.866265 S    
C9    H21   1.105319 S    
P8    O28   1.528782 D    
C33   H85   1.081889 S    
O30   Ba2   2.799168 S    
P9    O29   1.744369 S    
P11   C68   1.842929 S    
P10   O34   1.547940 D    
O12   P15   1.748685 S    
Ba2   O46   2.830388 S    
C17   H41   1.103288 S    
P2    O2    1.528542 D    
C27   H55   1.108153 S    
C12   H74   1.104846 S    
C24   H48   1.105950 S    
C22   H50   1.110333 S    
C19   H43   1.104537 S    
C34   C66   1.394928 A    
P3    Ba3   3.417538 S    
C26   H58   1.106911 S    
P12   O36   1.547465 D    
C7    C11   1.520420 S    
Ba3   O48   2.938897 S    
P2    Ba2   3.419042 S    
H3    C31   1.107274 S    
C7    H11   1.111575 S    
Ba1   O46   2.938897 S    
O10   P13   1.743521 S    
C42   C60   1.408644 A    
C9    H75   1.108796 S    
C68   C72   1.398826 A    
C32   H68   1.109110 S    
P6    O45   1.590012 S    
P1    O5    1.585041 S    
C40   H92   1.082102 S    
N3    O54   1.300697 A    
C26   H54   1.104343 S    
P14   C45   1.849304 S    
C37   H89   1.081912 S    
C52   C56   1.435849 A    
O37   C14   1.399733 S    
O4    Ba4   2.865217 S    
C21   C25   1.518510 S    
O23   P16   1.752852 S    
C66   C70   1.398725 A    
C42   H80   1.070090 S    
O39   C16   1.402469 S    
C36   H88   1.082182 S    
O24   P15   1.754247 S    
P3    C51   1.872811 S    
C20   H36   1.098921 S    
P2    C50   1.870285 S    
C3    C31   1.531190 S    
C42   C46   1.397404 A    
C1    C29   1.516061 S    
C4    C32   1.533755 S    
P2    O18   1.749650 S    
H1    C29   1.113909 S    
C27   H63   1.106174 S    
O9    Ba1   2.799849 S    
C19   H35   1.102555 S    
C39   H91   1.081867 S    
N4    O56   1.299982 A    
C33   C61   1.398466 A    
P12   C67   1.845717 S    
C31   H67   1.108387 S    
O44   C8    1.408623 S    
O25   Ba1   2.868613 S    
P10   O30   1.742140 S    
O5    Ba2   2.830307 S    
C3    N3    1.455921 S    
P11   O43   1.751928 S    
P6    Ba2   3.419778 S    
C9    H19   1.108529 S    
P12   O44   1.749524 S    
C12   H24   1.101355 S    
O13   P14   1.539701 D    
N1    O50   1.301517 A    
C19   H39   1.106585 S    
Ba1   Ba2   4.609823 S    
C8    C12   1.514605 S    
C15   C19   1.513075 S    
P6    O26   1.528782 D    
C5    C9    1.515196 S    
C27   H59   1.101056 S    
C56   C58   1.437133 A    
C25   H61   1.107095 S    
C10   H76   1.101762 S    
C34   C62   1.398132 A    
P5    O25   1.527860 D    
Ba4   O48   2.830388 S    
C54   C72   1.410531 A    
C54   C60   1.435153 A    
C3    H69   1.106383 S    
Ba2   O45   2.939714 S    
C2    H8    1.107527 S    
O38   C13   1.399376 S    
H2    C30   1.114559 S    
P7    Ba3   3.421316 S    
C13   H29   1.109654 S    
P7    O48   1.590877 S    
P2    O6    1.585896 S    
O31   Ba3   2.797411 S    
C13   H25   1.104059 S    
O9    P14   1.746091 S    
O40   C15   1.399516 S    
C1    N1    1.452579 S    
P6    C61   1.875964 S    
O24   C32   1.410011 S    
P11   O31   1.744927 S    
P5    O46   1.590877 S    
C18   H34   1.107797 S    
C17   H37   1.107860 S    
P12   O32   1.743025 S    
C16   H32   1.109958 S    
C17   H33   1.108557 S    
C22   C26   1.518632 S    
C57   C61   1.434324 A    
C41   H79   1.072835 S    
P1    Ba1   3.417538 S    
N4    O55   1.299924 A    
P7    C64   1.877197 S    
C55   C69   1.411498 A    
P8    O47   1.590012 S    
C43   C47   1.398675 A    
C56   C70   1.413405 A    
C28   H56   1.107320 S    
P16   C47   1.846085 S    
C12   H18   1.105948 S    
C2    C30   1.521652 S    
C39   C47   1.391629 A    
C41   C45   1.397308 A    
C44   H78   1.075797 S    
C35   C63   1.397519 A    
P10   C65   1.848960 S    
C11   H23   1.108555 S    
C43   C57   1.412224 A    
O19   C23   1.399208 S    
O2    Ba2   2.865217 S    
P9    C66   1.851743 S    
C10   H22   1.101577 S    
C44   C48   1.397885 A    
C4    N4    1.460439 S    
C41   C59   1.410773 A    
C23   H47   1.106905 S    
C11   H73   1.104659 S    
O12   Ba4   2.798092 S    
Ba1   O45   2.830278 S    
O11   P16   1.742784 S    
C13   C17   1.520562 S    
O14   P13   1.544217 D    
C40   C52   1.398374 A    
C2    H72   1.110686 S    
P9    O41   1.744483 S    
C69   H83   1.073984 S    
C20   H40   1.102942 S    
C50   C54   1.436123 A    
O8    Ba3   2.830415 S    
C59   C63   1.433892 A    
P7    O27   1.527860 D    
C49   C53   1.435128 A    
P15   C48   1.843625 S    
H4    C32   1.107993 S    
C44   C58   1.411717 A    
N2    O52   1.298907 A    
C53   C59   1.435160 A    
O43   C7    1.407579 S    
P8    C63   1.873633 S    
C35   H87   1.082025 S    
C11   H17   1.108693 S    
C6    C10   1.502631 S    
C65   C69   1.398530 A    
C34   H86   1.081810 S    
C72   H82   1.075270 S    
P3    O7    1.585041 S    
C4    H6    1.109384 S    
P11   O35   1.545851 D    
O22   C30   1.409579 S    
C21   H45   1.104339 S    
O42   C6    1.408018 S    
C14   H30   1.109972 S    
C8    H16   1.112233 S    
C58   C62   1.435255 A    
Ba4   O47   2.939714 S    
P8    Ba4   3.419778 S    
O21   P14   1.739591 S    
C55   C57   1.434972 A    
C22   H46   1.103296 S    
P1    C49   1.876197 S    
C16   C20   1.512622 S    
O29   Ba1   2.797411 S    
C38   C46   1.389313 A    
O7    Ba4   2.830307 S    
C36   C64   1.396776 A    
O17   C21   1.397751 S    
C23   C27   1.512785 S    
C18   H42   1.103487 S    
C71   H81   1.075252 S    
O3    Ba3   2.862895 S    
C24   C28   1.515300 S    
C1    H71   1.111199 S    
