data_mof_unit_5956.cif
_audit_creation_date              2012-12-10T16:57:09-0500
_audit_creation_method            fapswitch 2.2
_symmetry_space_group_name_H-M    P1
_symmetry_Int_Tables_number       1
_space_group_crystal_system       triclinic
_cell_length_a                    7.758869
_cell_length_b                    8.634709
_cell_length_c                    16.550677
_cell_angle_alpha                 91.789566
_cell_angle_beta                  80.833413
_cell_angle_gamma                 93.602802
_cell_volume                      1092.24495567

loop_
_atom_site_label
_atom_site_type_symbol
_atom_type_description
_atom_site_fract_x
_atom_site_fract_y
_atom_site_fract_z
_atom_type_partial_charge
C1    C     C_R   0.545758 0.794404 0.497877 0.881559
C2    C     C_R   0.422077 0.660295 0.241448 -0.197899
C3    C     C_R   0.626659 0.597920 0.855987 -0.143601
C4    C     C_R   0.449972 0.730496 0.166030 -0.158707
C5    C     C_R   0.474561 0.656074 0.901453 0.205683
C6    C     C_R   0.599057 0.700127 0.109388 0.199424
C7    C     C_R   0.320332 0.651693 0.867526 -0.181440
C8    C     C_R   0.726544 0.608929 0.131297 -0.168817
C9    C     C_R   0.319004 0.595192 0.788197 -0.184207
C10   C     C_R   0.699996 0.540427 0.207602 -0.184919
C11   C     C_2   0.465288 0.700978 0.987930 -0.222751
C12   C     C_R   0.454258 0.205591 0.501984 0.889693
C13   C     C_2   0.607515 0.734932 0.023041 -0.237101
C14   C     C_2   0.570283 0.956703 0.496711 0.268714
C15   C     C_2   0.429768 0.043254 0.502862 0.261642
C16   C     C_R   0.478352 0.506386 0.654856 0.846674
C17   C     C_R   0.523873 0.506758 0.345514 0.839216
C18   C     C_R   0.472448 0.542152 0.741852 -0.030768
C19   C     C_R   0.545367 0.562630 0.262219 -0.029275
C20   C     C_R   0.625567 0.542096 0.776614 -0.199607
F1    F     F_    0.738855 0.016798 0.489459 -0.626848
F2    F     F_    0.261216 0.983143 0.509981 -0.628178
H1    H     H_    0.745299 0.500980 0.742179 0.160031
H2    H     H_    0.745692 0.591288 0.881560 0.122256
H3    H     H_    0.022979 0.380484 0.439478 0.215202
H4    H     H_    0.977011 0.619479 0.560548 0.212544
H5    H     H_    0.305315 0.684892 0.283989 0.174744
H6    H     H_    0.799022 0.469169 0.223589 0.155450
H7    H     H_    0.199026 0.596848 0.762637 0.159622
H8    H     H_    0.735696 0.753053 0.986323 0.144966
H9    H     H_    0.338012 0.682188 0.025661 0.147852
H10   H     H_    0.200672 0.691902 0.902555 0.122891
H11   H     H_    0.841937 0.584131 0.087838 0.123400
H12   H     H_    0.351984 0.803685 0.150734 0.137080
N1    N     N_2   0.953500 0.457650 0.478520 -0.149235
N2    N     N_2   0.046500 0.542350 0.521480 -0.151384
O1    O     O_R   0.388470 0.738640 0.505270 -0.572702
O2    O     O_R   0.611530 0.261360 0.494730 -0.567645
O3    O     O_R   0.679650 0.711510 0.491500 -0.581669
O4    O     O_R   0.320350 0.288490 0.508500 -0.578443
O5    O     O_R   0.337210 0.515200 0.623500 -0.622054
O6    O     O_R   0.662790 0.484800 0.376500 -0.617062
O7    O     O_R   0.628380 0.488060 0.609730 -0.627207
O8    O     O_R   0.371620 0.511940 0.390270 -0.630977
Zn1   Zn    Zn3+2 0.305580 0.518120 0.509190 1.009334
Zn2   Zn    Zn3+2 0.694420 0.481880 0.490810 1.014520

loop_
_geom_bond_atom_site_label_1
_geom_bond_atom_site_label_2
_ccdc_geom_bond_type
C12   O4    A    
C2    C4    A    
C20   H1    S    
C2    H5    S    
C1    C14   S    
C9    H7    S    
C9    C18   A    
N1    N2    D    
C12   C15   S    
C1    O1    A    
C10   C19   A    
C17   O8    A    
C11   H9    S    
N2    Zn1   S    
C6    C13   S    
C11   C13   D    
C16   O7    A    
C3    H2    S    
H3    N1    S    
O3    Zn2   S    
C14   F1    S    
H4    N2    S    
C17   C19   S    
C5    C11   S    
C18   C20   A    
C8    H11   S    
C12   O2    A    
O4    Zn1   S    
C8    C10   A    
O7    Zn2   S    
C4    H12   S    
O2    Zn2   S    
C4    C6    A    
C1    O3    A    
O1    Zn1   S    
C7    C9    A    
C13   H8    S    
C3    C20   A    
O8    Zn1   S    
C16   C18   S    
O6    Zn2   S    
C10   H6    S    
C5    C7    A    
O5    Zn1   S    
C14   C15   D    
C6    C8    A    
C7    H10   S    
C2    C19   A    
C17   O6    A    
N1    Zn2   S    
C16   O5    A    
C15   F2    S    
C3    C5    A    
