data_mof_unit_45040.cif
_audit_creation_date              2012-10-26T19:04:44-0400
_audit_creation_method            fapswitch 2.2
_symmetry_space_group_name_H-M    P1
_symmetry_Int_Tables_number       1
_space_group_crystal_system       triclinic
_cell_length_a                    9.657297
_cell_length_b                    10.839313
_cell_length_c                    13.425151
_cell_angle_alpha                 96.403184
_cell_angle_beta                  71.80311
_cell_angle_gamma                 88.649413
_cell_volume                      1324.17351897

loop_
_atom_site_label
_atom_site_type_symbol
_atom_type_description
_atom_site_fract_x
_atom_site_fract_y
_atom_site_fract_z
_atom_type_partial_charge
Br1   Br    Br    0.757418 0.707643 0.661834 -0.432335
Br2   Br    Br    0.821045 0.270586 0.289364 -0.352982
Br3   Br    Br    0.947433 0.011620 0.336373 -0.471671
Br4   Br    Br    0.371432 0.271918 0.278347 -0.372297
Br5   Br    Br    0.089205 0.691566 0.672672 -0.462502
Br6   Br    Br    0.174869 0.490890 0.182624 -0.492988
C1    C     C_R   0.497191 0.738643 0.500340 0.557440
C2    C     C_R   0.372294 0.489848 0.815205 -0.007755
C3    C     C_R   0.222043 0.901044 0.519660 -0.051430
C4    C     C_R   0.421269 0.495436 0.699893 0.546071
C5    C     C_R   0.089131 0.970436 0.565860 -0.071822
C6    C     C_R   0.086040 0.090210 0.615945 -0.114864
C7    C     C_R   0.216825 0.145508 0.608993 -0.099095
C8    C     C_R   0.352207 0.078168 0.556905 0.024909
C9    C     C_R   0.354295 0.948861 0.527173 0.035348
C10   C     C_R   0.488000 0.875730 0.507355 0.004568
C11   C     C_R   0.614455 0.936348 0.508671 -0.091088
C12   C     C_R   0.426877 0.480208 0.981671 0.054499
C13   C     C_R   0.614003 0.064743 0.519459 -0.108698
C14   C     C_R   0.486041 0.135881 0.534000 -0.007861
C15   C     C_R   0.911733 0.284609 0.397815 0.213559
C16   C     C_R   0.495287 0.265674 0.512862 0.567476
C17   C     C_R   0.992591 0.172613 0.391516 0.110823
C18   C     C_R   0.132289 0.177721 0.395406 -0.118225
C19   C     C_R   0.194097 0.290869 0.395862 0.206134
C20   C     C_R   0.103210 0.401945 0.441799 0.113039
C21   C     C_R   0.952676 0.399629 0.443780 0.076541
C22   C     C_R   0.897033 0.586856 0.562637 0.276951
C23   C     C_R   0.469135 0.454414 0.869367 0.013414
C24   C     C_R   0.043809 0.584736 0.564361 0.247321
C25   C     C_R   0.578678 0.505567 0.300244 0.590250
C26   C     C_R   0.794096 0.418777 0.014109 -0.105514
C27   C     C_R   0.624336 0.499505 0.184242 0.013638
C28   C     C_R   0.228079 0.530133 0.873212 -0.147157
C29   C     C_R   0.179616 0.536296 0.982153 -0.088062
C30   C     C_R   0.275051 0.510178 0.037414 0.172340
C31   C     C_R   0.538921 0.472959 0.030337 0.062442
C32   C     C_R   0.681361 0.422522 0.969072 0.059872
C33   C     C_R   0.710538 0.376619 0.863288 -0.105384
C34   C     C_R   0.605616 0.390831 0.814438 -0.091353
C35   C     C_R   0.517692 0.519719 0.136166 -0.067118
C36   C     C_R   0.765801 0.457623 0.121169 -0.089730
Cu1   Cu    Cu3+1 0.359340 0.500010 0.500010 1.049257
Cu2   Cu    Cu3+1 0.640660 0.499990 0.499990 1.067383
H1    H     H_    0.853391 0.450949 0.154717 0.196697
H2    H     H_    0.150800 0.555217 0.834321 0.183343
H3    H     H_    0.065234 0.560750 0.024132 0.156242
H4    H     H_    0.632772 0.348816 0.733389 0.136296
H5    H     H_    0.714462 0.108778 0.514948 0.161531
H6    H     H_    0.716281 0.884562 0.498190 0.193521
H7    H     H_    0.217211 0.812289 0.476665 0.178558
H8    H     H_    0.988328 0.930877 0.562992 0.172287
H9    H     H_    0.982834 0.142924 0.654330 0.112348
H10   H     H_    0.211219 0.240454 0.645545 0.134436
H11   H     H_    0.202207 0.092754 0.371611 0.192204
H12   H     H_    0.816268 0.331766 0.817278 0.106243
H13   H     H_    0.903466 0.382993 0.966921 0.125066
H14   H     H_    0.419856 0.573504 0.183204 0.179840
N1    N     N_R   0.852480 0.498790 0.499000 -0.251700
N2    N     N_R   0.148360 0.498710 0.498970 -0.254037
O1    O     O_R   0.381190 0.680360 0.500010 -0.494912
O2    O     O_R   0.618760 0.680340 0.500000 -0.465319
O3    O     O_R   0.323240 0.499990 0.650990 -0.487828
O4    O     O_R   0.560820 0.499960 0.650980 -0.481420
O5    O     O_R   0.381240 0.319660 0.500000 -0.499664
O6    O     O_R   0.618810 0.319640 0.499990 -0.500029
O7    O     O_R   0.439180 0.500040 0.349020 -0.451569
O8    O     O_R   0.676760 0.500010 0.349010 -0.455475

loop_
_geom_bond_atom_site_label_1
_geom_bond_atom_site_label_2
_ccdc_geom_bond_type
C11   H6    S    
Br1   C22   S    
C17   C18   A    
C25   C27   S    
C16   O5    A    
C31   C32   A    
C28   H2    S    
C26   C32   A    
C7    H10   S    
C13   H5    S    
Br3   C17   S    
C13   C14   A    
C3    H7    S    
Cu1   O5    S    
C27   C35   A    
C4    O3    A    
C22   C24   A    
Br4   C19   S    
C3    C9    A    
Cu1   O3    S    
C1    O2    A    
C12   C23   A    
C2    C28   A    
C7    C8    A    
Cu2   O4    S    
C18   H11   S    
C25   O7    A    
C6    C7    A    
C3    C5    A    
C20   C21   A    
C32   C33   A    
C20   N2    A    
C12   C30   A    
C26   H13   S    
Br2   C15   S    
C27   C36   A    
Cu1   N2    S    
C23   C34   A    
C2    C4    S    
C1    C10   S    
C11   C13   A    
C12   C31   A    
Br6   C30   S    
C35   H14   S    
C28   C29   A    
C15   C17   A    
Cu1   Cu2   S    
C31   C35   A    
C25   O8    A    
C15   C21   A    
C4    O4    A    
Cu2   O8    S    
C2    C23   A    
Cu2   N1    S    
C9    C10   A    
C33   H12   S    
C8    C14   A    
C18   C19   A    
Cu1   O1    S    
Cu1   O7    S    
Br5   C24   S    
C22   N1    A    
C33   C34   A    
C34   H4    S    
C26   C36   A    
C8    C9    A    
C1    O1    A    
C21   N1    A    
C5    H8    S    
Cu2   O2    S    
C19   C20   A    
C29   H3    S    
Cu2   O6    S    
C29   C30   A    
C16   O6    A    
C6    H9    S    
C5    C6    A    
C14   C16   S    
C10   C11   A    
C36   H1    S    
C24   N2    A    
