data_mof_unit_60304.cif
_audit_creation_date              2012-12-10T19:55:55-0500
_audit_creation_method            fapswitch 2.2
_symmetry_space_group_name_H-M    P1
_symmetry_Int_Tables_number       1
_space_group_crystal_system       triclinic
_cell_length_a                    14.989326
_cell_length_b                    14.188323
_cell_length_c                    19.127693
_cell_angle_alpha                 89.997326
_cell_angle_beta                  90.260303
_cell_angle_gamma                 90.000893
_cell_volume                      4067.90949586

loop_
_atom_site_label
_atom_site_type_symbol
_atom_type_description
_atom_site_fract_x
_atom_site_fract_y
_atom_site_fract_z
_atom_type_partial_charge
C1    C     C_R   0.327773 0.499993 0.499975 1.065282
C2    C     C_R   0.466039 0.894893 0.442800 0.525975
C3    C     C_R   0.426140 0.203919 0.478238 0.537673
C4    C     C_R   0.535346 0.795797 0.555323 0.539780
C5    C     C_R   0.573878 0.203941 0.521752 0.533302
C6    C     C_R   0.464805 0.795785 0.444603 0.539612
C7    C     C_R   0.500039 0.053102 0.499971 -0.227781
C8    C     C_R   0.500048 0.946613 0.499969 -0.203401
C9    C     C_R   0.501492 0.500008 0.365289 0.871413
C10   C     C_R   0.501467 0.499985 0.634724 0.865988
C11   C     C_R   0.522503 0.585619 0.253884 -0.115337
C12   C     C_R   0.672208 0.499994 0.500017 1.058677
C13   C     C_R   0.526584 0.414728 0.745930 -0.129409
C14   C     C_R   0.516104 0.585431 0.746976 -0.100701
C15   C     C_R   0.521071 0.414548 0.253620 -0.127409
C16   C     C_R   0.539896 0.585682 0.182764 -0.126718
C17   C     C_R   0.543900 0.415064 0.817205 -0.118268
C18   C     C_R   0.533533 0.585802 0.818217 -0.119741
C19   C     C_R   0.538496 0.414592 0.182479 -0.117572
C20   C     C_R   0.547785 0.500176 0.146515 0.060274
C21   C     C_R   0.547369 0.500604 0.853867 0.057736
C22   C     C_R   0.513032 0.500064 0.289730 -0.049506
C23   C     C_R   0.231828 0.499953 0.499926 -0.559307
C24   C     C_R   0.512763 0.499932 0.710388 -0.053160
C25   C     C_R   0.559021 0.500607 0.929675 0.314437
C26   C     C_R   0.559258 0.500369 0.070769 0.313544
C27   C     C_R   0.093276 0.571954 0.465217 0.619233
C28   C     C_R   0.906192 0.428383 0.464708 0.625249
C29   C     C_R   0.906676 0.571454 0.535204 0.618610
C30   C     C_R   0.093683 0.427844 0.534534 0.625138
C31   C     C_R   0.185452 0.572197 0.465283 0.507135
C32   C     C_R   0.814023 0.428187 0.464795 0.525350
C33   C     C_R   0.814502 0.571687 0.535198 0.504987
C34   C     C_R   0.768114 0.499957 0.500006 -0.556046
C35   C     C_R   0.185853 0.427655 0.534515 0.527732
C36   C     C_R   0.047856 0.499898 0.499880 -0.253807
C37   C     C_R   0.952059 0.499918 0.499925 -0.253319
C38   C     C_R   0.424044 0.104806 0.479414 0.532441
C39   C     C_R   0.534104 0.894898 0.557123 0.526720
C40   C     C_R   0.576017 0.104830 0.520541 0.532095
F1    F     F_    0.048125 0.640860 0.430700 -0.533015
F2    F     F_    0.564270 0.939565 0.615356 -0.521667
F3    F     F_    0.653047 0.060152 0.537950 -0.495316
F4    F     F_    0.435967 0.939564 0.384537 -0.520237
F5    F     F_    0.353256 0.250948 0.454998 -0.526609
F6    F     F_    0.572366 0.748204 0.609511 -0.550488
F7    F     F_    0.646737 0.250990 0.545020 -0.530081
F8    F     F_    0.428136 0.748172 0.390265 -0.544529
F9    F     F_    0.950894 0.359979 0.429614 -0.526934
F10   F     F_    0.951861 0.639834 0.570265 -0.533494
F11   F     F_    0.048940 0.358923 0.569044 -0.526669
F12   F     F_    0.229163 0.641329 0.430183 -0.520528
F13   F     F_    0.769837 0.359642 0.429124 -0.540845
F14   F     F_    0.770788 0.640261 0.570886 -0.522859
F15   F     F_    0.229957 0.358564 0.569664 -0.537358
F16   F     F_    0.347038 0.060097 0.461980 -0.493950
H1    H     H_    0.517380 0.652555 0.280771 0.217657
H2    H     H_    0.525047 0.347839 0.718657 0.191315
H3    H     H_    0.505802 0.652111 0.720631 0.220477
H4    H     H_    0.514688 0.347578 0.280323 0.189004
H5    H     H_    0.546398 0.652746 0.156245 0.179337
H6    H     H_    0.553958 0.348288 0.843501 0.177230
H7    H     H_    0.535147 0.652786 0.845322 0.180295
H8    H     H_    0.543791 0.347595 0.155706 0.176013
N1    N     N_R   0.561577 0.418100 0.034830 -0.146383
N2    N     N_R   0.559482 0.582899 0.965625 -0.144463
N3    N     N_R   0.561478 0.418217 0.965481 -0.146306
N4    N     N_R   0.559611 0.582781 0.034961 -0.145147
N5    N     N_R   0.500000 0.252470 0.500000 -0.282225
N6    N     N_R   0.500000 0.747530 0.500000 -0.274993
O1    O     O_R   0.369060 0.579480 0.500010 -0.561188
O2    O     O_R   0.630940 0.420520 0.499990 -0.516617
O3    O     O_R   0.630940 0.579480 0.499990 -0.563681
O4    O     O_R   0.369060 0.420520 0.500010 -0.514025
O5    O     O_R   0.499990 0.579500 0.398140 -0.573015
O6    O     O_R   0.500010 0.420500 0.601860 -0.613286
O7    O     O_R   0.500010 0.579500 0.601860 -0.573561
O8    O     O_R   0.499990 0.420500 0.398140 -0.613688
Zn1   Zn    Zn3+2 0.500000 0.606140 0.500000 1.122479
Zn2   Zn    Zn3+2 0.500000 0.393860 0.500000 1.122448

loop_
_geom_bond_atom_site_label_1
_geom_bond_atom_site_label_2
_ccdc_geom_bond_type
N2    N4    A    
C30   F11   S    
C18   C21   A    
C15   H4    S    
C14   C18   A    
C19   C20   A    
C25   N3    A    
C31   F12   S    
O1    Zn1   S    
C7    C8    S    
C15   C22   A    
C4    F6    S    
C15   C19   A    
C14   H3    S    
C5    F7    S    
C1    O1    A    
C6    F8    S    
C30   C35   A    
C1    O4    A    
C36   C37   S    
C3    N5    A    
O8    Zn2   S    
C18   H7    S    
C29   C33   A    
C28   F9    S    
C14   C24   A    
C5    N5    A    
C10   O6    A    
C40   F3    S    
C3    C38   A    
C2    F4    S    
N1    N3    A    
C7    C40   A    
C8    C39   A    
C12   O2    A    
O4    Zn2   S    
C12   O3    A    
C2    C6    A    
C4    N6    A    
C10   O7    A    
C39   F2    S    
C29   F10   S    
O7    Zn1   S    
C27   C31   A    
C28   C32   A    
C13   H2    S    
C10   C24   S    
C35   F15   S    
C3    F5    S    
C17   C21   A    
C13   C24   A    
C23   C31   A    
C17   H6    S    
C11   C16   A    
C27   F1    S    
C4    C39   A    
C19   H8    S    
C16   C20   A    
C33   C34   A    
O3    Zn1   S    
C1    C23   S    
C23   C35   A    
C16   H5    S    
C12   C34   S    
C32   F13   S    
C33   F14   S    
C6    N6    A    
C21   C25   S    
N6    Zn1   S    
C26   N1    A    
C2    C8    A    
C25   N2    A    
O6    Zn2   S    
C13   C17   A    
C27   C36   A    
C11   C22   A    
C30   C36   A    
C26   N4    A    
O2    Zn2   S    
C20   C26   S    
C28   C37   A    
C7    C38   A    
C9    O8    A    
C9    C22   S    
C38   F16   S    
C5    C40   A    
C29   C37   A    
N5    Zn2   S    
C9    O5    A    
C11   H1    S    
O5    Zn1   S    
C32   C34   A    
