data_mof_unit_9760.cif
_audit_creation_date              2013-03-05T15:40:55-0500
_audit_creation_method            fapswitch 2.2
_symmetry_space_group_name_H-M    P1
_symmetry_Int_Tables_number       1
_space_group_crystal_system       triclinic
_cell_length_a                    11.790883
_cell_length_b                    11.956148
_cell_length_c                    19.229791
_cell_angle_alpha                 90.274269
_cell_angle_beta                  89.639735
_cell_angle_gamma                 119.95006
_cell_volume                      2348.83098275

loop_
_atom_site_label
_atom_site_type_symbol
_atom_site_description
_atom_site_fract_x
_atom_site_fract_y
_atom_site_fract_z
_atom_type_partial_charge
O1    O     O_R   0.434830 0.101190 0.575190 -0.504198
O2    O     O_R   0.898810 0.333640 0.575190 -0.501174
O3    O     O_R   0.666360 0.565170 0.575190 -0.503948
O4    O     O_R   0.480130 0.360720 0.570290 -0.496971
O5    O     O_R   0.639280 0.119410 0.570290 -0.495961
O6    O     O_R   0.880590 0.519870 0.570290 -0.496171
C1    C     C_R   0.550675 0.477054 0.596506 0.535697
C2    C     C_R   0.522265 0.073841 0.596583 0.539512
C3    C     C_R   0.923355 0.447168 0.597087 0.538085
O7    O     O_R   0.439410 0.104260 0.424150 -0.498227
O8    O     O_R   0.895740 0.335150 0.424150 -0.499332
O9    O     O_R   0.664850 0.560590 0.424150 -0.494102
O10   O     O_R   0.484380 0.363570 0.430280 -0.489335
O11   O     O_R   0.636430 0.120810 0.430280 -0.494242
O12   O     O_R   0.879190 0.515620 0.430280 -0.475245
C4    C     C_R   0.549184 0.477332 0.404790 0.556799
C5    C     C_R   0.522055 0.071641 0.404693 0.552539
C6    C     C_R   0.918696 0.444089 0.400648 0.550506
Cr1   Cr    Cr6+3 0.468420 0.238090 0.499960 1.058223
Cr2   Cr    Cr6+3 0.761910 0.230330 0.499960 1.056722
Cr3   Cr    Cr6+3 0.769670 0.531580 0.499960 1.064393
O13   O     O_3   0.666667 0.333333 0.499980 -0.284838
C7    C     C_1   0.033846 0.514363 0.859228 0.014462
C8    C     C_1   0.451993 0.566350 0.847888 -0.004412
C9    C     C_1   0.435092 0.887249 0.847584 -0.005775
C10   C     C_1   0.994931 0.495729 0.726435 -0.026632
C11   C     C_1   0.482505 0.523209 0.718403 -0.022312
C12   C     C_1   0.476287 0.961139 0.718301 -0.022127
C13   C     C_1   0.013470 0.506709 0.798167 -0.028487
C14   C     C_1   0.463003 0.546384 0.787738 -0.024553
C15   C     C_1   0.454577 0.918606 0.787545 -0.024194
C16   C     C_1   0.971344 0.479221 0.665752 0.014736
C17   C     C_1   0.507934 0.502711 0.660944 0.011460
C18   C     C_1   0.495908 0.006437 0.660949 0.011061
C19   C     C_2   0.958751 0.468211 0.327859 -0.124830
C20   C     C_2   0.495397 0.506738 0.344631 -0.130010
C21   C     C_2   0.491447 0.987962 0.344684 -0.142652
C22   C     C_2   0.976198 0.490503 0.174117 -0.086912
C23   C     C_2   0.442815 0.577879 0.207848 -0.133134
C24   C     C_2   0.421461 0.866651 0.207429 -0.129797
C25   C     C_2   0.924733 0.376901 0.207730 0.164408
C26   C     C_2   0.547407 0.656075 0.247848 0.150101
C27   C     C_2   0.335468 0.878587 0.249312 0.166361
C28   C     C_2   0.894039 0.370049 0.282494 -0.123697
C29   C     C_2   0.550570 0.628124 0.321544 -0.138680
C30   C     C_2   0.367926 0.920485 0.321939 -0.135063
H1    H     H_    0.818964 0.276382 0.301674 0.181905
H2    H     H_    0.623277 0.706393 0.353237 0.188978
H3    H     H_    0.289211 0.915860 0.353821 0.192568
H4    H     H_    0.975688 0.571894 0.198799 0.151939
H5    H     H_    0.354282 0.500978 0.231283 0.085167
H6    H     H_    0.508540 0.872247 0.228389 0.119799
O14   O     O_R   0.548200 0.655360 0.951320 -0.476663
O15   O     O_R   0.344640 0.892840 0.951320 -0.460588
O16   O     O_R   0.107160 0.451800 0.951320 -0.497964
O17   O     O_R   0.505020 0.871000 0.955840 -0.478880
O18   O     O_R   0.129000 0.634020 0.955840 -0.527562
O19   O     O_R   0.365980 0.494980 0.955840 -0.461481
C31   C     C_R   0.408616 0.851006 0.918963 0.526187
C32   C     C_R   0.075214 0.527199 0.929112 0.547357
C33   C     C_R   0.441750 0.591427 0.919455 0.524209
O20   O     O_R   0.543640 0.655270 0.102360 -0.418369
O21   O     O_R   0.344730 0.888370 0.102360 -0.402106
O22   O     O_R   0.111630 0.456360 0.102360 -0.468857
O23   O     O_R   0.500790 0.870920 0.095850 -0.451898
O24   O     O_R   0.129080 0.629870 0.095850 -0.514395
O25   O     O_R   0.370130 0.499210 0.095850 -0.449364
C34   C     C_R   0.402394 0.841244 0.133189 0.547218
C35   C     C_R   0.056475 0.517597 0.111388 0.591282
C36   C     C_R   0.437574 0.596082 0.133210 0.537495
Cr4   Cr    Cr6+3 0.515700 0.760130 0.026360 1.122504
Cr5   Cr    Cr6+3 0.239870 0.755570 0.026360 1.089654
Cr6   Cr    Cr6+3 0.244430 0.484300 0.026360 1.096047
O26   O     O_3   0.333333 0.666667 0.026340 -0.372118
N1    N     N_R   0.899475 0.259906 0.172506 0.108965
O27   O     O_R   0.896146 0.165470 0.207548 -0.256528
O28   O     O_R   0.862368 0.240496 0.107826 -0.287403
N2    N     N_R   0.666858 0.759483 0.219322 0.105943
O29   O     O_R   0.716845 0.873837 0.246974 -0.308456
O30   O     O_R   0.744679 0.730803 0.185223 -0.235456
N3    N     N_R   0.215257 0.865643 0.223612 0.097410
O31   O     O_R   0.106899 0.788589 0.255991 -0.360950
O32   O     O_R   0.219742 0.959673 0.187625 -0.240433
H7    H     H_    0.033573 0.563635 0.311553 0.134489
H8    H     H_    0.424829 0.425492 0.313989 0.128394
H9    H     H_    0.574177 0.997330 0.315115 0.143904

loop_
_geom_bond_atom_site_label_1
_geom_bond_atom_site_label_2
_geom_bond_distance
_ccdc_geom_bond_type
C9    C15   1.200462 T    
O12   C6    1.289521 A    
C23   H5    1.085295 S    
O8    C6    1.275179 A    
C10   C16   1.193765 T    
C8    C33   1.424273 S    
O1    C2    1.296995 A    
Cr6   O26   1.889665 S    
O6    C3    1.311691 A    
N3    O31   1.299615 A    
O5    Cr2   1.938149 S    
C11   C17   1.198931 T    
C30   H3    1.087320 S    
C7    C13   1.193905 T    
O3    C1    1.304126 A    
N2    O30   1.301517 A    
O24   C35   1.215423 A    
O7    C5    1.270882 A    
O20   C36   1.236031 A    
C3    C16   1.413705 S    
O4    Cr1   1.943980 S    
O14   C33   1.257915 A    
C24   C27   1.352854 D    
O24   Cr5   1.946218 S    
O9    C4    1.279360 A    
O22   Cr6   2.037868 S    
O25   Cr6   1.942393 S    
C6    C19   1.457724 S    
C28   H1    1.088030 S    
O23   C34   1.252350 A    
O19   C33   1.260413 A    
C22   C35   1.462592 S    
C12   C18   1.200238 T    
O16   C32   1.217243 A    
C11   C14   1.401280 S    
C1    C17   1.423508 S    
O11   C5    1.272919 A    
O4    C1    1.313010 A    
N3    O32   1.301241 A    
C23   C26   1.356622 D    
O15   C31   1.254675 A    
C7    C32   1.413837 S    
O8    Cr2   2.049340 S    
O1    Cr1   2.072910 S    
O10   Cr1   1.953403 S    
O2    Cr2   2.060467 S    
O11   Cr2   1.942357 S    
C21   H9    1.082556 S    
Cr1   O13   2.025555 S    
C22   C25   1.345868 D    
Cr5   O26   1.874536 S    
N2    O29   1.300708 A    
O18   C32   1.219256 A    
C2    C18   1.425714 S    
O23   Cr4   1.945197 S    
O6    Cr3   1.940623 S    
O9    Cr3   2.056343 S    
C26   C29   1.462537 S    
N1    O27   1.301211 A    
C25   N1    1.442802 S    
O7    Cr1   2.059115 S    
O17   Cr4   1.948851 S    
C20   C29   1.336576 D    
C5    C21   1.447933 S    
O22   C35   1.209085 A    
C19   C28   1.350950 D    
N1    O28   1.301927 A    
Cr2   O13   2.039287 S    
C26   N2    1.439190 S    
C27   N3    1.437447 S    
C25   C28   1.472965 S    
O3    Cr3   2.049062 S    
O5    C2    1.303607 A    
O14   Cr4   2.062343 S    
C29   H2    1.087270 S    
O21   C34   1.233683 A    
C12   C15   1.403345 S    
Cr4   O26   1.863639 S    
C19   H7    1.083158 S    
C22   H4    1.083364 S    
C20   H8    1.084790 S    
O17   C31   1.260661 A    
O25   C36   1.252819 A    
C24   H6    1.075862 S    
C4    C20   1.449089 S    
C23   C36   1.459002 S    
O20   Cr4   2.062091 S    
O18   Cr5   1.940716 S    
C27   C30   1.468505 S    
C8    C14   1.199223 T    
O16   Cr6   2.061294 S    
O12   Cr3   1.929047 S    
O15   Cr5   2.068277 S    
O21   Cr5   2.055707 S    
C10   C13   1.393248 S    
C24   C34   1.453483 S    
O10   C4    1.279879 A    
C9    C31   1.426353 S    
C21   C30   1.339678 D    
Cr3   O13   2.053980 S    
O2    C3    1.306640 A    
O19   Cr6   1.924520 S    
