data_mof_unit_65154.cif
_audit_creation_date              2012-10-26T21:17:27-0400
_audit_creation_method            fapswitch 2.2
_symmetry_space_group_name_H-M    P1
_symmetry_Int_Tables_number       1
_space_group_crystal_system       monoclinic
_cell_length_a                    17.747744
_cell_length_b                    16.453459
_cell_length_c                    11.725196
_cell_angle_alpha                 90.0
_cell_angle_beta                  90.197078
_cell_angle_gamma                 90.0
_cell_volume                      3423.87507977

loop_
_atom_site_label
_atom_site_type_symbol
_atom_type_description
_atom_site_fract_x
_atom_site_fract_y
_atom_site_fract_z
_atom_type_partial_charge
C1    C     C_R   0.355255 0.500000 0.499827 0.558042
C2    C     C_R   0.114486 0.500000 0.499581 0.108066
C3    C     C_1   0.966225 0.500000 0.500135 0.150716
C4    C     C_1   0.033775 0.500000 0.499865 0.150716
C5    C     C_R   0.499962 0.500000 0.283560 0.556589
C6    C     C_R   0.500038 0.500000 0.716440 0.556590
C7    C     C_R   0.550423 0.829134 0.569835 0.181102
C8    C     C_R   0.449576 0.170866 0.430166 0.181102
C9    C     C_R   0.449577 0.829134 0.430165 0.181102
C10   C     C_R   0.550424 0.170866 0.569833 0.181102
C11   C     C_R   0.549131 0.742804 0.568139 0.030818
C12   C     C_R   0.644745 0.500000 0.500173 0.558043
C13   C     C_R   0.450869 0.257196 0.431862 0.030818
C14   C     C_R   0.450869 0.742804 0.431861 0.030818
C15   C     C_R   0.549131 0.257196 0.568138 0.030819
C16   C     C_1   0.500000 0.962745 0.500000 0.150747
C17   C     C_1   0.500000 0.037255 0.500000 0.150747
C18   C     C_1   0.499967 0.500000 0.162080 -0.009486
C19   C     C_1   0.500033 0.500000 0.837919 -0.009486
C20   C     C_1   0.499985 0.500000 0.059786 -0.023539
C21   C     C_1   0.500015 0.500000 0.940214 -0.023539
C22   C     C_R   0.500000 0.872989 0.500000 0.102088
C23   C     C_R   0.767439 0.573695 0.500527 -0.138476
C24   C     C_R   0.500000 0.127011 0.500000 0.102087
C25   C     C_R   0.846539 0.574223 0.500510 0.211653
C26   C     C_R   0.153461 0.425777 0.499489 0.211653
C27   C     C_R   0.153461 0.574223 0.499489 0.211653
C28   C     C_R   0.846539 0.425777 0.500511 0.211653
C29   C     C_R   0.232561 0.426305 0.499472 -0.138476
C30   C     C_R   0.232561 0.573695 0.499472 -0.138476
C31   C     C_R   0.767439 0.426305 0.500529 -0.138476
C32   C     C_R   0.727645 0.500000 0.500416 -0.050712
C33   C     C_R   0.272355 0.500000 0.499584 -0.050712
C34   C     C_R   0.885514 0.500000 0.500419 0.108066
Cu1   Cu    Cu3+1 0.500000 0.580420 0.500000 0.955840
Cu2   Cu    Cu3+1 0.500000 0.419580 0.500000 0.955841
H1    H     H_    0.587628 0.708781 0.621636 0.123978
H2    H     H_    0.368625 0.168186 0.318269 0.326687
H3    H     H_    0.368627 0.831814 0.318266 0.326687
H4    H     H_    0.631375 0.168186 0.681730 0.326687
H5    H     H_    0.851029 0.692417 0.500620 0.335632
H6    H     H_    0.148971 0.307583 0.499378 0.335632
H7    H     H_    0.148971 0.692417 0.499377 0.335632
H8    H     H_    0.851029 0.307583 0.500625 0.335632
H9    H     H_    0.412371 0.291219 0.378366 0.123978
H10   H     H_    0.412372 0.708781 0.378364 0.123978
H11   H     H_    0.587629 0.291219 0.621634 0.123978
H12   H     H_    0.737127 0.630848 0.500579 0.130639
H13   H     H_    0.262873 0.369152 0.499420 0.130639
H14   H     H_    0.262873 0.630848 0.499420 0.130639
H15   H     H_    0.737127 0.369152 0.500582 0.130639
H16   H     H_    0.631373 0.831814 0.681734 0.326688
N1    N     N_R   0.500000 0.701220 0.500000 -0.260687
N2    N     N_R   0.500000 0.298780 0.500000 -0.260687
O1    O     O_R   0.391260 0.567930 0.500000 -0.502315
O2    O     O_3   0.399857 0.128673 0.361374 -0.668407
O3    O     O_3   0.399859 0.871327 0.361372 -0.668407
O4    O     O_3   0.600143 0.128673 0.638626 -0.668407
O5    O     O_3   0.886808 0.646117 0.500530 -0.658352
O6    O     O_3   0.113192 0.353883 0.499468 -0.658352
O7    O     O_3   0.113192 0.646117 0.499468 -0.658352
O8    O     O_3   0.886808 0.353883 0.500533 -0.658352
O9    O     O_R   0.608740 0.432070 0.500000 -0.502315
O10   O     O_R   0.608740 0.567930 0.500000 -0.502315
O11   O     O_R   0.391260 0.432070 0.500000 -0.502315
O12   O     O_R   0.500010 0.567910 0.337200 -0.491792
O13   O     O_R   0.499990 0.432090 0.662800 -0.491791
O14   O     O_R   0.499990 0.567910 0.662800 -0.491792
O15   O     O_R   0.500010 0.432090 0.337200 -0.491791
O16   O     O_3   0.600141 0.871327 0.638628 -0.668408

loop_
_geom_bond_atom_site_label_1
_geom_bond_atom_site_label_2
_ccdc_geom_bond_type
H2    O2    S    
C18   C20   T    
C1    O11   A    
C9    C14   A    
C15   N2    A    
C28   O8    S    
Cu1   O10   S    
C5    C18   S    
Cu1   N1    S    
C7    C22   A    
C25   O5    S    
C2    C4    S    
C31   C32   A    
C11   N1    A    
C15   H11   S    
C25   C34   A    
H4    O4    S    
C23   C32   A    
C8    O2    S    
C7    O16   S    
C6    O14   A    
C30   H14   S    
Cu2   O13   S    
C28   C34   A    
C14   H10   S    
C3    C34   S    
C29   H13   S    
C12   C32   S    
C27   C30   A    
C13   H9    S    
C6    C19   S    
H5    O5    S    
C2    C27   A    
Cu1   O14   S    
C6    O13   A    
C8    C24   A    
H8    O8    S    
C7    C11   A    
C9    O3    S    
C10   C15   A    
C23   C25   A    
C1    O1    A    
C12   O10   A    
C9    C22   A    
C17   C24   S    
H16   O16   S    
C1    C33   S    
C3    C4    T    
Cu2   O9    S    
C8    C13   A    
C29   C33   A    
C10   O4    S    
C28   C31   A    
C14   N1    A    
Cu2   N2    S    
Cu2   O15   S    
H7    O7    S    
C26   C29   A    
C2    C26   A    
C13   N2    A    
H6    O6    S    
C11   H1    S    
C12   O9    A    
Cu2   O11   S    
C5    O12   A    
C16   C22   S    
C23   H12   S    
C27   O7    S    
C30   C33   A    
C10   C24   A    
C20   C21   S    
Cu1   O12   S    
C26   O6    S    
C5    O15   A    
Cu1   O1    S    
Cu1   Cu2   S    
C31   H15   S    
C16   C17   T    
C19   C21   T    
H3    O3    S    
