data_mof_unit_57507.cif
_audit_creation_date              2013-03-05T16:02:39-0500
_audit_creation_method            fapswitch 2.2
_symmetry_space_group_name_H-M    P1
_symmetry_Int_Tables_number       1
_space_group_crystal_system       triclinic
_cell_length_a                    6.953487
_cell_length_b                    17.349405
_cell_length_c                    18.743291
_cell_angle_alpha                 106.310117
_cell_angle_beta                  89.732821
_cell_angle_gamma                 90.520363
_cell_volume                      2170.07540568

loop_
_atom_site_label
_atom_site_type_symbol
_atom_site_description
_atom_site_fract_x
_atom_site_fract_y
_atom_site_fract_z
_atom_type_partial_charge
O1    O     O_R   0.494360 0.415680 0.413760 -0.587300
O2    O     O_R   0.818810 0.432910 0.557230 -0.573137
O3    O     O_R   0.994290 0.584320 0.586240 -0.588351
C1    C     C_R   0.649817 0.415944 0.580601 0.954384
O4    O     O_R   0.823740 0.406440 0.412520 -0.585143
O5    O     O_R   0.999250 0.557660 0.440500 -0.575101
C2    C     C_R   0.654784 0.383701 0.384844 0.938957
O6    O     O_R   0.489400 0.442340 0.559500 -0.563852
O7    O     O_3   0.662500 0.549650 0.509350 -0.267744
V1    V     V_3+5 0.935340 0.490790 0.498270 1.169578
O8    O     O_R   0.329270 0.567090 0.442770 -0.575824
C3    C     C_R   0.161150 0.584038 0.419379 0.948378
O9    O     O_R   0.324340 0.593560 0.587480 -0.590851
C4    C     C_R   0.155409 0.616301 0.615150 0.938020
V2    V     V_3+5 0.435970 0.509210 0.501730 1.163877
O10   O     O_3   0.158940 0.450350 0.490650 -0.252805
H1    H     H_    0.390380 0.864238 0.565757 0.136022
C5    C     C_R   0.010952 0.594736 0.753512 -0.168872
C6    C     C_R   0.939754 0.582267 0.818998 -0.119015
C7    C     C_R   0.928469 0.645912 0.883230 -0.109968
C8    C     C_R   0.987987 0.722551 0.882452 -0.157380
C9    C     C_R   0.058403 0.737442 0.816516 0.118276
C10   C     C_R   0.070469 0.672109 0.750632 0.120362
C11   C     C_R   0.120426 0.815392 0.815909 -0.315514
C12   C     C_R   0.194881 0.827859 0.749315 0.121255
C13   C     C_R   0.206944 0.762526 0.683430 0.119249
C14   C     C_R   0.144951 0.684573 0.684042 -0.315121
C15   C     C_R   0.254321 0.905239 0.746426 -0.176810
C16   C     C_R   0.325385 0.917719 0.680925 -0.096491
C17   C     C_R   0.336663 0.854075 0.616692 -0.089321
C18   C     C_R   0.277273 0.777423 0.617484 -0.167255
H2    H     H_    0.020188 0.542776 0.705593 0.117116
H3    H     H_    0.894607 0.522699 0.820027 0.116685
H4    H     H_    0.874647 0.635759 0.934154 0.116180
H5    H     H_    0.979511 0.769550 0.934329 0.107653
H6    H     H_    0.245099 0.957195 0.794349 0.120566
H7    H     H_    0.370435 0.977296 0.679883 0.137701
H8    H     H_    0.285752 0.730420 0.565610 0.111799
C19   C     C_1   0.111792 0.863964 0.132661 -0.327314
C20   C     C_1   0.119258 0.821405 0.176239 0.063682
C21   C     C_1   0.128585 0.771177 0.228125 -0.000759
C22   C     C_1   0.136543 0.728863 0.271912 -0.001783
C23   C     C_1   0.145865 0.678617 0.323782 0.061984
C24   C     C_1   0.153321 0.636032 0.367337 -0.326445
C25   C     C_1   0.641219 0.363965 0.632586 -0.274882
C26   C     C_1   0.637036 0.321329 0.676120 0.107297
C27   C     C_1   0.633668 0.271045 0.727974 0.017349
C28   C     C_1   0.631188 0.228707 0.771785 0.002944
C29   C     C_1   0.627885 0.178487 0.823700 0.061454
C30   C     C_1   0.623780 0.135941 0.867317 -0.328605
C31   C     C_R   0.809516 0.396080 0.244742 -0.170741
C32   C     C_R   0.884362 0.404271 0.178175 -0.114395
C33   C     C_R   0.872283 0.340842 0.113761 -0.111138
C34   C     C_R   0.785498 0.268693 0.115432 -0.153186
C35   C     C_R   0.710428 0.258071 0.182433 0.115215
C36   C     C_R   0.722429 0.323186 0.248493 0.113305
C37   C     C_R   0.620607 0.184792 0.183983 -0.303696
C38   C     C_R   0.542531 0.176800 0.251711 0.135656
C39   C     C_R   0.554559 0.241792 0.317735 0.077420
C40   C     C_R   0.644236 0.315163 0.316161 -0.283494
C41   C     C_R   0.455745 0.104018 0.255466 -0.225627
C42   C     C_R   0.381069 0.095544 0.321926 -0.230474
C43   C     C_R   0.392342 0.158812 0.387253 0.414162
C44   C     C_R   0.479957 0.231175 0.384822 -0.284838
H9    H     H_    0.819571 0.447864 0.292829 0.116969
H10   H     H_    0.950676 0.460434 0.176473 0.117628
H11   H     H_    0.929116 0.347759 0.062019 0.116050
H12   H     H_    0.776575 0.221890 0.063410 0.107374
H13   H     H_    0.445663 0.052314 0.207300 0.141811
H14   H     H_    0.315360 0.038804 0.322177 0.174136
H15   H     H_    0.491107 0.278700 0.436211 0.158156
O11   O     O_R   0.775690 0.057750 0.940570 -0.571341
O12   O     O_R   0.441200 0.093570 0.087490 -0.588077
O13   O     O_R   0.265840 0.942320 0.059480 -0.573375
C45   C     C_R   0.610118 0.116337 0.115213 0.937692
O14   O     O_R   0.446270 0.067110 0.942790 -0.576562
O15   O     O_R   0.270950 0.915660 0.913750 -0.586879
C46   C     C_R   0.615246 0.084058 0.919395 0.953343
O16   O     O_R   0.770580 0.084400 0.086300 -0.586177
O17   O     O_3   0.602640 0.950400 0.990690 -0.263474
V3    V     V_3+5 0.329740 0.009200 0.001730 1.152187
O18   O     O_R   0.940900 0.906360 0.912450 -0.588404
C47   C     C_R   0.109876 0.883664 0.884799 0.939936
O19   O     O_R   0.935830 0.932820 0.057160 -0.573756
C48   C     C_R   0.103950 0.915925 0.080591 0.953674
V4    V     V_3+5 0.829130 0.990680 0.998180 1.154301
O20   O     O_3   0.106100 0.049590 0.009310 -0.264521
N1    N     N_R   0.316602 0.149465 0.456056 0.238913
O21   O     O_R   0.240791 0.081458 0.458778 -0.396614
O22   O     O_R   0.322665 0.208764 0.516682 -0.406285

loop_
_geom_bond_atom_site_label_1
_geom_bond_atom_site_label_2
_geom_bond_distance
_ccdc_geom_bond_type
C35   C36   1.424742 A    
C43   N1    1.440922 S    
C21   C22   1.247048 T    
C6    C7    1.388827 A    
C1    O6    1.313592 A    
C33   C34   1.392889 A    
C12   C15   1.416539 A    
C13   C14   1.418855 A    
C16   C17   1.388834 A    
C15   C16   1.392861 A    
C11   C47   1.489063 S    
O19   V4    1.850601 S    
C5    C6    1.392826 A    
O5    C3    1.312151 A    
C17   C18   1.392974 A    
C34   H12   1.081149 S    
O15   C47   1.297015 A    
V2    O10   2.155356 S    
C42   H14   1.082702 S    
C31   C36   1.416569 A    
C31   H9    1.081212 S    
C44   H15   1.080324 S    
O11   C46   1.313640 A    
C26   C27   1.477132 S    
O8    V2    1.850567 S    
O17   V4    1.707438 S    
O1    V2    2.004895 S    
C10   C14   1.419965 A    
C4    C14   1.489045 S    
O7    V1    2.144219 S    
C7    H4    1.082602 S    
C38   C41   1.413960 A    
C39   C40   1.420070 A    
C8    C9    1.416062 A    
H1    C17   1.082611 S    
O12   C45   1.299082 A    
C30   C46   1.502850 S    
O12   V3    1.999144 S    
C1    C25   1.502743 S    
C5    C10   1.416539 A    
C11   C12   1.419991 A    
C6    H3    1.082700 S    
C19   C20   1.246946 T    
O4    C2    1.298952 A    
V4    O20   2.155334 S    
C38   C39   1.423150 A    
O18   V4    2.003698 S    
C31   C32   1.392830 A    
O2    C1    1.311763 A    
C23   C24   1.246951 T    
C42   C43   1.398105 A    
C27   C28   1.246014 T    
O15   V3    2.002803 S    
C7    C8    1.392944 A    
C39   C44   1.416482 A    
O19   C48   1.314804 A    
V3    O20   1.700383 S    
O3    C4    1.296976 A    
C20   C21   1.478841 S    
N1    O22   1.301734 A    
O18   C47   1.300886 A    
O6    V2    1.836738 S    
O9    V2    2.003805 S    
C9    C11   1.418840 A    
C5    H2    1.081297 S    
C22   C23   1.478846 S    
C19   C48   1.504579 S    
O13   V3    1.845811 S    
O2    V1    1.867186 S    
C2    C40   1.488652 S    
C32   H10   1.082693 S    
C32   C33   1.388786 A    
C41   H13   1.081294 S    
C34   C35   1.416216 A    
C28   C29   1.477208 S    
O1    C2    1.297162 A    
O14   C46   1.311737 A    
O17   V3    2.144145 S    
O14   V3    1.867273 S    
O5    V1    1.845977 S    
O11   V4    1.837228 S    
O8    C3    1.314802 A    
C8    H5    1.081115 S    
C18   H8    1.081121 S    
C37   C45   1.488882 S    
C35   C37   1.418947 A    
C12   C13   1.425270 A    
O4    V1    1.999229 S    
C3    C24   1.504583 S    
O3    V1    2.002818 S    
V1    O10   1.700445 S    
C37   C38   1.420038 A    
O13   C48   1.312152 A    
O7    V2    1.708674 S    
C41   C42   1.392269 A    
C33   H11   1.082611 S    
C43   C44   1.402634 A    
C25   C26   1.245871 T    
C13   C18   1.416067 A    
C36   C40   1.419510 A    
N1    O21   1.301877 A    
C15   H6    1.081296 S    
C29   C30   1.245936 T    
C16   H7    1.082711 S    
C9    C10   1.425248 A    
O9    C4    1.300872 A    
C45   O16   1.297140 A    
O16   V4    2.008706 S    
