data_mof_unit_44209.cif
_audit_creation_date              2012-12-10T16:50:15-0500
_audit_creation_method            fapswitch 2.2
_symmetry_space_group_name_H-M    P1
_symmetry_Int_Tables_number       1
_space_group_crystal_system       triclinic
_cell_length_a                    23.39142
_cell_length_b                    8.843224
_cell_length_c                    7.569913
_cell_angle_alpha                 103.794966
_cell_angle_beta                  95.940472
_cell_angle_gamma                 96.206106
_cell_volume                      1498.18567857

loop_
_atom_site_label
_atom_site_type_symbol
_atom_type_description
_atom_site_fract_x
_atom_site_fract_y
_atom_site_fract_z
_atom_type_partial_charge
C1    C     C_R   0.498422 0.200292 0.453114 0.938281
C2    C     C_R   0.503082 0.800031 0.546521 0.883625
C3    C     C_R   0.237787 0.591009 0.535864 0.033566
C4    C     C_R   0.757364 0.396364 0.387604 0.020596
C5    C     C_R   0.297755 0.609939 0.520783 0.045310
C6    C     C_R   0.696328 0.391601 0.374497 0.056217
C7    C     C_R   0.327353 0.477240 0.496823 -0.140321
C8    C     C_R   0.672728 0.500446 0.507649 -0.127854
C9    C     C_R   0.296740 0.328262 0.488950 -0.094532
C10   C     C_R   0.709635 0.601159 0.660443 -0.074471
C11   C     C_R   0.242235 0.321084 0.552892 0.125447
C12   C     C_R   0.767515 0.573521 0.695788 0.058220
C13   C     C_R   0.210415 0.449246 0.564906 0.195987
C14   C     C_R   0.792770 0.480139 0.553162 0.221160
C15   C     C_2   0.490711 0.031695 0.429356 -0.004186
C16   C     C_2   0.512088 0.968547 0.567904 -0.023521
C17   C     C_R   0.390920 0.496050 0.498610 0.909116
C18   C     C_R   0.609102 0.500175 0.500989 0.831839
C19   C     C_R   0.893912 0.605318 0.622141 0.603132
C20   C     C_R   0.109985 0.311510 0.493424 0.605439
C21   C     C_R   0.873316 0.325923 0.548644 0.569770
C22   C     C_R   0.131609 0.550354 0.726584 0.564756
C23   C     C_R   0.932288 0.314059 0.543788 -0.026120
C24   C     C_R   0.072685 0.568115 0.715485 -0.033059
C25   C     C_R   0.972609 0.450454 0.611948 -0.005227
C26   C     C_R   0.032191 0.439302 0.618495 -0.005811
C27   C     C_R   0.953452 0.598154 0.669874 -0.092468
C28   C     C_R   0.051394 0.299922 0.525915 -0.073686
C29   C     C_R   0.951621 0.169656 0.474455 -0.173084
C30   C     C_R   0.053745 0.711291 0.793350 -0.165711
C31   C     C_R   0.010657 0.160937 0.460195 -0.014595
C32   C     C_R   0.994786 0.730506 0.765286 -0.028105
Cu1   Cu    Cu3+1 0.506340 0.517380 0.684380 1.011155
Cu2   Cu    Cu3+1 0.493660 0.482620 0.315620 1.012617
H1    H     H_    0.920543 0.063483 0.428000 0.224909
H2    H     H_    0.085223 0.810545 0.869511 0.220141
N1    N     N_R   0.854533 0.470333 0.575735 -0.456912
N2    N     N_R   0.149968 0.434408 0.598386 -0.463514
N3    N     N_2   0.484110 0.456420 0.038520 -0.246863
N4    N     N_2   0.515890 0.543580 0.961480 -0.229352
O1    O     O_R   0.504120 0.286130 0.619770 -0.559579
O2    O     O_R   0.495880 0.713870 0.380230 -0.579500
O3    O     O_R   0.493410 0.256770 0.308360 -0.573678
O4    O     O_R   0.506590 0.743230 0.691640 -0.598977
O5    O     O_R   0.423230 0.514630 0.655730 -0.555020
O6    O     O_R   0.576770 0.485370 0.344270 -0.592885
O7    O     O_R   0.412530 0.485280 0.344320 -0.545559
O8    O     O_R   0.587470 0.514720 0.655680 -0.580043
O9    O     O_2   0.875532 0.743795 0.617554 -0.490472
O10   O     O_2   0.125703 0.207244 0.351982 -0.480615
O11   O     O_2   0.835076 0.194572 0.523677 -0.488971
O12   O     O_2   0.170087 0.649556 0.859931 -0.463207
C33   C     C_2   0.028144 0.002513 0.398780 0.944481
O13   O     O_2   0.995833 0.899160 0.284285 -0.577847
O14   O     O_R   0.079542 0.967584 0.480980 -0.745027
H3    H     H_    0.084230 0.852923 0.435107 0.358038
C34   C     C_2   0.978490 0.886581 0.850511 0.959170
O15   O     O_2   0.009490 0.006438 0.847901 -0.587862
O16   O     O_R   0.929471 0.897201 0.941627 -0.706741
H4    H     H_    0.923607 0.009961 0.996068 0.343356
C35   C     C_2   0.203148 0.717693 0.519962 0.862655
O17   O     O_2   0.170128 0.704978 0.379626 -0.562932
O18   O     O_R   0.206027 0.846720 0.670042 -0.728531
H5    H     H_    0.171344 0.904914 0.662249 0.350212
C36   C     C_2   0.785419 0.321874 0.227503 0.880987
O19   O     O_2   0.818103 0.404288 0.161844 -0.603054
O20   O     O_R   0.777746 0.158471 0.159439 -0.726744
H6    H     H_    0.800316 0.123142 0.053091 0.349500
C37   C     C_3   0.329818 0.766940 0.517310 -0.807256
H7    H     H_    0.370485 0.795990 0.615477 0.214730
H8    H     H_    0.340138 0.759182 0.376504 0.220879
H9    H     H_    0.304677 0.866105 0.555334 0.263324
C38   C     C_3   0.656244 0.269353 0.225001 -0.750346
H10   H     H_    0.635958 0.324159 0.122275 0.274033
H11   H     H_    0.678022 0.174195 0.150376 0.249341
H12   H     H_    0.621835 0.210786 0.286334 0.210525
C39   C     C_2   0.317902 0.179490 0.397644 0.848220
O21   O     O_2   0.369451 0.174091 0.390691 -0.601578
O22   O     O_R   0.278000 0.047161 0.307914 -0.717249
H13   H     H_    0.297185 0.956413 0.242086 0.347777
C40   C     C_2   0.688491 0.741899 0.773532 0.907847
O23   O     O_2   0.658594 0.819040 0.697147 -0.618632
O24   O     O_R   0.702711 0.787969 0.964297 -0.734240
H14   H     H_    0.685802 0.885861 0.022216 0.344739
C41   C     C_3   0.221122 0.182407 0.623120 -0.651764
H15   H     H_    0.189311 0.211520 0.720888 0.238002
H16   H     H_    0.200828 0.083505 0.506546 0.309587
H17   H     H_    0.258124 0.145296 0.698935 0.220301
C42   C     C_3   0.801425 0.641403 0.885106 -0.554868
H18   H     H_    0.842435 0.591927 0.904796 0.236715
H19   H     H_    0.811347 0.771123 0.912364 0.265704
H20   H     H_    0.775659 0.610716 0.989747 0.265929
C43   C     C_3   0.453433 0.936716 0.251915 -0.730892
H21   H     H_    0.431360 0.011236 0.175511 0.267938
H22   H     H_    0.480134 0.870879 0.156586 0.269894
H23   H     H_    0.418597 0.855375 0.281173 0.217162
C44   C     C_3   0.551160 0.063870 0.741113 -0.769419
H24   H     H_    0.573442 0.988188 0.815585 0.257854
H25   H     H_    0.586023 0.143018 0.706161 0.238183
H26   H     H_    0.525267 0.132076 0.838258 0.241131
C45   C     C_2   0.435184 0.338974 0.952144 1.027310
O25   O     O_2   0.407355 0.277594 0.050320 -0.575127
O26   O     O_R   0.419266 0.281732 0.765321 -0.731481
H27   H     H_    0.385952 0.192181 0.733387 0.308540
C46   C     C_2   0.569933 0.622045 0.060237 1.113389
O27   O     O_2   0.613758 0.561299 0.034078 -0.607426
O28   O     O_R   0.574282 0.774035 0.172273 -0.792641
H28   H     H_    0.615318 0.817219 0.233828 0.330826

loop_
_geom_bond_atom_site_label_1
_geom_bond_atom_site_label_2
_ccdc_geom_bond_type
O14   H3    S    
C43   H21   S    
Cu1   O5    S    
C38   H10   S    
Cu2   O2    S    
C44   H24   S    
C33   O13   D    
C46   O28   S    
C45   O25   D    
C23   C29   A    
C40   O23   D    
C24   C26   A    
C4    C36   S    
C8    C10   A    
C16   C44   S    
C34   O16   S    
C3    C35   S    
C15   C16   D    
C22   N2    A    
C37   H8    S    
C35   O18   S    
C20   O10   S    
C19   N1    A    
C40   O24   S    
C1    O3    A    
C2    O4    A    
C7    C17   S    
C5    C37   S    
O28   H28   S    
C1    C15   S    
C42   H19   S    
C19   C27   A    
C3    C13   A    
C39   O21   D    
C11   C41   S    
C33   O14   S    
O16   H4    S    
C45   O26   S    
C38   H11   S    
C35   O17   D    
C32   C34   S    
C18   O6    A    
C44   H25   S    
N3    C45   S    
C39   O22   S    
Cu1   N4    S    
C41   H16   S    
O20   H6    S    
C12   C42   S    
C4    C6    A    
N3    N4    D    
C5    C7    A    
C6    C8    A    
C20   C28   A    
C36   O20   S    
C25   C26   A    
C41   H15   S    
C8    C18   S    
Cu2   N3    S    
C37   H9    S    
C20   N2    A    
C19   O9    S    
O24   H14   S    
Cu1   Cu2   S    
C9    C39   S    
C31   C33   S    
C42   H20   S    
C9    C11   A    
C13   N2    S    
C10   C12   A    
Cu2   O6    S    
C1    O1    A    
C12   C14   A    
C43   H23   S    
C21   C23   A    
C38   H12   S    
C22   C24   A    
C21   O11   S    
C44   H26   S    
C2    C16   S    
C6    C38   S    
C22   O12   S    
C41   H17   S    
C7    C9    A    
C27   C32   A    
Cu1   O4    S    
C28   C31   A    
Cu2   O3    S    
C17   O7    A    
C17   O5    A    
O18   H5    S    
C3    C5    A    
C18   O8    A    
C15   C43   S    
C25   C27   A    
C46   O27   D    
C29   H1    S    
C10   C40   S    
C26   C28   A    
C30   H2    S    
Cu1   O1    S    
C29   C31   A    
C14   N1    S    
C30   C32   A    
C11   C13   A    
C34   O15   D    
C2    O2    A    
C23   C25   A    
C4    C14   A    
C37   H7    S    
C24   C30   A    
O22   H13   S    
C21   N1    A    
C43   H22   S    
C36   O19   D    
O26   H27   S    
Cu1   O8    S    
Cu2   O7    S    
C42   H18   S    
N4    C46   S    
