data_mof_unit_54951.cif
_audit_creation_date              2012-12-10T16:38:36-0500
_audit_creation_method            fapswitch 2.2
_symmetry_space_group_name_H-M    P1
_symmetry_Int_Tables_number       1
_space_group_crystal_system       triclinic
_cell_length_a                    10.903216
_cell_length_b                    10.895196
_cell_length_c                    17.607285
_cell_angle_alpha                 97.534077
_cell_angle_beta                  72.604084
_cell_angle_gamma                 98.328099
_cell_volume                      1966.34250977

loop_
_atom_site_label
_atom_site_type_symbol
_atom_type_description
_atom_site_fract_x
_atom_site_fract_y
_atom_site_fract_z
_atom_type_partial_charge
C1    C     C_R   0.158056 0.480023 0.518464 0.495199
C2    C     C_R   0.599666 0.362524 0.911190 0.084951
C3    C     C_R   0.679480 0.329609 0.952630 -0.127438
C4    C     C_R   0.844248 0.517309 0.480292 0.550367
C5    C     C_R   0.649197 0.352621 0.035467 0.026836
C6    C     C_R   0.528022 0.393142 0.079093 0.019637
C7    C     C_R   0.738932 0.336201 0.075139 -0.128171
C8    C     C_R   0.711810 0.365150 0.157530 -0.126545
C9    C     C_R   0.505036 0.426998 0.161720 -0.130986
C10   C     C_2   0.983615 0.512411 0.466849 0.027491
C11   C     C_2   0.022453 0.478863 0.526918 0.100627
C12   C     C_R   0.277339 0.617211 0.848910 0.102114
C13   C     C_2   0.535040 0.965292 0.468768 0.027877
C14   C     C_2   0.459123 0.038689 0.526897 0.101815
C15   C     C_R   0.467403 0.169433 0.519001 0.492609
C16   C     C_R   0.529437 0.833070 0.480837 0.550703
C17   C     C_R   0.564363 0.437566 0.287426 0.489420
C18   C     C_R   0.435086 0.561929 0.713329 0.516741
C19   C     C_R   0.393544 0.570771 0.802184 0.018510
C20   C     C_R   0.594829 0.410462 0.200844 0.034931
C21   C     C_R   0.237095 0.608485 0.932853 0.051116
C22   C     C_3   0.084883 0.540925 0.387175 -0.299360
C23   C     C_R   0.468153 0.520583 0.839864 -0.140920
C24   C     C_3   0.035805 0.569027 0.319217 -0.427222
C25   C     C_3   0.622535 0.022409 0.392586 -0.299950
C26   C     C_3   0.701057 0.935864 0.326083 -0.417265
C27   C     C_3   0.142825 0.695300 0.988196 -0.254968
C28   C     C_3   0.190573 0.833118 0.978000 -0.460588
C29   C     C_3   0.232044 0.322238 0.136523 -0.274208
C30   C     C_3   0.205498 0.192707 0.095489 -0.435512
C31   C     C_R   0.417282 0.486626 0.918432 -0.011140
C32   C     C_R   0.296099 0.526146 0.964585 0.044017
C33   C     C_R   0.486481 0.420536 0.954017 0.055022
C34   C     C_R   0.439391 0.410861 0.037520 -0.005803
C35   C     C_R   0.304559 0.413100 0.074416 0.014113
C36   C     C_R   0.233396 0.473898 0.037922 0.099155
H1    H     H_    0.830823 0.302918 0.042220 0.107243
H2    H     H_    0.118461 0.577131 0.264274 0.114209
H3    H     H_    0.154428 0.621313 0.398698 0.139044
H4    H     H_    0.139655 0.458940 0.363861 0.157739
H5    H     H_    0.944856 0.372125 0.619191 0.221029
H6    H     H_    0.961543 0.526854 0.646548 0.234329
H7    H     H_    0.776616 0.901289 0.345650 0.179924
H8    H     H_    0.636746 0.857163 0.306808 0.172409
H9    H     H_    0.751172 0.988803 0.273526 0.119481
H10   H     H_    0.560911 0.064723 0.365321 0.159544
H11   H     H_    0.691630 0.098479 0.409829 0.139401
H12   H     H_    0.420195 0.471681 0.195719 0.095929
H13   H     H_    0.285842 0.013886 0.610165 0.222017
H14   H     H_    0.413797 0.046327 0.647739 0.231489
H15   H     H_    0.293818 0.852884 0.977180 0.156754
H16   H     H_    0.178583 0.861128 0.922712 0.147465
H17   H     H_    0.132866 0.891610 0.028907 0.133178
H18   H     H_    0.045107 0.672264 0.979463 0.151281
H19   H     H_    0.132672 0.686928 0.051751 0.175409
H20   H     H_    0.240615 0.760349 0.799101 0.238960
H21   H     H_    0.104583 0.669908 0.845320 0.223413
H22   H     H_    0.149549 0.195805 0.052615 0.147835
H23   H     H_    0.781851 0.352149 0.187526 0.100822
H24   H     H_    0.298127 0.154665 0.062736 0.161192
H25   H     H_    0.149033 0.128871 0.141051 0.131051
H26   H     H_    0.285126 0.310601 0.178948 0.150904
H27   H     H_    0.139399 0.354478 0.174536 0.132685
H28   H     H_    0.625155 0.226903 0.819622 0.235680
H29   H     H_    0.721515 0.361658 0.799161 0.228165
H30   H     H_    0.767457 0.289152 0.919372 0.106974
H31   H     H_    0.565619 0.506961 0.805464 0.179238
H32   H     H_    0.072774 0.510768 0.128718 0.215731
H33   H     H_    0.052695 0.378532 0.068258 0.232220
H34   H     H_    0.963761 0.492318 0.306288 0.159258
H35   H     H_    0.994321 0.659359 0.333634 0.183632
N1    N     N_3   0.095254 0.470686 0.069637 -0.662410
N2    N     N_3   0.934615 0.459415 0.604714 -0.596500
N3    N     N_3   0.380617 0.995182 0.601814 -0.595309
N4    N     N_3   0.200385 0.669135 0.810205 -0.598322
N5    N     N_3   0.627443 0.323939 0.827369 -0.638563
O1    O     O_3   0.500000 0.500000 0.500000 -0.440927
O2    O     O_R   0.470800 0.371790 0.332500 -0.543922
O3    O     O_R   0.380610 0.619380 0.674980 -0.506750
O4    O     O_R   0.632640 0.524780 0.317540 -0.552106
O5    O     O_R   0.515950 0.484050 0.674980 -0.538632
O6    O     O_R   0.535460 0.243030 0.556410 -0.542154
O7    O     O_R   0.437420 0.784080 0.535340 -0.498549
O8    O     O_R   0.223560 0.397520 0.472140 -0.551543
O9    O     O_R   0.803560 0.575360 0.436110 -0.559269
O10   O     O_R   0.209690 0.568800 0.556400 -0.539978
O11   O     O_R   0.763190 0.458310 0.535350 -0.498150
O12   O     O_R   0.414000 0.207090 0.472140 -0.550042
O13   O     O_R   0.613120 0.765800 0.436110 -0.558853
Zn1   Zn    Zn3+2 0.577310 0.422690 0.565550 0.949978
Zn2   Zn    Zn3+2 0.403760 0.371330 0.445150 0.912354
Zn3   Zn    Zn3+2 0.634990 0.589920 0.423760 0.902661
Zn4   Zn    Zn3+2 0.383940 0.616050 0.565540 0.958178

loop_
_geom_bond_atom_site_label_1
_geom_bond_atom_site_label_2
_ccdc_geom_bond_type
C29   H27   S    
O1    Zn3   S    
C35   C36   A    
C1    C11   S    
C17   C20   S    
C6    C9    A    
C27   H18   S    
C24   H34   S    
C7    C8    A    
C4    O11   A    
C10   C22   S    
C1    O8    A    
C8    C20   A    
H29   N5    S    
C14   N3    S    
O3    Zn4   S    
H14   N3    S    
C8    H23   S    
C5    C6    A    
C28   H15   S    
C27   H19   S    
O7    Zn4   S    
C18   O5    A    
C34   C35   A    
C23   H31   S    
C26   H9    S    
C18   O3    A    
C30   H24   S    
C24   H2    S    
C31   C33   A    
O8    Zn2   S    
C25   H11   S    
C21   C27   S    
C16   O13   A    
H20   N4    S    
C13   C14   D    
C13   C25   S    
O9    Zn3   S    
C26   H7    S    
C15   O6    A    
C7    H1    S    
C21   C32   A    
O1    Zn1   S    
C26   H8    S    
C11   N2    S    
C5    C7    A    
C18   C19   S    
C4    O9    A    
C25   C26   S    
C12   C21   A    
C16   O7    A    
C6    C34   A    
C23   C31   A    
O4    Zn3   S    
H33   N1    S    
C19   C23   A    
C29   C30   S    
O10   Zn4   S    
C9    C20   A    
C31   C32   A    
O12   Zn2   S    
H32   N1    S    
C22   H4    S    
C33   C34   A    
H28   N5    S    
O13   Zn3   S    
O5    Zn1   S    
C2    C33   A    
C22   C24   S    
O11   Zn1   S    
C3    H30   S    
C4    C10   S    
C32   C36   A    
C2    N5    S    
C1    O10   A    
C29   H26   S    
O1    Zn2   S    
H6    N2    S    
H13   N3    S    
C3    C5    A    
C28   H17   S    
O2    Zn2   S    
C29   C35   S    
O6    Zn1   S    
H21   N4    S    
C2    C3    A    
C13   C16   S    
C28   H16   S    
C22   H3    S    
C30   H22   S    
C12   C19   A    
O1    Zn4   S    
C17   O2    A    
C17   O4    A    
C10   C11   D    
C12   N4    S    
H5    N2    S    
C9    H12   S    
C30   H25   S    
C27   C28   S    
C14   C15   S    
C25   H10   S    
C36   N1    S    
C24   H35   S    
C15   O12   A    
