data_mof_unit_28571.cif
_audit_creation_date              2012-12-10T17:51:31-0500
_audit_creation_method            fapswitch 2.2
_symmetry_space_group_name_H-M    P1
_symmetry_Int_Tables_number       1
_space_group_crystal_system       triclinic
_cell_length_a                    9.864349
_cell_length_b                    10.600594
_cell_length_c                    16.657351
_cell_angle_alpha                 91.960894
_cell_angle_beta                  85.557873
_cell_angle_gamma                 91.303631
_cell_volume                      1735.22277923

loop_
_atom_site_label
_atom_site_type_symbol
_atom_type_description
_atom_site_fract_x
_atom_site_fract_y
_atom_site_fract_z
_atom_type_partial_charge
C1    C     C_R   0.503768 0.736996 0.485747 0.880082
C2    C     C_R   0.527756 0.552579 0.264789 -0.085439
C3    C     C_R   0.293246 0.855579 0.396087 -0.224703
C4    C     C_R   0.481564 0.503513 0.653615 0.869363
C5    C     C_R   0.181290 0.915859 0.370405 -0.281129
C6    C     C_R   0.176842 0.047704 0.373160 0.538380
C7    C     C_R   0.283928 0.117220 0.404288 -0.248196
C8    C     C_R   0.393860 0.057715 0.436332 0.039599
C9    C     C_R   0.399092 0.924998 0.431261 0.107808
C10   C     C_R   0.513436 0.866088 0.458891 -0.179740
C11   C     C_R   0.634282 0.937178 0.468250 -0.048627
C12   C     C_R   0.343481 0.552064 0.781087 -0.206541
C13   C     C_R   0.623566 0.064986 0.481442 -0.281511
C14   C     C_R   0.501775 0.125193 0.471533 -0.132910
C15   C     C_R   0.848943 0.662706 0.607704 -0.148114
C16   C     C_R   0.499557 0.259182 0.491847 0.897500
C17   C     C_R   0.913976 0.741242 0.661869 -0.169029
C18   C     C_R   0.054132 0.740646 0.662435 -0.204160
C19   C     C_R   0.129956 0.661546 0.608831 -0.164041
C20   C     C_R   0.067233 0.578977 0.554010 0.161261
C21   C     C_R   0.922359 0.579345 0.553689 0.174336
C22   C     C_R   0.933317 0.427244 0.446886 -0.076147
C23   C     C_R   0.418541 0.659639 0.162663 -0.241646
C24   C     C_R   0.076620 0.428269 0.446390 -0.100585
C25   C     C_R   0.518426 0.507232 0.346799 0.858714
C26   C     C_R   0.470974 0.530061 0.740252 -0.039198
C27   C     C_R   0.589448 0.547414 0.780980 -0.218689
C28   C     C_R   0.580897 0.588563 0.861042 -0.150461
C29   C     C_R   0.453465 0.613597 0.901309 0.209210
C30   C     C_R   0.334981 0.593301 0.861254 -0.176673
C31   C     C_3   0.862865 0.533004 0.088575 0.066934
C32   C     C_3   0.999339 0.552540 0.125733 -0.330827
C33   C     C_3   0.096311 0.445499 0.101019 -1.003976
C34   C     C_R   0.410734 0.600608 0.235366 -0.227592
C35   C     C_2   0.773180 0.884166 0.462508 0.949130
C36   C     C_3   0.043866 0.087453 0.269961 0.094357
C37   C     C_3   0.934741 0.175029 0.244622 -0.368845
C38   C     C_3   0.796000 0.147683 0.288507 -0.770862
C39   C     C_R   0.654148 0.568225 0.221110 -0.290201
C40   C     C_R   0.661884 0.622124 0.144868 0.504927
C41   C     C_R   0.541835 0.664690 0.115021 0.120901
C42   C     C_2   0.439260 0.642375 0.987861 -0.269163
C43   C     C_2   0.541067 0.690548 0.029112 -0.201144
H1    H     H_    0.689000 0.530508 0.750892 0.161737
H2    H     H_    0.104754 0.802884 0.704048 0.157187
H3    H     H_    0.237086 0.669210 0.611837 0.209939
H4    H     H_    0.134291 0.371973 0.401423 0.154808
H5    H     H_    0.746169 0.539616 0.246267 0.166135
H6    H     H_    0.633852 0.726071 0.997688 0.184526
H7    H     H_    0.235750 0.608829 0.892243 0.128725
H8    H     H_    0.326317 0.696832 0.142169 0.154472
H9    H     H_    0.250497 0.539458 0.750934 0.161304
H10   H     H_    0.346815 0.605969 0.019314 0.165204
H11   H     H_    0.673893 0.596797 0.891374 0.128759
H12   H     H_    0.297071 0.754697 0.385468 0.188166
H13   H     H_    0.882461 0.517548 0.022415 0.163170
H14   H     H_    0.810883 0.445235 0.111477 0.117020
H15   H     H_    0.047570 0.643076 0.105623 0.229726
H16   H     H_    0.982261 0.557834 0.192459 0.212823
H17   H     H_    0.049509 0.353268 0.118306 0.261547
H18   H     H_    0.191690 0.459753 0.131712 0.271857
H19   H     H_    0.121849 0.444022 0.034865 0.266992
H20   H     H_    0.961608 0.890815 0.501967 0.352411
H21   H     H_    0.009732 0.988104 0.258836 0.149195
H22   H     H_    0.139182 0.106502 0.231424 0.092931
H23   H     H_    0.099064 0.859392 0.347585 0.168649
H24   H     H_    0.965442 0.274850 0.257329 0.213357
H25   H     H_    0.925969 0.162141 0.178724 0.173360
H26   H     H_    0.762072 0.049022 0.275272 0.255904
H27   H     H_    0.719978 0.213027 0.268357 0.219346
H28   H     H_    0.801218 0.161969 0.354442 0.279182
H29   H     H_    0.281856 0.217518 0.398660 0.167402
H30   H     H_    0.712927 0.117987 0.498196 0.214495
H31   H     H_    0.883347 0.368344 0.403427 0.155518
H32   H     H_    0.741666 0.671986 0.609051 0.200954
H33   H     H_    0.855235 0.804190 0.702860 0.159775
H34   H     H_    0.312588 0.595271 0.269196 0.167886
N1    N     N_R   0.857140 0.501200 0.500750 -0.115782
N2    N     N_R   0.142740 0.501280 0.500770 -0.127637
O1    O     O_R   0.385310 0.683220 0.500000 -0.645692
O2    O     O_2   0.804331 0.801995 0.411474 -0.628955
O3    O     O_R   0.870667 0.933444 0.512286 -0.804891
O4    O     O_3   0.064324 0.111318 0.352167 -0.628324
O5    O     O_R   0.614640 0.683250 0.500010 -0.612715
O6    O     O_R   0.371780 0.500010 0.615800 -0.628187
O7    O     O_R   0.601110 0.500030 0.615800 -0.633558
O8    O     O_R   0.385360 0.316750 0.499990 -0.610923
O9    O     O_R   0.614690 0.316780 0.500000 -0.617193
O10   O     O_R   0.398890 0.499970 0.384200 -0.645868
O11   O     O_R   0.628220 0.499990 0.384200 -0.604048
O12   O     O_3   0.785686 0.643971 0.101440 -0.668147
Zn1   Zn    Zn3+2 0.346870 0.499980 0.499990 0.924920
Zn2   Zn    Zn3+2 0.653130 0.500020 0.500010 0.960180

loop_
_geom_bond_atom_site_label_1
_geom_bond_atom_site_label_2
_ccdc_geom_bond_type
C15   H32   S    
C38   H27   S    
C29   C42   S    
C19   C20   A    
C32   H15   S    
C35   O2    D    
C19   H3    S    
C7    C8    A    
C1    O5    A    
C26   C27   A    
C29   C30   A    
C36   C37   S    
C33   H19   S    
C34   H34   S    
C5    C6    A    
C4    O7    A    
C36   O4    S    
C37   H25   S    
C18   C19   A    
O9    Zn2   S    
C3    H12   S    
C2    C39   A    
C35   O3    S    
C8    C9    A    
C21   N1    A    
C16   O8    A    
C31   H13   S    
C9    C10   A    
C2    C34   A    
C30   H7    S    
C38   H26   S    
C13   C14   A    
C41   C43   S    
C27   H1    S    
C12   H9    S    
O6    Zn1   S    
H20   O3    S    
C22   N1    A    
C7    H29   S    
C28   H11   S    
C36   H22   S    
C43   H6    S    
C4    O6    A    
C12   C26   A    
O1    Zn1   S    
C37   C38   S    
C3    C9    A    
O7    Zn2   S    
C17   H33   S    
C24   N2    A    
C23   H8    S    
C31   C32   S    
C23   C34   A    
C17   C18   A    
C25   O11   A    
O10   Zn1   S    
N2    Zn1   S    
C40   C41   A    
C13   H30   S    
C33   H17   S    
C31   O12   S    
C14   C16   S    
C42   C43   D    
C22   H31   S    
C18   H2    S    
C39   C40   A    
O11   Zn2   S    
C15   C17   A    
C38   H28   S    
C28   C29   A    
C8    C14   A    
C6    O4    S    
C20   N2    A    
C12   C30   A    
C24   H4    S    
C1    C10   S    
C5    H23   S    
C3    C5    A    
C4    C26   S    
C6    C7    A    
C25   O10   A    
C23   C41   A    
C32   C33   S    
C31   H14   S    
C11   C35   S    
C42   H10   S    
C36   H21   S    
C11   C13   A    
C37   H24   S    
C2    C25   S    
C22   C24   A    
O5    Zn2   S    
C40   O12   S    
C10   C11   A    
C15   C21   A    
C20   C21   A    
C33   H18   S    
C27   C28   A    
C16   O9    A    
C1    O1    A    
N1    Zn2   S    
C32   H16   S    
O8    Zn1   S    
C39   H5    S    
