data_mof_unit_53965.cif
_audit_creation_date              2013-03-05T15:46:12-0500
_audit_creation_method            fapswitch 2.2
_symmetry_space_group_name_H-M    P1
_symmetry_Int_Tables_number       1
_space_group_crystal_system       triclinic
_cell_length_a                    10.600498
_cell_length_b                    10.641909
_cell_length_c                    17.066775
_cell_angle_alpha                 80.60305
_cell_angle_beta                  89.555831
_cell_angle_gamma                 119.32434
_cell_volume                      1647.4316255

loop_
_atom_site_label
_atom_site_type_symbol
_atom_site_description
_atom_site_fract_x
_atom_site_fract_y
_atom_site_fract_z
_atom_type_partial_charge
O1    O     O_R   0.521780 0.757110 0.108900 -0.483035
O2    O     O_R   0.275160 0.783810 0.101120 -0.478191
C1    C     C_R   0.278491 0.888970 0.132764 0.549493
O3    O     O_R   0.237900 0.972600 0.090980 -0.512899
O4    O     O_R   0.511190 0.220540 0.061620 -0.492371
C2    C     C_R   0.632930 0.271052 0.090439 0.598056
O5    O     O_R   0.736920 0.257720 0.063840 -0.495555
O6    O     O_R   0.710450 0.984050 0.081720 -0.512316
C3    C     C_R   0.640386 0.858238 0.125343 0.563365
O7    O     O_R   0.524090 0.765520 0.933110 -0.492906
O8    O     O_R   0.277300 0.791600 0.938160 -0.485538
C4    C     C_R   0.222530 0.862361 0.899707 0.595522
O9    O     O_R   0.240210 0.981010 0.915190 -0.517419
O10   O     O_R   0.513330 0.228330 0.898660 -0.515388
C5    C     C_R   0.637527 0.284596 0.861029 0.570311
O11   O     O_R   0.739230 0.266130 0.888050 -0.442460
O12   O     O_R   0.712580 0.991850 0.918770 -0.488376
C6    C     C_R   0.599626 0.896123 0.889347 0.553420
Cr1   Cr    Cr6+3 0.402240 0.783890 0.019450 1.063036
Cr2   Cr    Cr6+3 0.382360 0.097900 0.991800 1.019904
Cr3   Cr    Cr6+3 0.715380 0.118170 0.988700 1.081806
O13   O     O_3   0.499990 0.999980 0.999980 -0.330203
C7    C     C_R   0.535269 0.328059 0.204980 0.257056
C8    C     C_R   0.528627 0.326789 0.287510 0.215995
C9    C     C_R   0.633078 0.309676 0.332207 -0.005374
C10   C     C_R   0.718137 0.258812 0.300339 0.194286
C11   C     C_R   0.713694 0.246791 0.221090 -0.204245
H1    H     H_    0.775902 0.202529 0.197969 0.153793
C12   C     C_R   0.633961 0.293637 0.171863 -0.041414
C13   C     C_1   0.668670 0.848925 0.205475 -0.029532
C14   C     C_1   0.680400 0.839992 0.274949 -0.017485
C15   C     C_1   0.227453 0.854297 0.215503 -0.056656
C16   C     C_1   0.178926 0.834581 0.283153 -0.060875
C17   C     C_1   0.644209 0.323230 0.778146 -0.031005
C18   C     C_1   0.651024 0.344776 0.707476 -0.035052
C19   C     C_R   0.493851 0.794867 0.771806 -0.131014
H2    H     H_    0.391456 0.721680 0.807940 0.156821
C20   C     C_R   0.509231 0.776331 0.694750 -0.126125
H3    H     H_    0.418100 0.688731 0.673150 0.143493
C21   C     C_R   0.645423 0.858886 0.649972 0.024660
C22   C     C_R   0.759674 0.975144 0.678564 -0.122206
H4    H     H_    0.864946 0.042598 0.644128 0.136566
C23   C     C_R   0.743219 0.995288 0.755655 -0.123994
H5    H     H_    0.835119 0.079377 0.778774 0.159646
C24   C     C_R   0.613062 0.898063 0.804219 0.009456
C25   C     C_R   0.246871 0.964848 0.759841 -0.170664
H6    H     H_    0.305865 0.074244 0.773262 0.149650
C26   C     C_R   0.233798 0.953142 0.681111 -0.149501
H7    H     H_    0.274743 0.052132 0.635898 0.128654
C27   C     C_R   0.158901 0.814729 0.661619 -0.012521
C28   C     C_R   0.108413 0.687267 0.720757 -0.127193
H8    H     H_    0.049042 0.579409 0.705483 0.171835
C29   C     C_R   0.119897 0.697568 0.800933 0.171906
C30   C     C_R   0.186709 0.838303 0.820289 0.014770
O14   O     O_R   0.083770 0.911170 0.376030 -0.547031
O15   O     O_R   0.808770 0.880340 0.383890 -0.489320
C31   C     C_R   0.686544 0.810584 0.357395 0.576343
O16   O     O_R   0.584340 0.689460 0.394160 -0.495366
O17   O     O_R   0.614320 0.443940 0.423590 -0.469991
C32   C     C_R   0.680903 0.382360 0.400282 0.583260
O18   O     O_R   0.805020 0.410040 0.421340 -0.485774
O19   O     O_R   0.049240 0.685450 0.403290 -0.499009
C33   C     C_R   0.108418 0.812564 0.359973 0.543385
O20   O     O_R   0.077520 0.903010 0.551800 -0.531868
O21   O     O_R   0.802980 0.872780 0.546830 -0.499871
C34   C     C_R   0.674655 0.805620 0.582477 0.556599
O22   O     O_R   0.578090 0.681300 0.569920 -0.522816
O23   O     O_R   0.608530 0.436370 0.586530 -0.511503
C35   C     C_R   0.678435 0.381938 0.624301 0.542256
O24   O     O_R   0.798770 0.401880 0.597100 -0.515055
O25   O     O_R   0.043450 0.677890 0.566230 -0.510119
C36   C     C_R   0.101047 0.802400 0.585454 0.551334
Cr4   Cr    Cr6+3 0.936650 0.882420 0.465510 0.997069
Cr5   Cr    Cr6+3 0.605770 0.565620 0.493360 1.021238
Cr6   Cr    Cr6+3 0.921340 0.550490 0.496380 1.012830
O26   O     O_3   0.821250 0.666180 0.485090 -0.249750
O27   O     O_3   0.461151 0.379250 0.154497 -0.514532
C37   C     C_3   0.308850 0.287606 0.171479 0.023431
H9    H     H_    0.267445 0.328069 0.215588 0.161747
H10   H     H_    0.275826 0.170180 0.194136 0.125240
C38   C     C_3   0.236355 0.296428 0.095754 -0.323926
H11   H     H_    0.274451 0.258021 0.048949 0.189160
H12   H     H_    0.116464 0.226162 0.108675 0.095548
H13   H     H_    0.263040 0.411566 0.073183 0.168406
N1    N     N_R   0.060808 0.565931 0.861074 0.074518
O28   O     O_R   0.997271 0.557597 0.928808 -0.310544
O29   O     O_R   0.058537 0.449170 0.845504 -0.355587
O30   O     O_3   0.429610 0.355328 0.322750 -0.540468
C39   C     C_3   0.321497 0.225095 0.373529 -0.011629
H14   H     H_    0.341083 0.129946 0.380551 0.121135
H15   H     H_    0.216939 0.190281 0.347222 0.140386
C40   C     C_3   0.303883 0.253548 0.456748 -0.334847
H16   H     H_    0.193033 0.173568 0.485974 0.108615
H17   H     H_    0.381781 0.239028 0.494910 0.140785
H18   H     H_    0.321365 0.366115 0.453411 0.166448
O31   O     O_3   0.805970 0.222257 0.347419 -0.531577
C41   C     C_3   0.952671 0.306058 0.313485 0.020956
H19   H     H_    0.981173 0.417356 0.279743 0.144231
H20   H     H_    0.974804 0.245645 0.272952 0.117155
C42   C     C_3   0.051637 0.328305 0.379708 -0.359831
H21   H     H_    0.026523 0.219780 0.414568 0.145729
H22   H     H_    0.166532 0.390641 0.353142 0.110642
H23   H     H_    0.036001 0.392000 0.420358 0.179979

loop_
_geom_bond_atom_site_label_1
_geom_bond_atom_site_label_2
_geom_bond_distance
_ccdc_geom_bond_type
C20   C21   1.400500 A    
O11   Cr3   2.052816 S    
C11   C12   1.398479 A    
C22   H4    1.083247 S    
Cr6   O26   1.970741 S    
O20   C36   1.265472 A    
C41   C42   1.515414 S    
C38   H11   1.109744 S    
O4    Cr2   1.943074 S    
N1    O28   1.301461 A    
O18   Cr6   2.058864 S    
O8    Cr1   1.945084 S    
C10   C11   1.378216 A    
Cr5   O26   1.983439 S    
C7    C12   1.407809 A    
C19   H2    1.081574 S    
C20   H3    1.083425 S    
C37   H10   1.115922 S    
O23   Cr5   1.935755 S    
C5    O11   1.264607 A    
C41   H19   1.117953 S    
O21   Cr4   1.930061 S    
O15   C31   1.269195 A    
O12   C6    1.305835 A    
C17   C18   1.185155 T    
C27   C36   1.439544 S    
C40   H16   1.107538 S    
C38   H12   1.110823 S    
O23   C35   1.267340 A    
O14   C33   1.267231 A    
O20   Cr4   2.065364 S    
C9    C32   1.457269 S    
C39   H15   1.107759 S    
C5    C17   1.398211 S    
O27   C37   1.414147 S    
O30   C39   1.421930 S    
C26   C27   1.388987 A    
C34   O22   1.270262 A    
O17   C32   1.272674 A    
C21   C34   1.457407 S    
Cr3   O13   1.983284 S    
C22   C23   1.390182 A    
C1    C15   1.430158 S    
C42   H22   1.109442 S    
C41   H20   1.112383 S    
C27   C28   1.406595 A    
N1    O29   1.301444 A    
C10   O31   1.388575 S    
C25   C26   1.371426 A    
O1    Cr1   2.063786 S    
C28   H8    1.083609 S    
O10   Cr2   1.933565 S    
Cr1   O13   1.970648 S    
O1    C3    1.263503 A    
C8    C9    1.416440 A    
C37   H9    1.109337 S    
O6    C3    1.261112 A    
C9    C10   1.402998 A    
O5    Cr3   2.048518 S    
C40   H18   1.110283 S    
O12   Cr3   1.928147 S    
C32   O18   1.268570 A    
C28   C29   1.392007 A    
O14   Cr4   2.049649 S    
C23   H5    1.082983 S    
O19   C33   1.266890 A    
C23   C24   1.401812 A    
O7    Cr1   2.046915 S    
C16   C33   1.430166 S    
O31   C41   1.417047 S    
C25   C30   1.406930 A    
C40   H17   1.109234 S    
O6    Cr3   1.935443 S    
C19   C24   1.399588 A    
O22   Cr5   2.044997 S    
C7    O27   1.390290 S    
C39   C40   1.528205 S    
C8    O30   1.384847 S    
O17   Cr5   1.928645 S    
C3    C13   1.400446 S    
C26   H7    1.084007 S    
Cr2   O13   1.971842 S    
C13   C14   1.186363 T    
Cr4   O26   1.972019 S    
O19   Cr6   1.933707 S    
C1    O3    1.287772 A    
C6    C24   1.454524 S    
C11   H1    1.083211 S    
C38   H13   1.111049 S    
O16   Cr5   2.055578 S    
C25   H6    1.083995 S    
C21   C22   1.405068 A    
O15   Cr4   1.946405 S    
O9    Cr2   2.062318 S    
O2    Cr1   1.930515 S    
O8    C4    1.267916 A    
C29   C30   1.407126 A    
C2    O5    1.268013 A    
C15   C16   1.203174 T    
C14   C31   1.399875 S    
C19   C20   1.381266 A    
O2    C1    1.305467 A    
O25   C36   1.260459 A    
O25   Cr6   1.941013 S    
C37   C38   1.521871 S    
C31   O16   1.259544 A    
O4    C2    1.270020 A    
O7    C6    1.300918 A    
C42   H21   1.109360 S    
C42   H23   1.109084 S    
C35   O24   1.257468 A    
C7    C8    1.407252 A    
O3    Cr2   2.052050 S    
C2    C12   1.447667 S    
C4    O9    1.255853 A    
C18   C35   1.397716 S    
O21   C34   1.274461 A    
O24   Cr6   2.051601 S    
O10   C5    1.262323 A    
C29   N1    1.438508 S    
C39   H14   1.117782 S    
C4    C30   1.439773 S    
