data_mof_unit_66974.cif
_audit_creation_date              2012-12-11T17:40:58-0500
_audit_creation_method            fapswitch 2.2
_symmetry_space_group_name_H-M    P1
_symmetry_Int_Tables_number       1
_space_group_crystal_system       triclinic
_cell_length_a                    8.197429
_cell_length_b                    12.661926
_cell_length_c                    14.196896
_cell_angle_alpha                 92.729202
_cell_angle_beta                  90.634804
_cell_angle_gamma                 98.222077
_cell_volume                      1456.53093448

loop_
_atom_site_label
_atom_site_type_symbol
_atom_type_description
_atom_site_fract_x
_atom_site_fract_y
_atom_site_fract_z
_atom_type_partial_charge
Ba1   Ba    Ba6+2 0.855630 0.555280 0.454520 1.613716
Ba2   Ba    Ba6+2 0.334200 0.444810 0.545490 1.661553
C1    C     C_3   0.613253 0.952123 0.183800 -0.403852
C2    C     C_R   0.182898 0.499392 0.196208 0.060661
C3    C     C_R   0.337523 0.551335 0.226382 -0.322466
C4    C     C_3   0.150036 0.805919 0.194874 -0.082174
C5    C     C_R   0.450300 0.598091 0.162623 -0.029256
C6    C     C_R   0.405613 0.601206 0.067748 -0.197207
C7    C     C_R   0.248944 0.552872 0.034935 0.028160
C8    C     C_R   0.137675 0.497902 0.098314 -0.056281
C9    C     C_R   0.053782 0.503071 0.902077 -0.017451
C10   C     C_R   0.942548 0.448242 0.965491 -0.032546
C11   C     C_R   0.008744 0.500629 0.804076 0.027927
C12   C     C_3   0.653170 0.857302 0.236946 0.468639
C13   C     C_R   0.855648 0.446938 0.773633 -0.285168
C14   C     C_R   0.742400 0.401720 0.837515 0.080470
C15   C     C_R   0.786115 0.399718 0.932634 -0.141425
C16   C     C_3   0.149104 0.847382 0.095896 0.556094
C17   C     C_R   0.204950 0.557195 0.939009 -0.017645
C18   C     C_R   0.767017 0.176071 0.531306 -0.176926
C19   C     C_R   0.428554 0.813310 0.461776 -0.283586
C20   C     C_R   0.405858 0.994844 0.426697 -0.107045
C21   C     C_R   0.340477 0.887466 0.423065 -0.023231
C22   C     C_R   0.576191 0.846277 0.511870 0.068060
C23   C     C_3   0.475516 0.312696 0.257276 0.284578
C24   C     C_R   0.641871 0.956805 0.519826 -0.049671
C25   C     C_R   0.555969 0.031372 0.474921 -0.053408
C26   C     C_R   0.620497 0.141043 0.481543 0.014409
C27   C     C_R   0.856000 0.104016 0.571817 0.079174
C28   C     C_3   0.226687 0.762928 0.656273 0.318964
C29   C     C_R   0.791049 0.995498 0.569679 -0.082541
C30   C     C_3   0.227549 0.881961 0.674777 -0.384259
C31   C     C_3   0.969186 0.235397 0.341502 0.273877
C32   C     C_3   0.970869 0.116877 0.320659 -0.317367
C33   C     C_3   0.714112 0.673351 0.738344 0.308168
C34   C     C_3   0.454006 0.291024 0.151189 -0.401780
C35   C     C_3   0.729795 0.697227 0.844430 -0.370246
C36   C     C_3   0.067246 0.200894 0.804218 0.312286
C37   C     C_3   0.069923 0.163155 0.904271 -0.364729
C38   C     C_3   0.527813 0.140709 0.773108 0.825089
C39   C     C_3   0.547565 0.044798 0.830572 -0.317771
C40   C     C_R   0.986204 0.444247 0.061431 -0.005166
F1    F     F_    0.678507 0.174780 0.733759 -0.799179
F2    F     F_    0.990424 0.857627 0.067849 -0.651758
H1    H     H_    0.747747 0.885698 0.292559 0.077538
H2    H     H_    0.831508 0.651181 0.712028 0.012378
H3    H     H_    0.613051 0.606024 0.724179 0.055158
H4    H     H_    0.572921 0.012942 0.233832 0.086037
H5    H     H_    0.836162 0.760472 0.860861 0.164610
H6    H     H_    0.748928 0.624561 0.881076 0.061958
H7    H     H_    0.615457 0.724906 0.871095 0.124586
H8    H     H_    0.538667 0.822158 0.271599 -0.206712
H9    H     H_    0.513064 0.925194 0.131269 0.063312
H10   H     H_    0.359528 0.335621 0.285769 0.024031
H11   H     H_    0.577812 0.379507 0.270613 0.066675
H12   H     H_    0.296192 0.908467 0.741093 0.117461
H13   H     H_    0.347159 0.227878 0.135589 0.134535
H14   H     H_    0.432120 0.364713 0.116839 0.074737
H15   H     H_    0.566950 0.264241 0.121588 0.121992
H16   H     H_    0.723161 0.988388 0.145679 0.169820
H17   H     H_    0.198801 0.790754 0.045531 -0.076177
H18   H     H_    0.170133 0.266754 0.797302 0.093735
H19   H     H_    0.949492 0.231963 0.792597 0.074616
H20   H     H_    0.186968 0.131755 0.918603 0.148043
H21   H     H_    0.059675 0.230858 0.955469 0.073955
H22   H     H_    0.964873 0.098985 0.913798 0.142965
H23   H     H_    0.287045 0.926786 0.616297 0.090826
H24   H     H_    0.435267 0.116084 0.715640 0.035007
H25   H     H_    0.645013 0.067710 0.885725 0.118169
H26   H     H_    0.583719 0.979375 0.783951 0.094113
H27   H     H_    0.065023 0.729346 0.195482 0.121913
H28   H     H_    0.430277 0.016108 0.865687 0.064332
H29   H     H_    0.373637 0.551101 0.299909 0.076217
H30   H     H_    0.493670 0.640287 0.019636 0.087142
H31   H     H_    0.697402 0.361579 0.980892 0.070463
H32   H     H_    0.820141 0.445745 0.699896 0.074693
H33   H     H_    0.899957 0.399021 0.106534 0.099715
H34   H     H_    0.099363 0.899329 0.681971 0.142570
H35   H     H_    0.290978 0.602499 0.893818 0.094570
H36   H     H_    0.335335 0.048730 0.393343 0.101016
H37   H     H_    0.859595 0.943092 0.606174 0.101879
H38   H     H_    0.816107 0.260220 0.535070 0.051248
H39   H     H_    0.277118 0.791136 0.211511 0.306403
H40   H     H_    0.376951 0.729623 0.457487 0.070322
H41   H     H_    0.226965 0.926542 0.094467 0.000654
H42   H     H_    0.353313 0.747237 0.642641 -0.002361
H43   H     H_    0.146161 0.737546 0.593497 0.068364
H44   H     H_    0.842692 0.249591 0.357009 -0.001707
H45   H     H_    0.051501 0.260602 0.403516 0.069952
H46   H     H_    0.896492 0.090199 0.256172 0.124668
H47   H     H_    0.918621 0.070500 0.380083 0.061407
H48   H     H_    0.099272 0.101465 0.309255 0.135787
O1    O     O_2   0.887370 0.460630 0.272300 -0.468979
O2    O     O_2   0.197629 0.110823 0.569242 -0.497801
O3    O     O_3   0.084614 0.115365 0.740085 -0.604814
O4    O     O_3   0.129410 0.451380 0.388510 -0.488245
O5    O     O_3   0.575400 0.626570 0.547370 -0.490028
O6    O     O_2   0.344320 0.238700 0.455090 -0.462670
O7    O     O_3   0.511695 0.219818 0.297894 -0.651532
O8    O     O_2   0.408978 0.415137 0.836522 -0.512345
O9    O     O_3   0.472101 0.219447 0.833228 -0.636092
O10   O     O_3   0.670210 0.653170 0.329170 -0.478892
O11   O     O_2   0.789293 0.591893 0.164509 -0.476296
O12   O     O_3   0.679966 0.765259 0.695810 -0.639695
O13   O     O_3   0.020667 0.289337 0.261182 -0.639323
O14   O     O_3   0.716319 0.785537 0.173160 -0.522405
O15   O     O_2   0.845380 0.761330 0.544970 -0.471478
O16   O     O_3   0.088930 0.704860 0.376040 -0.495489
O17   O     O_2   0.002028 0.889425 0.434350 -0.479628
O18   O     O_3   0.098842 0.881658 0.259496 -0.571098
O19   O     O_2   0.302330 0.539400 0.727760 -0.471486
O20   O     O_3   0.060300 0.548700 0.611500 -0.496401
O21   O     O_3   0.519500 0.346920 0.670840 -0.438613
O22   O     O_3   0.170290 0.711063 0.736948 -0.633301
O23   O     O_3   0.614310 0.373510 0.452640 -0.477232
O24   O     O_3   0.100780 0.295230 0.623970 -0.491422
P1    P     P_3+3 0.054400 0.427280 0.286870 0.950094
P2    P     P_3+3 0.668300 0.742890 0.573060 0.966017
P3    P     P_3+3 0.132875 0.842849 0.374052 0.916017
P4    P     P_3+3 0.135310 0.572810 0.713130 0.964451
P5    P     P_3+3 0.059696 0.155665 0.625014 0.981133
P6    P     P_3+3 0.656797 0.654701 0.206504 1.003069
P7    P     P_3+3 0.525960 0.242038 0.420515 0.940348
P8    P     P_3+3 0.535254 0.347732 0.794061 1.003827

loop_
_geom_bond_atom_site_label_1
_geom_bond_atom_site_label_2
_ccdc_geom_bond_type
C18   H38   S    
C8    C40   A    
C37   H21   S    
C34   H15   S    
C33   H3    S    
Ba1   O16   S    
C26   P7    S    
C5    C6    A    
C37   H20   S    
C9    C17   A    
C24   C25   A    
C39   H25   S    
C33   C35   S    
C31   H44   S    
C22   C24   A    
C34   H14   S    
Ba1   O20   S    
C21   P3    S    
C36   C37   S    
C35   H7    S    
Ba2   O21   S    
C13   C14   A    
C1    H4    S    
Ba1   Ba2   S    
O5    P2    S    
C32   H47   S    
C10   C40   A    
C38   O9    S    
Ba2   O24   S    
C23   O7    S    
C38   F1    S    
C12   H8    S    
Ba2   O5    S    
C14   C15   A    
C27   P5    S    
C36   O3    S    
C3    C5    A    
C28   H42   S    
C7    C8    A    
O15   P2    D    
C1    H16   S    
O3    P5    S    
C13   H32   S    
C24   C29   A    
C1    H9    S    
C4    O18   S    
O16   P3    S    
O13   P1    S    
C4    H27   S    
O1    P1    D    
C7    C17   A    
C12   H1    S    
O12   P2    S    
C18   C27   A    
O6    P7    D    
C4    C16   S    
Ba2   O19   S    
O9    P8    S    
O23   P7    S    
O24   P5    S    
C16   H41   S    
O4    P1    S    
C31   O13   S    
C23   H10   S    
C34   H13   S    
Ba1   O5    S    
O20   P4    S    
Ba2   P4    S    
C6    C7    A    
C18   C26   A    
O19   P4    D    
O8    P8    D    
C10   C15   A    
C32   H46   S    
C31   H45   S    
C35   H5    S    
Ba2   O23   S    
C19   H40   S    
Ba2   O20   S    
O14   P6    S    
C6    H30   S    
C31   C32   S    
Ba1   P1    S    
C17   H35   S    
C1    C12   S    
Ba1   O15   S    
C30   H23   S    
C38   C39   S    
C33   O12   S    
C20   C25   A    
C19   C21   A    
C37   H22   S    
C2    P1    S    
C5    P6    S    
C2    C8    A    
C16   F2    S    
C11   P4    S    
O17   P3    D    
O7    P7    S    
C36   H19   S    
C28   O22   S    
C4    H39   S    
C22   P2    S    
C23   H11   S    
C2    C3    A    
O18   P3    S    
C9    C10   A    
C16   H17   S    
C33   H2    S    
C39   H28   S    
C29   H37   S    
C11   C13   A    
C14   P8    S    
C20   H36   S    
C27   C29   A    
C28   C30   S    
C35   H6    S    
C9    C11   A    
O21   P8    S    
Ba1   O4    S    
Ba2   O4    S    
Ba1   P2    S    
C3    H29   S    
C32   H48   S    
C23   C34   S    
C30   H34   S    
O2    P5    D    
C12   O14   S    
Ba2   O6    S    
C40   H33   S    
Ba1   O1    S    
C38   H24   S    
C19   C22   A    
C25   C26   A    
C15   H31   S    
C20   C21   A    
Ba1   O23   S    
C28   H43   S    
O10   P6    S    
O11   P6    D    
Ba1   O10   S    
C30   H12   S    
O22   P4    S    
C39   H26   S    
C36   H18   S    
