data_mof_unit_23063.cif
_audit_creation_date              2012-12-10T19:46:24-0500
_audit_creation_method            fapswitch 2.2
_symmetry_space_group_name_H-M    P1
_symmetry_Int_Tables_number       1
_space_group_crystal_system       triclinic
_cell_length_a                    10.898833
_cell_length_b                    10.87839
_cell_length_c                    10.406462
_cell_angle_alpha                 91.266237
_cell_angle_beta                  91.141809
_cell_angle_gamma                 88.868261
_cell_volume                      1233.03201477

loop_
_atom_site_label
_atom_site_type_symbol
_atom_type_description
_atom_site_fract_x
_atom_site_fract_y
_atom_site_fract_z
_atom_type_partial_charge
C1    C     C_R   0.502124 0.261330 0.498401 0.765170
C2    C     C_R   0.517461 0.884126 0.842225 -0.182630
C3    C     C_R   0.557760 0.109270 0.258481 0.029126
C4    C     C_R   0.433800 0.890942 0.738219 0.031603
C5    C     C_R   0.681970 0.120760 0.226702 0.521308
C6    C     C_R   0.310227 0.860390 0.755449 0.544036
C7    C     C_R   0.712086 0.162110 0.104560 -0.231457
C8    C     C_R   0.273554 0.817657 0.874774 -0.233833
C9    C     C_R   0.619549 0.192921 0.015427 -0.205644
C10   C     C_R   0.357886 0.809807 0.977405 -0.201123
C11   C     C_R   0.521871 0.930034 0.388490 -0.199517
C12   C     C_R   0.497146 0.738634 0.501454 0.859393
C13   C     C_R   0.477801 0.069764 0.610811 -0.262871
C14   C     C_R   0.496241 0.872121 0.503408 -0.056435
C15   C     C_R   0.502352 0.127769 0.495760 -0.094398
C16   C     C_R   0.261386 0.498910 0.498505 0.805216
C17   C     C_R   0.738606 0.502020 0.501642 0.828411
C18   C     C_R   0.472588 0.942988 0.615812 0.061209
C19   C     C_R   0.524691 0.056884 0.382806 0.044645
C20   C     C_1   0.500000 0.500135 0.071890 0.096544
C21   C     C_1   0.499949 0.500101 0.928113 0.087532
C22   C     C_R   0.182307 0.515204 0.048950 -0.127310
C23   C     C_R   0.872092 0.503625 0.504383 -0.065971
C24   C     C_R   0.867117 0.459874 0.966118 -0.118668
C25   C     C_R   0.140237 0.542588 0.172477 -0.170938
C26   C     C_R   0.908644 0.443277 0.840655 -0.234454
C27   C     C_R   0.112547 0.447518 0.255667 0.027716
C28   C     C_R   0.888339 0.535261 0.749390 0.028069
C29   C     C_R   0.127404 0.323637 0.213124 0.516350
C30   C     C_R   0.826939 0.645568 0.786048 0.567441
C31   C     C_R   0.168004 0.297897 0.088265 -0.222545
C32   C     C_R   0.784700 0.660644 0.912257 -0.212623
C33   C     C_R   0.196346 0.393171 0.006970 -0.210275
C34   C     C_R   0.127896 0.498789 0.496286 -0.085403
C35   C     C_R   0.805676 0.568604 0.001990 -0.199198
C36   C     C_R   0.931526 0.485278 0.387166 -0.246110
C37   C     C_R   0.068699 0.517950 0.613421 -0.242974
C38   C     C_3   0.821095 0.182337 0.377829 -0.238264
C39   C     C_3   0.161354 0.982153 0.667677 -0.412839
C40   C     C_3   0.181002 0.203185 0.384060 -0.366080
C41   C     C_3   0.885367 0.830547 0.715672 -0.375074
C42   C     C_R   0.941714 0.518885 0.619773 0.043971
C43   C     C_R   0.058311 0.478794 0.381950 0.047824
C44   C     C_R   0.496427 0.180410 0.046606 -0.117803
C45   C     C_R   0.479511 0.843462 0.961288 -0.135186
C46   C     C_R   0.465512 0.137997 0.167334 -0.188433
Cu1   Cu    Cu3+1 0.500000 0.500000 0.625300 0.989562
Cu2   Cu    Cu3+1 0.500000 0.500000 0.374700 0.971961
H1    H     H_    0.227806 0.372438 0.910735 0.146638
H2    H     H_    0.957598 0.358999 0.814688 0.142428
H3    H     H_    0.176815 0.203503 0.053973 0.144215
H4    H     H_    0.736198 0.744075 0.940935 0.137039
H5    H     H_    0.879062 0.472145 0.298445 0.147297
H6    H     H_    0.121539 0.532483 0.701751 0.163678
H7    H     H_    0.643300 0.224811 0.921467 0.158814
H8    H     H_    0.328846 0.778256 0.069718 0.154082
H9    H     H_    0.424978 0.202333 0.976614 0.134390
H10   H     H_    0.544194 0.838735 0.041388 0.138857
H11   H     H_    0.369986 0.125534 0.189072 0.148285
H12   H     H_    0.773730 0.581398 0.099277 0.159942
H13   H     H_    0.611586 0.911590 0.831202 0.160553
H14   H     H_    0.750967 0.226060 0.440899 0.125338
H15   H     H_    0.856944 0.250876 0.311303 0.183212
H16   H     H_    0.898395 0.150716 0.440528 0.202235
H17   H     H_    0.223614 0.061492 0.661574 0.166454
H18   H     H_    0.110071 0.988210 0.759109 0.157289
H19   H     H_    0.093287 0.989128 0.587373 0.203732
H20   H     H_    0.148367 0.241215 0.477336 0.163239
H21   H     H_    0.273347 0.239566 0.364674 0.164902
H22   H     H_    0.191982 0.102198 0.393614 0.204173
H23   H     H_    0.807335 0.168644 0.078357 0.149414
H24   H     H_    0.981694 0.795644 0.707850 0.202816
H25   H     H_    0.871819 0.878601 0.809970 0.149606
H26   H     H_    0.869239 0.899064 0.639465 0.211945
H27   H     H_    0.179141 0.792396 0.888109 0.132803
H28   H     H_    0.541418 0.876355 0.301930 0.153540
H29   H     H_    0.458556 0.123423 0.697489 0.154129
H30   H     H_    0.202718 0.588456 0.984893 0.139741
H31   H     H_    0.883540 0.388832 0.035927 0.142049
H32   H     H_    0.127719 0.637813 0.202859 0.146952
N1    N     N_1   0.500010 0.499990 0.186410 -0.147399
N2    N     N_1   0.499990 0.500010 0.813590 -0.150139
O1    O     O_R   0.499990 0.319650 0.605810 -0.589908
O2    O     O_3   0.226156 0.869135 0.654744 -0.592629
O3    O     O_3   0.092018 0.226714 0.286789 -0.605136
O4    O     O_3   0.801504 0.734814 0.696367 -0.585397
O5    O     O_R   0.500010 0.680350 0.394190 -0.595032
O6    O     O_R   0.499990 0.319640 0.394190 -0.583148
O7    O     O_R   0.500010 0.680360 0.605810 -0.554164
O8    O     O_R   0.319640 0.500010 0.605810 -0.588145
O9    O     O_R   0.680360 0.499990 0.394190 -0.596964
O10   O     O_R   0.319650 0.500010 0.394190 -0.577622
O11   O     O_R   0.680350 0.499990 0.605810 -0.564338
O12   O     O_3   0.773548 0.079962 0.309978 -0.588797

loop_
_geom_bond_atom_site_label_1
_geom_bond_atom_site_label_2
_ccdc_geom_bond_type
C16   O8    A    
C46   H11   S    
C27   C29   A    
C34   C37   A    
C39   H17   S    
C14   C18   A    
C17   O9    A    
C5    O12   S    
C15   C19   A    
C41   O4    S    
C11   C19   A    
C17   C23   S    
C23   C42   A    
C40   H22   S    
C13   C18   A    
C1    O1    A    
C24   C26   A    
C39   O2    S    
C11   H28   S    
C26   H2    S    
C7    H23   S    
C11   C14   A    
C33   H1    S    
C25   H32   S    
Cu2   N1    S    
Cu1   N2    S    
C37   C42   A    
C32   H4    S    
C36   H5    S    
C16   C34   S    
C41   H26   S    
C22   C25   A    
Cu2   O6    S    
C3    C19   S    
C9    H7    S    
Cu1   O1    S    
C30   O4    S    
C10   H8    S    
C29   O3    S    
C2    H13   S    
C4    C18   S    
C1    O6    A    
C20   N1    T    
Cu1   O7    S    
C44   C46   A    
C38   H16   S    
C2    C45   A    
C13   H29   S    
C45   H10   S    
C24   C35   A    
C6    O2    S    
C40   H21   S    
C32   C35   A    
C12   O7    A    
C22   H30   S    
C4    C6    A    
C5    C7    A    
C6    C8    A    
Cu2   O9    S    
C8    H27   S    
C35   H12   S    
C40   O3    S    
C2    C4    A    
C24   H31   S    
Cu1   Cu2   S    
C44   H9    S    
C38   O12   S    
C10   C45   A    
C31   C33   A    
Cu1   O11   S    
Cu2   O5    S    
C21   N2    T    
C41   H24   S    
C1    C15   S    
C37   H6    S    
C12   C14   S    
C16   O10   A    
C13   C15   A    
Cu2   O10   S    
Cu1   O8    S    
C17   O11   A    
C38   H15   S    
C7    C9    A    
C22   C33   A    
C9    C44   A    
C12   O5    A    
C39   H19   S    
C34   C43   A    
C31   H3    S    
C3    C5    A    
C25   C27   A    
C3    C46   A    
C26   C28   A    
C28   C30   A    
C29   C31   A    
C30   C32   A    
C28   C42   S    
C39   H18   S    
C41   H25   S    
C27   C43   S    
C20   C21   S    
C8    C10   A    
C23   C36   A    
C40   H20   S    
C36   C43   A    
C38   H14   S    
