data_mof_unit_27765.cif
_audit_creation_date              2013-03-05T16:24:47-0500
_audit_creation_method            fapswitch 2.2
_symmetry_space_group_name_H-M    P1
_symmetry_Int_Tables_number       1
_space_group_crystal_system       triclinic
_cell_length_a                    28.412644
_cell_length_b                    18.246143
_cell_length_c                    22.084144
_cell_angle_alpha                 89.83857
_cell_angle_beta                  139.933875
_cell_angle_gamma                 89.950717
_cell_volume                      7369.20992804

loop_
_atom_site_label
_atom_site_type_symbol
_atom_site_description
_atom_site_fract_x
_atom_site_fract_y
_atom_site_fract_z
_atom_type_partial_charge
O1    O     O_R   0.894190 0.938730 0.894180 -0.549322
O2    O     O_R   0.105810 0.061270 0.105820 -0.552128
O3    O     O_R   0.105810 0.938730 0.105820 -0.568338
O4    O     O_R   0.894190 0.061270 0.894180 -0.542509
O5    O     O_R   0.394190 0.438730 0.894180 -0.541775
O6    O     O_R   0.605810 0.561270 0.105820 -0.548866
O7    O     O_R   0.605810 0.438730 0.105820 -0.565053
O8    O     O_R   0.394190 0.561270 0.894180 -0.553862
C1    C     C_R   0.859948 0.000132 0.862918 0.915551
C2    C     C_R   0.140082 0.999922 0.138633 0.868341
C3    C     C_R   0.359919 0.500206 0.861109 0.901164
C4    C     C_R   0.640082 0.499927 0.138649 0.894910
O9    O     O_R   0.999980 0.938730 0.908830 -0.505444
O10   O     O_R   0.000020 0.061270 0.091170 -0.518587
O11   O     O_R   0.000020 0.938730 0.091170 -0.515470
O12   O     O_R   0.999980 0.061270 0.908830 -0.520071
O13   O     O_R   0.499980 0.438730 0.908830 -0.525130
O14   O     O_R   0.500020 0.561270 0.091170 -0.519184
O15   O     O_R   0.500020 0.438730 0.091170 -0.516683
O16   O     O_R   0.499980 0.561270 0.908830 -0.517316
C5    C     C_R   0.000852 0.999440 0.880659 0.931793
C6    C     C_R   0.009449 0.999397 0.128783 0.954968
C7    C     C_R   0.496096 0.500250 0.876268 0.938818
C8    C     C_R   0.509563 0.499390 0.128868 0.958115
Cu1   Cu    Cu3+1 0.000000 0.927450 0.000000 1.242268
Cu2   Cu    Cu3+1 0.000000 0.072550 0.000000 1.221977
Cu3   Cu    Cu3+1 0.500000 0.427450 0.000000 1.206445
Cu4   Cu    Cu3+1 0.500000 0.572550 0.000000 1.227839
C9    C     C_3   0.994534 0.905112 0.782569 0.367099
C10   C     C_3   0.062308 0.071714 0.275658 0.385850
C11   C     C_3   0.046496 0.912622 0.257836 0.399133
C12   C     C_3   0.925231 0.052720 0.714321 0.331060
C13   C     C_3   0.450571 0.420479 0.739364 0.382739
C14   C     C_3   0.562210 0.571922 0.275414 0.384196
C15   C     C_3   0.546959 0.412798 0.258328 0.399381
C16   C     C_3   0.454520 0.583365 0.742507 0.338657
C17   C     C_3   0.995928 0.906905 0.708482 0.406294
C18   C     C_3   0.047478 0.076663 0.334999 0.409447
C19   C     C_3   0.039132 0.915103 0.325826 0.403050
C20   C     C_3   0.915103 0.040795 0.629046 0.390890
C21   C     C_3   0.458042 0.418955 0.671891 0.405725
C22   C     C_3   0.547295 0.576949 0.334670 0.414595
C23   C     C_3   0.539554 0.415364 0.326283 0.396412
C24   C     C_3   0.443720 0.575924 0.656741 0.398769
H1    H     H_    0.109816 0.023587 0.801141 0.277062
H2    H     H_    0.896747 0.049515 0.197423 0.265073
H3    H     H_    0.893685 0.959525 0.193867 0.265228
H4    H     H_    0.053573 0.094415 0.757790 0.269883
H5    H     H_    0.606652 0.464543 0.802293 0.264648
H6    H     H_    0.396718 0.549404 0.197148 0.265624
H7    H     H_    0.393866 0.459389 0.194055 0.263272
H8    H     H_    0.595828 0.556620 0.799124 0.283448
C25   C     C_3   0.067692 0.032275 0.851575 0.376991
C26   C     C_3   0.931435 0.004410 0.144309 0.398547
C27   C     C_3   0.573071 0.500834 0.858982 0.381327
C28   C     C_3   0.431540 0.504099 0.144328 0.398604
C29   C     C_3   0.995316 0.996509 0.806925 -0.423389
C30   C     C_3   0.014869 0.996868 0.202421 -0.475989
C31   C     C_3   0.491136 0.501012 0.803448 -0.439825
C32   C     C_3   0.515015 0.496884 0.202524 -0.476737
C33   C     C_3   0.989148 0.993218 0.679060 -0.396362
C34   C     C_3   0.008400 0.998275 0.318345 -0.429133
C35   C     C_3   0.488715 0.499932 0.679044 -0.407444
C36   C     C_3   0.508471 0.498458 0.318373 -0.426507
C37   C     C_3   0.058057 0.036354 0.773044 -0.453266
C38   C     C_3   0.929345 0.003308 0.212301 -0.425326
C39   C     C_3   0.569301 0.505508 0.785702 -0.455307
C40   C     C_3   0.429423 0.503185 0.212295 -0.427018
C41   C     C_1   0.782265 0.000363 0.783633 -0.021628
C42   C     C_1   0.217746 0.999749 0.217336 -0.062435
C43   C     C_1   0.282271 0.500534 0.782308 -0.019809
C44   C     C_1   0.717748 0.499765 0.217362 -0.042781
C45   C     C_1   0.716864 0.000307 0.716524 -0.110588
C46   C     C_1   0.283164 0.999778 0.283830 -0.093461
C47   C     C_1   0.216845 0.500439 0.715991 -0.091064
C48   C     C_1   0.783166 0.499799 0.283847 -0.090720
O17   O     O_R   0.938700 0.894210 0.438700 -0.543688
O18   O     O_R   0.061300 0.105790 0.561300 -0.575442
O19   O     O_R   0.061300 0.894210 0.561300 -0.558113
O20   O     O_R   0.938700 0.105790 0.438700 -0.541744
O21   O     O_R   0.438700 0.394210 0.438700 -0.559332
O22   O     O_R   0.561300 0.605790 0.561300 -0.583435
O23   O     O_R   0.561300 0.394210 0.561300 -0.565728
O24   O     O_R   0.438700 0.605790 0.438700 -0.538335
C49   C     C_R   0.000181 0.859981 0.499630 1.010650
C50   C     C_R   0.999822 0.139966 0.500909 0.961235
C51   C     C_R   0.500148 0.359983 0.500336 1.016110
C52   C     C_R   0.500088 0.639929 0.497632 0.984285
O25   O     O_R   0.938740 0.000000 0.529880 -0.495145
O26   O     O_R   0.061260 0.000000 0.470120 -0.515875
O27   O     O_R   0.438740 0.500000 0.529880 -0.494903
O28   O     O_R   0.561260 0.500000 0.470120 -0.519228
O29   O     O_R   0.061220 0.000000 0.652370 -0.570817
O30   O     O_R   0.938780 0.000000 0.347630 -0.559982
O31   O     O_R   0.561220 0.500000 0.652370 -0.561547
O32   O     O_R   0.438780 0.500000 0.347630 -0.561128
C53   C     C_R   0.997880 0.997559 0.618376 1.006829
C54   C     C_R   0.001681 0.999508 0.381062 1.037842
C55   C     C_R   0.497737 0.500233 0.618400 1.042222
C56   C     C_R   0.501691 0.499707 0.381057 1.036602
Cu5   Cu    Cu3+1 0.927450 0.000000 0.427440 1.197664
Cu6   Cu    Cu3+1 0.072550 0.000000 0.572560 1.157040
Cu7   Cu    Cu3+1 0.427450 0.500000 0.427440 1.181836
Cu8   Cu    Cu3+1 0.572550 0.500000 0.572560 1.155821
O33   O     O_R   0.499910 0.105770 0.447130 -0.551433
O34   O     O_R   0.500090 0.894230 0.552870 -0.554208
O35   O     O_R   0.500090 0.105770 0.552870 -0.552971
O36   O     O_R   0.499910 0.894230 0.447130 -0.555358
O37   O     O_R   0.999910 0.605770 0.447130 -0.548217
O38   O     O_R   0.000090 0.394230 0.552870 -0.569030
O39   O     O_R   0.000090 0.605770 0.552870 -0.568527
O40   O     O_R   0.999910 0.394230 0.447130 -0.551305
C57   C     C_R   0.500100 0.139119 0.500038 0.799905
C58   C     C_R   0.500049 0.860878 0.500021 0.795525
C59   C     C_R   0.000116 0.639115 0.500035 0.800305
C60   C     C_R   0.999890 0.360872 0.499960 0.802301
O41   O     O_R   0.605760 0.000000 0.553010 -0.574685
O42   O     O_R   0.394240 0.000000 0.446990 -0.555215
O43   O     O_R   0.105760 0.500000 0.553010 -0.564718
O44   O     O_R   0.894240 0.500000 0.446990 -0.559460
O45   O     O_R   0.605780 0.000000 0.658540 -0.555827
O46   O     O_R   0.394220 0.000000 0.341460 -0.562743
O47   O     O_R   0.105780 0.500000 0.658540 -0.554750
O48   O     O_R   0.894220 0.500000 0.341460 -0.560724
C61   C     C_R   0.639167 0.000100 0.638826 0.792528
C62   C     C_R   0.360841 0.999926 0.361217 0.797335
C63   C     C_R   0.139159 0.500140 0.638757 0.798024
C64   C     C_R   0.860844 0.499937 0.361222 0.797981
Cu9   Cu    Cu3+1 0.499960 1.000000 0.437480 1.111271
Cu10  Cu    Cu3+1 0.500040 0.000000 0.562520 1.126819
Cu11  Cu    Cu3+1 0.999960 0.500000 0.437480 1.112998
Cu12  Cu    Cu3+1 0.000040 0.500000 0.562520 1.109243
C65   C     C_1   0.000447 0.782256 0.499962 -0.005809
C66   C     C_1   0.999563 0.217681 0.500126 -0.061597
C67   C     C_1   0.500405 0.282271 0.500410 -0.009972
C68   C     C_1   0.500086 0.717739 0.498299 -0.030374
C69   C     C_1   0.500329 0.216784 0.500199 -0.082682
C70   C     C_1   0.500086 0.783216 0.499505 -0.097546
C71   C     C_1   0.000370 0.716773 0.500070 -0.106247
C72   C     C_1   0.999644 0.283187 0.499892 -0.113952
S1    S     S_3+6 0.072559 0.842337 0.890933 0.159791
O49   O     O_2   0.053395 0.763460 0.860612 -0.117211
O50   O     O_2   0.147213 0.849128 0.937010 -0.188155
O51   O     O_3   0.087238 0.843565 0.980807 -0.460339
H9    H     H_    0.139224 0.857859 0.037883 0.360050
S2    S     S_3+6 0.043704 0.163673 0.219001 0.161890
O52   O     O_2   0.967103 0.188942 0.133131 -0.177350
O53   O     O_2   0.080287 0.223425 0.290332 -0.164808
O54   O     O_3   0.083904 0.166262 0.189692 -0.458182
H10   H     H_    0.090434 0.218926 0.186606 0.374515
S3    S     S_3+6 0.003822 0.824583 0.181923 0.166771
O55   O     O_2   0.923408 0.812841 0.099224 -0.177207
O56   O     O_2   0.030522 0.811322 0.144624 -0.212621
O57   O     O_3   0.034733 0.750745 0.250433 -0.397245
H11   H     H_    0.020059 0.707783 0.211550 0.385022
S4    S     S_3+6 0.935980 0.155558 0.739034 0.168284
O58   O     O_2   0.964196 0.174875 0.828421 -0.157996
O59   O     O_2   0.984806 0.193976 0.742669 -0.190957
O60   O     O_3   0.854355 0.199982 0.657292 -0.366331
H12   H     H_    0.817072 0.165499 0.605608 0.407932
S5    S     S_3+6 0.483293 0.328623 0.806209 0.176232
O61   O     O_2   0.451271 0.266429 0.739406 -0.140468
O62   O     O_2   0.562551 0.310691 0.890051 -0.192625
O63   O     O_3   0.449114 0.315371 0.842889 -0.431848
H13   H     H_    0.477568 0.273679 0.888502 0.363494
S6    S     S_3+6 0.543289 0.663731 0.218235 0.163262
O64   O     O_2   0.466578 0.688308 0.131727 -0.181921
O65   O     O_2   0.579221 0.723889 0.288869 -0.158471
O66   O     O_3   0.583976 0.666487 0.189612 -0.454043
H14   H     H_    0.582956 0.718716 0.176243 0.374877
S7    S     S_3+6 0.504656 0.324506 0.182905 0.166401
O67   O     O_2   0.424343 0.312148 0.100606 -0.173006
O68   O     O_2   0.531139 0.311481 0.145293 -0.225467
O69   O     O_3   0.536172 0.250811 0.251897 -0.393280
H15   H     H_    0.525766 0.207994 0.215498 0.386448
S8    S     S_3+6 0.510714 0.669846 0.814481 0.167927
O70   O     O_2   0.544024 0.671829 0.909281 -0.169836
O71   O     O_2   0.572553 0.682183 0.831904 -0.173957
O72   O     O_3   0.460917 0.748269 0.765794 -0.387853
H16   H     H_    0.416859 0.741192 0.697876 0.415312
S9    S     S_3+6 0.917437 0.845167 0.738220 0.169366
O73   O     O_2   0.920599 0.770212 0.713318 -0.152252
O74   O     O_2   0.927295 0.831198 0.814529 -0.203552
O75   O     O_3   0.829630 0.868519 0.643599 -0.396950
H17   H     H_    0.801465 0.830671 0.638130 0.389057
S10   S     S_3+6 0.162380 0.070393 0.353612 0.132177
O76   O     O_2   0.172878 0.031933 0.304957 -0.282626
O77   O     O_2   0.192722 0.145946 0.372567 -0.165298
O78   O     O_3   0.220412 0.037522 0.462895 -0.393262
H18   H     H_    0.270043 0.047496 0.495800 0.399923
S11   S     S_3+6 0.140554 0.886101 0.319838 0.157442
O79   O     O_2   0.207790 0.918640 0.411670 -0.168663
O80   O     O_2   0.155063 0.805113 0.339431 -0.150655
O81   O     O_3   0.143358 0.901530 0.248186 -0.495699
H19   H     H_    0.189815 0.879090 0.279983 0.372719
S12   S     S_3+6 0.845028 0.038745 0.688335 0.052119
O82   O     O_2   0.851727 0.969630 0.730505 -0.306366
O83   O     O_2   0.844172 0.097614 0.734986 -0.250366
O84   O     O_3   0.760258 0.043920 0.575490 -0.440679
H20   H     H_    0.727405 0.026829 0.575928 0.385820
S13   S     S_3+6 0.354584 0.407210 0.675045 0.145941
O85   O     O_2   0.331337 0.328215 0.650082 -0.142078
O86   O     O_2   0.354675 0.425501 0.741048 -0.277375
O87   O     O_3   0.283132 0.449463 0.573554 -0.393323
H21   H     H_    0.240396 0.435184 0.556450 0.389097
S14   S     S_3+6 0.662312 0.570964 0.353500 0.132503
O88   O     O_2   0.673034 0.532534 0.305076 -0.283922
O89   O     O_2   0.692313 0.646668 0.372155 -0.161975
O90   O     O_3   0.720450 0.538361 0.462918 -0.393414
H22   H     H_    0.770050 0.548722 0.495900 0.398097
S15   S     S_3+6 0.641123 0.386620 0.320440 0.157238
O91   O     O_2   0.708290 0.419506 0.412026 -0.164922
O92   O     O_2   0.656034 0.305712 0.340580 -0.150597
O93   O     O_3   0.643675 0.401948 0.248529 -0.499404
H23   H     H_    0.688941 0.377518 0.278716 0.373880
S16   S     S_3+6 0.371632 0.612181 0.707195 0.087949
O94   O     O_2   0.323823 0.551839 0.681019 -0.261400
O95   O     O_2   0.395642 0.650577 0.787583 -0.215119
O96   O     O_3   0.315595 0.673156 0.618295 -0.451794
H24   H     H_    0.269933 0.673117 0.597493 0.405632
S17   S     S_3+6 0.928483 0.844263 0.605007 0.133476
O97   O     O_2   0.852690 0.841470 0.555132 -0.128432
O98   O     O_2   0.920470 0.862830 0.531780 -0.305343
O99   O     O_3   0.959438 0.756932 0.637947 -0.412462
H25   H     H_    0.940444 0.732902 0.582142 0.369919
S18   S     S_3+6 0.128834 0.107254 0.460490 0.148679
O100  O     O_2   0.179693 0.048814 0.532358 -0.189382
O101  O     O_2   0.172320 0.163412 0.469145 -0.158301
O102  O     O_3   0.102452 0.150572 0.497782 -0.490188
H26   H     H_    0.145501 0.179088 0.553597 0.376731
S19   S     S_3+6 0.123806 0.880837 0.446351 0.137450
O103  O     O_2   0.142896 0.805976 0.441848 -0.153180
O104  O     O_2   0.190004 0.927012 0.503788 -0.175836
O105  O     O_3   0.111764 0.868248 0.508536 -0.508154
H27   H     H_    0.161723 0.864845 0.574900 0.377355
S20   S     S_3+6 0.822028 0.005444 0.517911 0.160291
O106  O     O_2   0.789839 0.950736 0.528105 -0.128002
O107  O     O_2   0.769921 0.069732 0.467920 -0.201490
O108  O     O_3   0.814191 0.969000 0.440612 -0.428817
H28   H     H_    0.767242 0.987650 0.377835 0.374790
S21   S     S_3+6 0.373311 0.386076 0.550763 0.141627
O109  O     O_2   0.349241 0.315006 0.554812 -0.156784
O110  O     O_2   0.309263 0.436678 0.488303 -0.175904
O111  O     O_3   0.389509 0.365789 0.494231 -0.504096
H29   H     H_    0.345413 0.339457 0.436775 0.374857
S22   S     S_3+6 0.628565 0.607831 0.460072 0.140669
O112  O     O_2   0.679491 0.549497 0.532131 -0.191426
O113  O     O_2   0.671945 0.664034 0.468608 -0.172488
O114  O     O_3   0.602185 0.651294 0.497247 -0.501205
H30   H     H_    0.646076 0.677524 0.555065 0.370305
S23   S     S_3+6 0.624364 0.381425 0.446967 0.147235
O115  O     O_2   0.643704 0.306583 0.442815 -0.134254
O116  O     O_2   0.690404 0.427785 0.504102 -0.173092
O117  O     O_3   0.612393 0.368845 0.509251 -0.503583
H31   H     H_    0.662324 0.369142 0.576063 0.379715
S24   S     S_3+6 0.345126 0.588999 0.536595 0.162346
O118  O     O_2   0.289281 0.559330 0.523720 -0.156318
O119  O     O_2   0.329220 0.670025 0.517711 -0.167128
O120  O     O_3   0.324111 0.558343 0.446359 -0.442539
H32   H     H_    0.274658 0.578099 0.388868 0.378268
S25   S     S_3+6 0.081312 0.865919 0.758191 0.096487
O121  O     O_2   0.093889 0.787945 0.790212 -0.132665
O122  O     O_2   0.072046 0.860623 0.682243 -0.321924
O123  O     O_3   0.159897 0.911455 0.846742 -0.482051
H33   H     H_    0.195898 0.888175 0.854719 0.394367
S26   S     S_3+6 0.985318 0.156016 0.297025 0.077117
O124  O     O_2   0.955842 0.141943 0.330232 -0.335404
O125  O     O_2   0.026703 0.226921 0.341881 -0.161659
O126  O     O_3   0.911542 0.174593 0.182414 -0.456818
H34   H     H_    0.886672 0.215923 0.178548 0.398311
S27   S     S_3+6 0.973201 0.844152 0.292244 0.072858
O127  O     O_2   0.007470 0.769474 0.331923 -0.159913
O128  O     O_2   0.950356 0.863475 0.332427 -0.355268
O129  O     O_3   0.894086 0.834124 0.177052 -0.459833
H35   H     H_    0.863968 0.801552 0.173141 0.397712
S28   S     S_3+6 0.909006 0.127545 0.572854 0.076181
O130  O     O_2   0.867330 0.112111 0.474600 -0.225817
O131  O     O_2   0.866372 0.189610 0.557802 -0.182994
O132  O     O_3   0.989896 0.161231 0.629397 -0.594788
H36   H     H_    0.980161 0.213176 0.609053 0.383933
S29   S     S_3+6 0.523230 0.345942 0.706373 0.075287
O133  O     O_2   0.487271 0.272207 0.666585 -0.155051
O134  O     O_2   0.546487 0.363160 0.666113 -0.363610
O135  O     O_3   0.601543 0.333638 0.821285 -0.449870
H37   H     H_    0.635846 0.310385 0.826128 0.392491
S30   S     S_3+6 0.484866 0.656178 0.296149 0.074978
O136  O     O_2   0.454762 0.641896 0.328475 -0.346942
O137  O     O_2   0.526105 0.727133 0.341237 -0.161256
O138  O     O_3   0.411451 0.674757 0.181470 -0.452330
H38   H     H_    0.386095 0.715763 0.177168 0.400198
S31   S     S_3+6 0.473907 0.344219 0.293073 0.073722
O139  O     O_2   0.508271 0.269580 0.332566 -0.153389
O140  O     O_2   0.451514 0.363354 0.333852 -0.359012
O141  O     O_3   0.394655 0.334099 0.177874 -0.460922
H39   H     H_    0.363001 0.305088 0.174021 0.393812
S32   S     S_3+6 0.480859 0.653347 0.644368 0.054576
O142  O     O_2   0.437789 0.653645 0.544691 -0.286858
O143  O     O_2   0.469063 0.728901 0.657184 -0.208639
O144  O     O_3   0.569022 0.647365 0.709876 -0.550539
H40   H     H_    0.579377 0.693783 0.698395 0.379818
Br1   Br    Br    0.162040 0.993646 0.968718 -0.350469
Br2   Br    Br    0.869242 0.080410 0.048856 -0.295610
Br3   Br    Br    0.856276 0.940622 0.039353 -0.307972
Br4   Br    Br    0.104062 0.125897 0.919023 -0.279136
Br5   Br    Br    0.643406 0.429282 0.956326 -0.307595
Br6   Br    Br    0.368895 0.579712 0.048373 -0.282662
Br7   Br    Br    0.356779 0.439829 0.039768 -0.305815
Br8   Br    Br    0.646092 0.568270 0.963736 -0.301891

loop_
_geom_bond_atom_site_label_1
_geom_bond_atom_site_label_2
_geom_bond_distance
_ccdc_geom_bond_type
O1    Cu1   1.945377 S    
C27   C31   1.597988 S    
O17   Cu5   1.940227 S    
S31   O139  1.502098 D    
C14   C22   1.658265 S    
S16   O96   1.681488 S    
C12   S12   1.894030 S    
C26   Br2   1.940875 S    
S29   O135  1.671705 S    
S7    O68   1.506699 D    
O135  H37   0.990376 S    
O31   C55   1.321008 A    
C20   S28   1.932558 S    
S27   O127  1.502537 D    
S24   O120  1.681117 S    
O111  H29   0.990861 S    
C10   C18   1.657983 S    
O34   Cu10  1.942341 S    
O129  H35   0.990439 S    
O35   C57   1.314574 A    
O20   C50   1.283392 A    
C50   C66   1.417989 S    
S8    O72   1.692584 S    
C42   C46   1.197276 T    
O19   Cu6   1.942168 S    
H4    C37   1.088150 S    
C18   S18   1.881737 S    
O84   H20   0.991438 S    
C13   C31   1.734509 S    
C14   C32   1.725005 S    
C12   C29   1.717868 S    
S5    O62   1.489932 D    
C35   C39   1.596246 S    
S9    O74   1.502779 D    
S11   O79   1.481102 D    
S1    O51   1.687321 S    
S14   O88   1.493534 D    
C24   S24   1.887599 S    
O16   Cu4   2.024048 S    
C15   C32   1.723766 S    
C13   S5    1.932695 S    
O102  H26   0.991566 S    
O9    C5    1.278466 A    
O2    Cu2   1.945377 S    
O10   Cu2   2.022894 S    
O57   H11   0.991005 S    
C22   S30   1.907569 S    
S32   O142  1.489970 D    
C59   C71   1.416987 S    
C65   C71   1.194806 T    
O8    Cu4   1.947316 S    
C57   C69   1.417109 S    
C16   C24   1.676907 S    
C21   C35   1.661432 S    
C22   C36   1.671944 S    
O19   C49   1.283439 A    
S2    O52   1.490540 D    
C67   C69   1.194912 T    
S30   O138  1.669751 S    
O25   Cu5   2.027349 S    
O24   C52   1.286858 A    
C25   Br4   1.966237 S    
O27   Cu7   2.027349 S    
S12   O82   1.488455 D    
C6    C30   1.512182 S    
H2    C38   1.099059 S    
O51   H9    0.995677 S    
S4    O59   1.501267 D    
S11   O81   1.667312 S    
C17   S17   1.875214 S    
S30   O137  1.504854 D    
S19   O105  1.665347 S    
S14   O89   1.507337 D    
S3    O56   1.506615 D    
O40   Cu11  1.941150 S    
O28   Cu8   2.027349 S    
C23   S23   1.857822 S    
C24   S32   1.904082 S    
O22   Cu8   1.940226 S    
S10   O76   1.493471 D    
C18   C34   1.671654 S    
O12   C5    1.299194 A    
O47   Cu12  1.942056 S    
O45   Cu10  1.942056 S    
C7    C31   1.503089 S    
O114  H30   0.990893 S    
O13   C7    1.289601 A    
O14   C8    1.300035 A    
C36   C40   1.576400 S    
O33   C57   1.315232 A    
S31   O140  1.488691 D    
S16   O95   1.504000 D    
S25   O121  1.502847 D    
O11   Cu1   2.024048 S    
O75   H17   0.992629 S    
S21   O109  1.500583 D    
S24   O119  1.506913 D    
O69   H15   0.992006 S    
O26   Cu6   2.027349 S    
C35   C55   1.544291 S    
C12   S4    1.914068 S    
S32   O144  1.682714 S    
O6    Cu4   1.945377 S    
O123  H33   0.990352 S    
C23   S31   1.902032 S    
O43   Cu11  1.951105 S    
C15   C23   1.668023 S    
S8    O71   1.500743 D    
O17   C49   1.283653 A    
S6    O65   1.501463 D    
S13   O86   1.494337 D    
S12   O84   1.682744 S    
C19   S27   1.902171 S    
O90   H22   0.991168 S    
O7    C4    1.283159 A    
C34   C38   1.576435 S    
O13   Cu3   2.022894 S    
O14   Cu4   2.022894 S    
S23   O117  1.665768 S    
Cu1   Cu2   2.647514 S    
C28   C40   1.547570 S    
C20   C33   1.683564 S    
C21   S21   1.861680 S    
O45   C61   1.312073 A    
S17   O97   1.491065 D    
C33   C37   1.597700 S    
C11   S3    1.941229 S    
O47   C63   1.313222 A    
O16   C7    1.285348 A    
O132  H36   0.991781 S    
C9    S1    1.952817 S    
O138  H38   0.990843 S    
O38   Cu12  1.942341 S    
C27   Br5   1.929669 S    
H8    C39   1.089269 S    
S26   O125  1.504883 D    
H1    C37   1.097210 S    
O29   C53   1.317846 A    
O40   C60   1.314783 A    
Cu9   Cu10  2.759664 S    
O21   Cu7   1.940227 S    
S22   O112  1.490752 D    
C22   S22   1.882045 S    
H3    C38   1.096538 S    
C28   Br7   1.931663 S    
C26   Br3   1.931517 S    
S25   O123  1.681998 S    
C26   C38   1.547552 S    
S29   O134  1.491268 D    
C5    C29   1.512471 S    
S20   O108  1.682483 S    
S21   O111  1.670089 S    
O10   C6    1.299940 A    
C25   Br1   1.935786 S    
C16   S16   1.901439 S    
C45   C61   1.421234 S    
O32   C56   1.311611 A    
C47   C63   1.420877 S    
C58   C70   1.417125 S    
S15   O93   1.667096 S    
O87   H21   0.991965 S    
S18   O100  1.490494 D    
O27   C55   1.271166 A    
O4    C1    1.282855 A    
O41   C61   1.318827 A    
S22   O114  1.676062 S    
O43   C63   1.317557 A    
S27   O129  1.675897 S    
O23   C51   1.283612 A    
Cu5   Cu6   2.654114 S    
O18   Cu6   1.940226 S    
C15   S7    1.941261 S    
O108  H28   0.991555 S    
C16   C31   1.730420 S    
O99   H25   0.993854 S    
S5    O61   1.499578 D    
S23   O115  1.500573 D    
S9    O73   1.503527 D    
O63   H13   0.997568 S    
C1    C41   1.422033 S    
O5    C3    1.282479 A    
S17   O99   1.689254 S    
S1    O50   1.499169 D    
O6    C4    1.280466 A    
O141  H39   0.990088 S    
C3    C43   1.420981 S    
O30   C54   1.311309 A    
C11   S11   1.908976 S    
O7    Cu3   1.947316 S    
S13   O85   1.505496 D    
O36   C58   1.312867 A    
O11   C6    1.285354 A    
O37   Cu11  1.942339 S    
S3    O55   1.489223 D    
C41   C45   1.197570 T    
O46   Cu9   1.942057 S    
C44   C48   1.197281 T    
O48   C64   1.312717 A    
S32   O143  1.496479 D    
O81   H19   0.990874 S    
C4    C44   1.421237 S    
O126  H34   0.990791 S    
O35   Cu10  1.941148 S    
C23   C36   1.693875 S    
S2    O53   1.502006 D    
C24   C35   1.681895 S    
O12   Cu2   2.024048 S    
S7    O69   1.682109 S    
C51   C67   1.417945 S    
O3    Cu1   1.947316 S    
O1    C1    1.282209 A    
C52   C68   1.419856 S    
S12   O83   1.503422 D    
O96   H24   0.990959 S    
C25   C29   1.590360 S    
S26   O126  1.669852 S    
C14   S14   1.885749 S    
C28   C32   1.620861 S    
O144  H40   0.990739 S    
S11   O80   1.504372 D    
O117  H31   0.992914 S    
O42   Cu10  1.951103 S    
S2    O54   1.690357 S    
C27   C39   1.540010 S    
S15   O91   1.481129 D    
S28   O132  1.683232 S    
C25   C37   1.536492 S    
S19   O104  1.487777 D    
O21   C51   1.283301 A    
C2    C42   1.421199 S    
C9    C29   1.748616 S    
C16   S8    1.923437 S    
C48   C64   1.420745 S    
O105  H27   0.990870 S    
S10   O77   1.507244 D    
Cu11  Cu12  2.759664 S    
S5    O63   1.691481 S    
S9    O75   1.669120 S    
C19   C34   1.693590 S    
C33   C53   1.540191 S    
O29   Cu6   2.019556 S    
O4    Cu2   1.947316 S    
O44   C64   1.317999 A    
C13   C21   1.658463 S    
S10   O78   1.674013 S    
O15   C8    1.285255 A    
C28   Br6   1.941186 S    
O54   H10   0.990817 S    
S20   O107  1.508185 D    
O78   H18   0.991189 S    
C17   S25   1.888311 S    
O72   H16   0.980268 S    
C36   C56   1.536979 S    
O32   Cu7   2.019556 S    
C9    C17   1.666874 S    
Cu7   Cu8   2.654114 S    
C14   S6    1.907131 S    
H6    C40   1.099015 S    
C49   C65   1.418167 S    
S7    O67   1.488770 D    
O66   H14   0.990690 S    
C20   S20   1.873686 S    
S20   O106  1.482888 D    
C9    S9    1.918435 S    
O34   C58   1.316976 A    
C10   S10   1.885776 S    
C11   C30   1.723898 S    
S4    O58   1.498626 D    
C21   S29   1.901678 S    
C66   C72   1.195237 T    
S30   O136  1.497699 D    
O22   C52   1.280639 A    
S23   O116  1.487732 D    
S3    O57   1.681723 S    
C15   S15   1.909109 S    
C34   C54   1.536282 S    
O60   H12   0.987591 S    
O30   Cu5   2.019556 S    
O15   Cu3   2.024048 S    
C27   Br8   1.960701 S    
O18   C50   1.283136 A    
O5    Cu3   1.945377 S    
O38   C60   1.315183 A    
O9    Cu1   2.022894 S    
C10   S2    1.906451 S    
S22   O113  1.501338 D    
O23   Cu8   1.942168 S    
S31   O141  1.676862 S    
S16   O94   1.481829 D    
C68   C70   1.195069 T    
S25   O122  1.488944 D    
O93   H23   0.991094 S    
O33   Cu9   1.942339 S    
S29   O133  1.503636 D    
O48   Cu11  1.942057 S    
O25   C53   1.271985 A    
S21   O110  1.488163 D    
O46   C62   1.312688 A    
C19   S19   1.857468 S    
C8    C32   1.511907 S    
S24   O118  1.484363 D    
S28   O130  1.503682 D    
O36   Cu9   1.941150 S    
S8    O70   1.499267 D    
S15   O92   1.504471 D    
S28   O131  1.496506 D    
S18   O101  1.501608 D    
S6    O64   1.490489 D    
S13   O87   1.662041 S    
O120  H32   0.991060 S    
O2    C2    1.280547 A    
Cu3   Cu4   2.647514 S    
O41   Cu9   1.951105 S    
O31   Cu8   2.019556 S    
O28   C56   1.279838 A    
C26   C30   1.620964 S    
S27   O128  1.488664 D    
H5    C39   1.105020 S    
O44   Cu12  1.951103 S    
S4    O60   1.695555 S    
C17   C33   1.655810 S    
S18   O102  1.677023 S    
O20   Cu5   1.942166 S    
C18   S26   1.908058 S    
S17   O98   1.488284 D    
O3    C2    1.283082 A    
S1    O49   1.504943 D    
C43   C47   1.197286 T    
S14   O90   1.674000 S    
C46   C62   1.420751 S    
O8    C3    1.280984 A    
C10   C30   1.725278 S    
C13   S13   1.894168 S    
C11   C19   1.667783 S    
H7    C40   1.096260 S    
C12   C20   1.688085 S    
S26   O124  1.498137 D    
O37   C59   1.314849 A    
O39   Cu12  1.941148 S    
S6    O66   1.690230 S    
S19   O103  1.500620 D    
O24   Cu7   1.942166 S    
O39   C59   1.314900 A    
O42   C62   1.318074 A    
O26   C54   1.279862 A    
C60   C72   1.417476 S    
