data_mof_unit_56411.cif
_audit_creation_date              2012-12-11T16:51:33-0500
_audit_creation_method            fapswitch 2.2
_symmetry_space_group_name_H-M    P1
_symmetry_Int_Tables_number       1
_space_group_crystal_system       monoclinic
_cell_length_a                    24.372076
_cell_length_b                    17.160869
_cell_length_c                    15.604945
_cell_angle_alpha                 90.0
_cell_angle_beta                  129.357412
_cell_angle_gamma                 90.0
_cell_volume                      5046.48263692

loop_
_atom_site_label
_atom_site_type_symbol
_atom_type_description
_atom_site_fract_x
_atom_site_fract_y
_atom_site_fract_z
_atom_type_partial_charge
C1    C     C_R   0.850760 0.857223 0.243419 -0.109574
C2    C     C_R   0.149240 0.857223 0.756581 -0.109574
C3    C     C_R   0.350760 0.357223 0.243419 -0.109574
C4    C     C_R   0.649240 0.357223 0.756581 -0.109575
C5    C     C_R   0.910594 0.144750 0.590306 -0.108519
C6    C     C_R   0.089406 0.144750 0.409694 -0.108519
C7    C     C_R   0.410594 0.644750 0.590306 -0.108519
C8    C     C_R   0.589406 0.644750 0.409694 -0.108519
C9    C     C_R   0.859386 0.187596 0.495482 0.040307
C10   C     C_R   0.140614 0.187596 0.504517 0.040307
C11   C     C_R   0.359386 0.687596 0.495482 0.040307
C12   C     C_R   0.640614 0.687596 0.504517 0.040307
C13   C     C_R   0.852272 0.124605 0.134690 0.143964
C14   C     C_R   0.147728 0.124605 0.865309 0.143965
C15   C     C_R   0.352272 0.624605 0.134690 0.143965
C16   C     C_R   0.647728 0.624605 0.865309 0.143965
C17   C     C_R   0.783369 0.830686 0.610945 0.078520
C18   C     C_R   0.216631 0.830685 0.389055 0.078521
C19   C     C_R   0.283369 0.330685 0.610945 0.078520
C20   C     C_R   0.716631 0.330685 0.389055 0.078521
C21   C     C_R   0.762115 0.860940 0.510753 0.089402
C22   C     C_R   0.237885 0.860940 0.489247 0.089402
C23   C     C_R   0.262115 0.360940 0.510753 0.089402
C24   C     C_R   0.737885 0.360940 0.489247 0.089402
C25   C     C_R   0.688982 0.860037 0.419273 -0.220800
C26   C     C_R   0.311018 0.860037 0.580727 -0.220800
C27   C     C_R   0.188982 0.360037 0.419273 -0.220800
C28   C     C_R   0.811018 0.360037 0.580727 -0.220800
C29   C     C_R   0.144285 0.308656 0.419481 -0.166080
C30   C     C_R   0.855715 0.308656 0.580519 -0.166079
C31   C     C_R   0.644285 0.808656 0.419481 -0.166080
C32   C     C_R   0.355715 0.808656 0.580519 -0.166080
C33   C     C_R   0.172625 0.261941 0.513149 -0.007063
C34   C     C_R   0.827375 0.261941 0.486851 -0.007063
C35   C     C_R   0.672625 0.761942 0.513149 -0.007063
C36   C     C_R   0.327375 0.761941 0.486851 -0.007063
C37   C     C_R   0.239082 0.282275 0.612606 0.047581
C38   C     C_R   0.760918 0.282275 0.387394 0.047581
C39   C     C_R   0.739081 0.782276 0.612606 0.047581
C40   C     C_R   0.260918 0.782275 0.387394 0.047581
C41   C     C_3   0.800278 0.732768 0.702156 0.631541
C42   C     C_3   0.199721 0.732767 0.297844 0.631541
C43   C     C_3   0.300279 0.232767 0.702156 0.631540
C44   C     C_3   0.699721 0.232767 0.297844 0.631541
C45   C     C_R   0.114154 0.898291 0.407745 -0.225042
C46   C     C_R   0.885845 0.898291 0.592255 -0.225042
C47   C     C_R   0.614154 0.398291 0.407745 -0.225042
C48   C     C_R   0.385845 0.398291 0.592255 -0.225042
C49   C     C_3   0.848474 0.785912 0.699896 -0.640154
C50   C     C_3   0.151526 0.785912 0.300104 -0.640154
C51   C     C_3   0.348474 0.285911 0.699895 -0.640152
C52   C     C_3   0.651526 0.285912 0.300104 -0.640153
C53   C     C_2   0.139961 0.741842 0.848928 -0.177920
C54   C     C_2   0.860039 0.741842 0.151072 -0.177919
C55   C     C_2   0.639961 0.241842 0.848928 -0.177920
C56   C     C_2   0.360038 0.241842 0.151071 -0.177920
C57   C     C_2   0.192218 0.701301 0.863634 -0.127019
C58   C     C_2   0.807781 0.701301 0.136366 -0.127018
C59   C     C_2   0.692218 0.201301 0.863634 -0.127018
C60   C     C_2   0.307781 0.201301 0.136366 -0.127018
C61   C     C_2   0.805473 0.149815 0.018872 -0.210728
C62   C     C_2   0.194527 0.149815 0.981128 -0.210728
C63   C     C_2   0.305473 0.649815 0.018872 -0.210728
C64   C     C_2   0.694527 0.649815 0.981128 -0.210729
C65   C     C_2   0.734952 0.149613 0.958817 -0.075665
C66   C     C_2   0.265048 0.149613 0.041183 -0.075666
C67   C     C_2   0.234952 0.649613 0.958817 -0.075665
C68   C     C_2   0.765048 0.649613 0.041183 -0.075665
C69   C     C_R   0.188372 0.895687 0.590737 0.484215
C70   C     C_R   0.811628 0.895687 0.409263 0.484215
C71   C     C_R   0.688372 0.395687 0.590737 0.484215
C72   C     C_R   0.311628 0.395687 0.409263 0.484215
C73   C     C_R   0.057401 0.858373 0.757265 -0.124680
C74   C     C_R   0.942599 0.858373 0.242735 -0.124679
C75   C     C_R   0.557401 0.358373 0.757265 -0.124679
C76   C     C_R   0.442599 0.358373 0.242735 -0.124680
C77   C     C_R   0.884371 0.815400 0.212122 0.112575
C78   C     C_R   0.115629 0.815400 0.787878 0.112576
C79   C     C_R   0.384371 0.315400 0.212122 0.112576
C80   C     C_R   0.615629 0.315400 0.787878 0.112576
C81   C     C_R   0.183224 0.881043 0.498077 -0.064000
C82   C     C_R   0.816776 0.881043 0.501923 -0.063999
C83   C     C_R   0.683224 0.381043 0.498077 -0.064000
C84   C     C_R   0.316776 0.381043 0.501923 -0.064000
C85   C     C_R   0.838039 0.143362 0.405579 -0.135077
C86   C     C_R   0.161961 0.143362 0.594421 -0.135077
C87   C     C_R   0.338039 0.643362 0.405579 -0.135077
C88   C     C_R   0.661960 0.643362 0.594421 -0.135077
C89   C     C_R   0.923275 0.106174 0.197609 -0.155763
C90   C     C_R   0.076725 0.106174 0.802391 -0.155764
C91   C     C_R   0.423275 0.606174 0.197608 -0.155765
C92   C     C_R   0.576725 0.606174 0.802391 -0.155764
C93   C     C_R   0.167627 0.105869 0.802415 -0.097712
C94   C     C_R   0.832373 0.105869 0.197585 -0.097712
C95   C     C_R   0.667627 0.605869 0.802415 -0.097712
C96   C     C_R   0.332373 0.605869 0.197585 -0.097712
H1    H     H_    0.802913 0.841592 0.229337 0.142953
H2    H     H_    0.197087 0.841592 0.770663 0.142953
H3    H     H_    0.302912 0.341592 0.229336 0.142954
H4    H     H_    0.697087 0.341592 0.770663 0.142953
H5    H     H_    0.090632 0.299770 0.343562 0.131848
H6    H     H_    0.909367 0.299770 0.656438 0.131848
H7    H     H_    0.590632 0.799770 0.343561 0.131848
H8    H     H_    0.409367 0.799770 0.656438 0.131848
H9    H     H_    0.799473 0.671895 0.676928 0.015942
H10   H     H_    0.200527 0.671895 0.323073 0.015943
H11   H     H_    0.299473 0.171894 0.676927 0.015943
H12   H     H_    0.700527 0.171894 0.323073 0.015943
H13   H     H_    0.884907 0.820439 0.777208 0.232976
H14   H     H_    0.115093 0.820438 0.222792 0.232976
H15   H     H_    0.384907 0.320438 0.777208 0.232976
H16   H     H_    0.615093 0.320438 0.222792 0.232976
H17   H     H_    0.874113 0.756155 0.670051 0.169584
H18   H     H_    0.125887 0.756154 0.329950 0.169584
H19   H     H_    0.374113 0.256154 0.670049 0.169584
H20   H     H_    0.625887 0.256154 0.329950 0.169584
H21   H     H_    0.710205 0.123532 0.990118 0.140923
H22   H     H_    0.289795 0.123532 0.009882 0.140923
H23   H     H_    0.210205 0.623532 0.990118 0.140923
H24   H     H_    0.789795 0.623532 0.009882 0.140923
H25   H     H_    0.212038 0.716804 0.820216 0.125849
H26   H     H_    0.787961 0.716804 0.179783 0.125848
H27   H     H_    0.712038 0.216804 0.820216 0.125849
H28   H     H_    0.287962 0.216804 0.179784 0.125848
H29   H     H_    0.829492 0.176741 0.986648 0.132859
H30   H     H_    0.170508 0.176741 0.013352 0.132859
H31   H     H_    0.329492 0.676741 0.986648 0.132859
H32   H     H_    0.670508 0.676741 0.013352 0.132859
H33   H     H_    0.120879 0.726042 0.893462 0.161262
H34   H     H_    0.879121 0.726042 0.106538 0.161262
H35   H     H_    0.620879 0.226042 0.893463 0.161262
H36   H     H_    0.379120 0.226043 0.106536 0.161263
H37   H     H_    0.093923 0.906920 0.323624 0.142868
H38   H     H_    0.906077 0.906920 0.676376 0.142868
H39   H     H_    0.593923 0.406920 0.323624 0.142868
H40   H     H_    0.406077 0.406920 0.676376 0.142868
H41   H     H_    0.020096 0.842758 0.770025 0.111313
H42   H     H_    0.979904 0.842758 0.229975 0.111313
H43   H     H_    0.520096 0.342758 0.770025 0.111313
H44   H     H_    0.479904 0.342758 0.229975 0.111313
H45   H     H_    0.801226 0.159448 0.319707 0.153222
H46   H     H_    0.198774 0.159448 0.680293 0.153222
H47   H     H_    0.301226 0.659448 0.319707 0.153222
H48   H     H_    0.698774 0.659448 0.680293 0.153222
H49   H     H_    0.953013 0.102896 0.167882 0.098485
H50   H     H_    0.046988 0.102896 0.832118 0.098486
H51   H     H_    0.453012 0.602896 0.167882 0.098486
H52   H     H_    0.546987 0.602896 0.832118 0.098485
H53   H     H_    0.221038 0.102022 0.830621 0.119501
H54   H     H_    0.778962 0.102022 0.169379 0.119501
H55   H     H_    0.721038 0.602022 0.830621 0.119501
H56   H     H_    0.278962 0.602022 0.169379 0.119501
H57   H     H_    0.939043 0.161959 0.675477 0.095848
H58   H     H_    0.060957 0.161959 0.324523 0.095848
H59   H     H_    0.439043 0.661959 0.675477 0.095848
H60   H     H_    0.560957 0.661959 0.324523 0.095848
H61   H     H_    0.667250 0.892281 0.344553 0.166712
H62   H     H_    0.332749 0.892281 0.655447 0.166711
H63   H     H_    0.167250 0.392281 0.344553 0.166711
H64   H     H_    0.832749 0.392281 0.655447 0.166711
N1    N     N_R   0.888400 0.921830 0.294620 -0.042378
N2    N     N_R   0.111600 0.921830 0.705380 -0.042378
N3    N     N_R   0.388400 0.421830 0.294620 -0.042378
N4    N     N_R   0.611600 0.421830 0.705380 -0.042378
N5    N     N_R   0.079940 0.922160 0.443410 -0.068368
N6    N     N_R   0.920060 0.922160 0.556590 -0.068368
N7    N     N_R   0.579940 0.422160 0.443410 -0.068368
N8    N     N_R   0.420060 0.422160 0.556590 -0.068368
N9    N     N_R   0.125650 0.922400 0.556620 -0.070794
N10   N     N_R   0.874350 0.922400 0.443380 -0.070794
N11   N     N_R   0.625650 0.422400 0.556620 -0.070794
N12   N     N_R   0.374350 0.422400 0.443380 -0.070794
N13   N     N_R   0.054230 0.922730 0.705400 -0.046961
N14   N     N_R   0.945770 0.922730 0.294600 -0.046961
N15   N     N_R   0.554230 0.422730 0.705400 -0.046961
N16   N     N_R   0.445770 0.422730 0.294600 -0.046961
N17   N     N_R   0.873790 0.077030 0.443380 -0.039731
N18   N     N_R   0.126210 0.077030 0.556620 -0.039731
N19   N     N_R   0.373790 0.577030 0.443380 -0.039732
N20   N     N_R   0.626210 0.577030 0.556620 -0.039731
N21   N     N_R   0.945200 0.076700 0.294600 -0.043808
N22   N     N_R   0.054800 0.076700 0.705400 -0.043808
N23   N     N_R   0.445200 0.576700 0.294600 -0.043808
N24   N     N_R   0.554800 0.576700 0.705400 -0.043808
N25   N     N_R   0.111030 0.077600 0.705380 -0.049187
N26   N     N_R   0.888970 0.077600 0.294620 -0.049187
N27   N     N_R   0.611030 0.577600 0.705380 -0.049187
N28   N     N_R   0.388970 0.577600 0.294620 -0.049187
N29   N     N_R   0.919490 0.077280 0.556590 -0.043544
N30   N     N_R   0.080510 0.077280 0.443410 -0.043544
N31   N     N_R   0.419490 0.577280 0.556590 -0.043544
N32   N     N_R   0.580510 0.577280 0.443410 -0.043544
Ni1   Ni    Ni4+2 0.882160 0.999430 0.370180 0.263089
Ni2   Ni    Ni4+2 0.117840 0.999430 0.629820 0.263089
Ni3   Ni    Ni4+2 0.382160 0.499430 0.370180 0.263089
Ni4   Ni    Ni4+2 0.617840 0.499430 0.629820 0.263089
Ni5   Ni    Ni4+2 0.012460 0.999430 0.370180 0.205967
Ni6   Ni    Ni4+2 0.987540 0.999430 0.629820 0.205967
Ni7   Ni    Ni4+2 0.512460 0.499430 0.370180 0.205967
Ni8   Ni    Ni4+2 0.487540 0.499430 0.629820 0.205967
F1    F     F_    0.811450 0.738893 0.800693 -0.693548
F2    F     F_    0.188549 0.738892 0.199307 -0.693549
F3    F     F_    0.311451 0.238892 0.800692 -0.693548
F4    F     F_    0.688549 0.238892 0.199307 -0.693549
O1    O     O_3   0.249457 0.902008 0.698404 -0.788233
H65   H     H_    0.277021 0.854051 0.714087 0.293041
O2    O     O_3   0.750543 0.902008 0.301596 -0.788233
H66   H     H_    0.722979 0.854051 0.285913 0.293041
O3    O     O_3   0.749457 0.402008 0.698404 -0.788234
H67   H     H_    0.777021 0.354051 0.714087 0.293042
O4    O     O_3   0.250543 0.402008 0.301595 -0.788234
H68   H     H_    0.222979 0.354051 0.285913 0.293042

loop_
_geom_bond_atom_site_label_1
_geom_bond_atom_site_label_2
_ccdc_geom_bond_type
N29   Ni6   S    
C25   C31   A    
C49   H17   S    
C26   C32   A    
C55   C80   S    
C91   N23   A    
N27   Ni4   S    
C92   H52   S    
C1    C77   A    
C96   N28   A    
N26   Ni1   S    
C93   H53   S    
N22   Ni6   S    
C76   C79   A    
C86   N18   A    
N25   Ni2   S    
N21   Ni5   S    
C2    N2    A    
C91   H51   S    
C95   N27   A    
C6    N30   A    
C39   C41   S    
N2    N13   A    
N19   Ni3   S    
O1    H65   S    
C89   H49   S    
C74   H42   S    
C18   C50   S    
C56   C79   S    
C41   H9    S    
C63   H31   S    
C72   N12   A    
C11   C36   S    
N19   N31   A    
C24   C83   S    
C74   N14   A    
C52   H20   S    
C55   C59   D    
N18   N30   A    
C72   O4    S    
C27   C29   A    
C52   H16   S    
C27   H63   S    
C14   C62   S    
C3    H3    S    
C29   C33   A    
C50   H14   S    
C20   C38   A    
N4    N15   A    
C17   C39   A    
N32   Ni7   S    
C66   H22   S    
C60   H28   S    
C18   C40   A    
C14   C90   A    
C19   C37   A    
C9    C85   A    
C46   C82   A    
C20   C24   A    
N28   Ni3   S    
C11   C87   A    
N24   Ni8   S    
C74   C77   A    
C51   H15   S    
C73   C78   A    
C4    N4    A    
C47   C83   A    
C17   C21   A    
C46   N6    A    
C75   C80   A    
C14   C93   A    
N20   Ni4   S    
C3    N3    A    
C54   C77   S    
C47   H39   S    
C44   C52   S    
C7    H59   S    
C40   C42   S    
N3    Ni3   S    
C3    C79   A    
C34   C38   A    
N5    N9    A    
C7    N31   A    
C65   H21   S    
N23   Ni7   S    
C57   C67   S    
C1    N1    A    
C8    H60   S    
N3    N16   A    
C41   C49   S    
C94   N26   A    
C38   C44   S    
C88   N20   A    
C71   C83   A    
C23   C27   A    
C44   H12   S    
C59   H27   S    
C54   H34   S    
C63   C67   D    
C58   H26   S    
N17   N29   A    
C23   C84   S    
C30   C34   A    
C75   N15   A    
O2    H66   S    
C22   C81   S    
C90   N22   A    
C36   C40   A    
C89   N21   A    
N31   Ni8   S    
N20   N32   A    
C17   C49   S    
C15   C96   A    
C62   H30   S    
C62   C66   D    
C19   C23   A    
C43   H11   S    
C71   O3    S    
C70   O2    S    
C57   H25   S    
C51   H19   S    
N4    Ni4   S    
C56   C60   D    
C72   C84   A    
C50   H18   S    
N22   N25   A    
C31   H7    S    
C37   C43   S    
C35   C39   A    
C67   H23   S    
N6    Ni6   S    
C5    C9    A    
C2    C78   A    
N5    Ni5   S    
C46   H38   S    
C47   N7    A    
C7    C11   A    
O4    H68   S    
C48   N8    A    
C76   N16   A    
C8    C12   A    
C12   C88   A    
C1    H1    S    
N2    Ni2   S    
C32   H8    S    
O3    H67   S    
C29   H5    S    
C69   N9    A    
C12   C35   S    
C42   H10   S    
C56   H36   S    
N17   Ni1   S    
C30   H6    S    
C42   C50   S    
C60   C66   S    
C85   H45   S    
C58   C68   S    
C4    C80   A    
C87   N19   A    
N6    N10   A    
N18   Ni2   S    
C4    H4    S    
C28   H64   S    
C25   H61   S    
C9    C34   S    
C71   N11   A    
C42   F2    S    
C95   H55   S    
C76   H44   S    
C41   F1    S    
C64   C68   D    
C90   H50   S    
C86   H46   S    
C49   H13   S    
C54   C58   D    
C21   C25   A    
C10   C86   A    
C16   C95   A    
C53   C57   D    
N8    Ni8   S    
C13   C89   A    
N13   Ni6   S    
C18   C22   A    
C69   O1    S    
C48   H40   S    
N7    Ni7   S    
C45   C81   A    
C92   N24   A    
C24   C28   A    
N11   Ni4   S    
C6    C10   A    
N10   Ni1   S    
N7    N11   A    
N21   N26   A    
C32   C36   A    
C16   C92   A    
N9    Ni2   S    
C45   H37   S    
C94   H54   S    
C16   C64   S    
C55   H35   S    
N24   N27   A    
C13   C94   A    
C28   C30   A    
C53   C78   S    
C70   N10   A    
C5    N29   A    
C20   C52   S    
C75   H43   S    
N23   N28   A    
C59   C65   S    
C43   F3    S    
N1    N14   A    
C6    H58   S    
C43   C51   S    
C73   H41   S    
C8    N32   A    
C19   C51   S    
C5    H57   S    
C26   H62   S    
C10   C33   S    
C31   C35   A    
C61   C65   D    
C73   N13   A    
C70   C82   A    
C33   C37   A    
N15   Ni8   S    
N14   Ni5   S    
C69   C81   A    
N1    Ni1   S    
C15   C91   A    
C53   H33   S    
C48   C84   A    
N8    N12   A    
C13   C61   S    
C21   C82   S    
C2    H2    S    
C85   N17   A    
C22   C26   A    
C44   F4    S    
C15   C63   S    
N12   Ni3   S    
C61   H29   S    
N16   Ni7   S    
C87   H47   S    
C64   H32   S    
C45   N5    A    
C88   H48   S    
C68   H24   S    
N30   Ni5   S    
C93   N25   A    
C96   H56   S    
