data_mof_unit_60872.cif
_audit_creation_date              2012-12-10T19:05:40-0500
_audit_creation_method            fapswitch 2.2
_symmetry_space_group_name_H-M    P1
_symmetry_Int_Tables_number       1
_space_group_crystal_system       triclinic
_cell_length_a                    10.556635
_cell_length_b                    13.073311
_cell_length_c                    13.640947
_cell_angle_alpha                 85.569555
_cell_angle_beta                  89.912918
_cell_angle_gamma                 92.461804
_cell_volume                      1875.20957095

loop_
_atom_site_label
_atom_site_type_symbol
_atom_type_description
_atom_site_fract_x
_atom_site_fract_y
_atom_site_fract_z
_atom_type_partial_charge
C1    C     C_R   0.498663 0.481094 0.685016 0.907119
C2    C     C_R   0.501337 0.518906 0.314984 0.907119
C3    C     C_2   0.461635 0.032599 0.474046 0.333030
C4    C     C_2   0.538365 0.967401 0.525954 0.333030
C5    C     C_1   0.526857 0.854626 0.519139 0.153753
C6    C     C_1   0.473142 0.145374 0.480861 0.153753
C7    C     C_R   0.742557 0.499133 0.500011 1.005320
C8    C     C_R   0.257443 0.500867 0.499989 1.005319
C9    C     C_3   0.956703 0.404188 0.491424 0.346494
C10   C     C_3   0.043297 0.595812 0.508576 0.346494
C11   C     C_3   0.039502 0.439484 0.575176 0.305585
C12   C     C_3   0.960498 0.560516 0.424823 0.305585
C13   C     C_3   0.123614 0.502260 0.499057 -0.260420
C14   C     C_3   0.876386 0.497739 0.500942 -0.260420
C15   C     C_3   0.040833 0.466387 0.413826 -0.022071
C16   C     C_3   0.959167 0.533613 0.586174 -0.022070
C17   C     C_1   0.502609 0.534136 0.212008 -0.084222
C18   C     C_1   0.497391 0.465864 0.787991 -0.084222
C19   C     C_2   0.503962 0.544971 0.020309 0.411000
C20   C     C_2   0.496038 0.455029 0.979691 0.411000
C21   C     C_1   0.496503 0.456912 0.875292 -0.012646
C22   C     C_1   0.503497 0.543088 0.124708 -0.012646
N1    N     N_1   0.479750 0.234530 0.484780 -0.070737
N2    N     N_1   0.520250 0.765470 0.515220 -0.070737
O1    O     O_R   0.492590 0.402510 0.634760 -0.610782
O2    O     O_R   0.507410 0.597490 0.365240 -0.610782
O3    O     O_R   0.505590 0.572960 0.644530 -0.594312
O4    O     O_R   0.494410 0.427040 0.355470 -0.594312
O5    O     O_R   0.679550 0.414790 0.495140 -0.573170
O6    O     O_R   0.320450 0.585210 0.504860 -0.573169
O7    O     O_R   0.692550 0.585240 0.504910 -0.603615
O8    O     O_R   0.307450 0.414760 0.495090 -0.603615
Zn1   Zn    Zn3+2 0.491320 0.386190 0.493470 1.067946
Zn2   Zn    Zn3+2 0.508680 0.613810 0.506530 1.067946
O9    O     O_3   0.086203 0.375352 0.652336 -0.709945
H1    H     H_    0.010117 0.344244 0.687578 0.367125
O10   O     O_3   0.913797 0.624648 0.347664 -0.709945
H2    H     H_    0.989883 0.655756 0.312422 0.367125
O11   O     O_3   0.907370 0.304034 0.484626 -0.681830
H3    H     H_    0.982256 0.261307 0.480692 0.363973
O12   O     O_3   0.092630 0.695966 0.515374 -0.681830
H4    H     H_    0.017743 0.738692 0.519308 0.363973
I1    I     I_    0.107391 0.415408 0.278531 -0.234534
I2    I     I_    0.892609 0.584592 0.721469 -0.234533
O13   O     O_3   0.487505 0.363147 0.037449 -0.752155
H5    H     H_    0.482499 0.306243 0.993304 0.352956
O14   O     O_3   0.512495 0.636853 0.962551 -0.752154
H6    H     H_    0.517501 0.693757 0.006696 0.352956
O15   O     O_3   0.629301 0.008118 0.586351 -0.753963
H7    H     H_    0.676426 0.950619 0.618256 0.350098
O16   O     O_3   0.370699 0.991882 0.413649 -0.753963
H8    H     H_    0.323574 0.049381 0.381744 0.350099

loop_
_geom_bond_atom_site_label_1
_geom_bond_atom_site_label_2
_ccdc_geom_bond_type
C9    C14   S    
C10   C13   S    
C8    C13   S    
C7    O5    A    
C18   C21   T    
C9    C11   S    
C11   C16   S    
C16   I2    S    
C17   C22   T    
C12   C15   S    
C4    O15   S    
C3    C6    S    
C8    O6    A    
O8    Zn1   S    
C11   O9    S    
C9    C15   S    
O7    Zn2   S    
C15   I1    S    
C2    O2    A    
C10   C16   S    
O13   H5    S    
C2    C17   S    
C1    O1    A    
C11   C13   S    
C1    C18   S    
O10   H2    S    
C5    N2    T    
C10   C12   S    
C6    N1    T    
C12   C14   S    
O4    Zn1   S    
C19   O14   S    
C13   C15   S    
O3    Zn2   S    
C14   C16   S    
C7    O7    A    
O6    Zn2   S    
O11   H3    S    
O16   H8    S    
C8    O8    A    
O14   H6    S    
O5    Zn1   S    
C9    O11   S    
C19   C22   S    
C20   C21   S    
O15   H7    S    
O12   H4    S    
C20   O13   S    
C12   O10   S    
C1    O3    A    
C3    O16   S    
C2    O4    A    
N1    Zn1   S    
O2    Zn2   S    
C7    C14   S    
N2    Zn2   S    
C3    C4    D    
C19   C20   D    
O1    Zn1   S    
C4    C5    S    
C10   O12   S    
O9    H1    S    
