data_mof_unit_47722.cif
_audit_creation_date              2013-03-05T15:53:42-0500
_audit_creation_method            fapswitch 2.2
_symmetry_space_group_name_H-M    P1
_symmetry_Int_Tables_number       1
_space_group_crystal_system       triclinic
_cell_length_a                    13.016535
_cell_length_b                    13.359622
_cell_length_c                    27.789848
_cell_angle_alpha                 94.772333
_cell_angle_beta                  90.291565
_cell_angle_gamma                 119.38801
_cell_volume                      4190.20607511

loop_
_atom_site_label
_atom_site_type_symbol
_atom_site_description
_atom_site_fract_x
_atom_site_fract_y
_atom_site_fract_z
_atom_type_partial_charge
O1    O     O_R   0.296680 0.802170 0.437540 -0.444267
O2    O     O_R   0.525380 0.838530 0.443500 -0.468547
C1    C     C_R   0.630961 0.892734 0.429540 0.560043
O3    O     O_R   0.702130 0.995190 0.446810 -0.474163
O4    O     O_R   0.661770 0.181390 0.458760 -0.490982
C2    C     C_R   0.599368 0.219617 0.439967 0.556950
O5    O     O_R   0.499820 0.198480 0.455280 -0.437662
O6    O     O_R   0.311660 0.976250 0.449080 -0.458181
C3    C     C_R   0.267162 0.876096 0.425755 0.565750
O7    O     O_R   0.297580 0.804960 0.544440 -0.469136
O8    O     O_R   0.526220 0.841130 0.542590 -0.486029
C4    C     C_R   0.626734 0.899456 0.565170 0.550834
O9    O     O_R   0.703030 0.997990 0.553710 -0.470898
O10   O     O_R   0.662610 0.183990 0.557860 -0.480702
C5    C     C_R   0.603239 0.228048 0.578187 0.555934
O11   O     O_R   0.500730 0.201280 0.562180 -0.459920
O12   O     O_R   0.312500 0.978850 0.548170 -0.481270
C6    C     C_R   0.273033 0.880004 0.563661 0.553133
Cr1   Cr    Cr6+3 0.416430 0.829200 0.492370 1.169700
Cr2   Cr    Cr6+3 0.674630 0.087020 0.504170 1.149366
Cr3   Cr    Cr6+3 0.408920 0.083740 0.503490 1.189523
O13   O     O_3   0.499990 0.999990 0.500010 -0.318499
C7    C     C_1   0.622315 0.255778 0.392260 0.123264
C8    C     C_R   0.646106 0.212794 0.265740 0.183546
C9    C     C_R   0.670519 0.239600 0.217755 0.203633
C10   C     C_R   0.626419 0.396000 0.233682 0.202738
C11   C     C_R   0.610199 0.374046 0.282621 0.199010
C12   C     C_R   0.627865 0.286713 0.299107 -0.010067
C13   C     C_R   0.662408 0.332538 0.201799 -0.011494
C14   C     C_1   0.682578 0.359264 0.152125 0.125518
C15   C     C_1   0.627772 0.272911 0.350197 0.123376
C16   C     C_1   0.699133 0.390392 0.111935 0.113671
C17   C     C_R   0.133359 0.742044 0.355061 0.177178
C18   C     C_R   0.108006 0.730311 0.304283 0.012488
C19   C     C_R   0.115929 0.721826 0.202244 -0.004952
C20   C     C_R   0.073450 0.619538 0.225841 0.249109
C21   C     C_R   0.057066 0.622780 0.275593 0.225366
C22   C     C_R   0.133195 0.723040 0.152415 0.164650
C23   C     C_R   0.127484 0.809021 0.127825 -0.023783
C24   C     C_R   0.201874 0.949006 0.357857 0.172095
C25   C     C_R   0.175599 0.938021 0.307590 -0.027261
C26   C     C_R   0.142042 0.831555 0.280430 -0.070165
C27   C     C_R   0.191887 0.034137 0.283452 0.212956
C28   C     C_R   0.202304 0.031522 0.233254 0.175239
C29   C     C_R   0.166548 0.925177 0.205398 -0.011812
C30   C     C_R   0.139228 0.825723 0.229467 -0.063277
C31   C     C_R   0.149045 0.913071 0.154454 0.132609
C32   C     C_R   0.194850 0.853922 0.380069 -0.021976
C33   C     C_R   0.766960 0.925236 0.363417 0.146934
C34   C     C_R   0.765036 0.928354 0.313314 -0.004273
C35   C     C_R   0.775323 0.922679 0.211901 -0.001707
C36   C     C_R   0.860544 0.021411 0.242514 0.204352
C37   C     C_R   0.848115 0.026788 0.292216 0.239280
C38   C     C_R   0.782075 0.912539 0.160923 0.153742
C39   C     C_R   0.694969 0.812046 0.131883 -0.008124
C40   C     C_R   0.575397 0.751349 0.356880 0.171761
C41   C     C_R   0.575219 0.747670 0.305820 0.012699
C42   C     C_R   0.672933 0.835819 0.283853 -0.042947
C43   C     C_R   0.476218 0.666080 0.275927 0.251748
C44   C     C_R   0.478805 0.667350 0.225540 0.260838
C45   C     C_R   0.582075 0.743787 0.203456 0.017493
C46   C     C_R   0.677388 0.833428 0.233068 -0.038797
C47   C     C_R   0.591669 0.733540 0.152669 0.161052
C48   C     C_R   0.662709 0.849229 0.384700 -0.005952
C49   C     C_R   0.750058 0.314841 0.648787 0.148377
C50   C     C_R   0.756898 0.324148 0.699875 -0.013710
C51   C     C_R   0.758508 0.338153 0.802558 0.008703
C52   C     C_R   0.828581 0.298781 0.776898 0.210583
C53   C     C_R   0.830160 0.295208 0.726243 0.234953
C54   C     C_R   0.764572 0.356617 0.853696 0.196092
C55   C     C_R   0.684823 0.384824 0.877054 -0.011741
C56   C     C_R   0.570659 0.331068 0.650939 0.165152
C57   C     C_R   0.604040 0.379075 0.698713 0.014695
C58   C     C_R   0.682023 0.356397 0.724957 -0.050644
C59   C     C_R   0.542150 0.426260 0.722989 0.215292
C60   C     C_R   0.519454 0.407713 0.770852 0.219993
C61   C     C_R   0.594709 0.382636 0.798999 -0.006345
C62   C     C_R   0.680722 0.361844 0.775811 -0.043147
C63   C     C_R   0.591938 0.385449 0.849495 0.138910
C64   C     C_R   0.645434 0.298714 0.625096 -0.017913
C65   C     C_1   0.222520 0.863515 0.610247 0.117520
C66   C     C_R   0.113967 0.734759 0.719582 0.196624
C67   C     C_R   0.105911 0.726838 0.769780 0.195605
C68   C     C_R   0.196820 0.936728 0.784729 0.193093
C69   C     C_R   0.202637 0.944629 0.734178 0.180120
C70   C     C_R   0.164382 0.843987 0.701901 -0.030427
C71   C     C_R   0.148371 0.827315 0.802303 -0.027177
C72   C     C_1   0.128709 0.815099 0.853382 0.146493
C73   C     C_1   0.191595 0.854061 0.651323 0.134350
C74   C     C_1   0.102600 0.797845 0.894713 0.122915
C75   C     C_1   0.640181 0.868909 0.612107 0.108473
C76   C     C_R   0.759144 0.871003 0.728430 0.159979
C77   C     C_R   0.765624 0.863069 0.778362 0.198777
C78   C     C_R   0.551729 0.782175 0.780260 0.147675
C79   C     C_R   0.545704 0.793931 0.730480 0.213701
C80   C     C_R   0.649978 0.837325 0.704539 -0.021526
C81   C     C_R   0.661259 0.816551 0.804059 -0.039949
C82   C     C_1   0.668152 0.803647 0.854873 0.087653
C83   C     C_1   0.645782 0.851147 0.653619 0.116051
C84   C     C_1   0.683087 0.791847 0.896380 0.092394
O14   O     O_R   0.820790 0.857990 0.068830 -0.476320
O15   O     O_R   0.016700 0.827330 0.062850 -0.477516
C85   C     C_R   0.065579 0.772609 0.079252 0.546094
O16   O     O_R   0.041970 0.673520 0.060040 -0.477555
O17   O     O_R   0.817980 0.483660 0.048840 -0.473879
C86   C     C_R   0.716523 0.440891 0.067015 0.555729
O18   O     O_R   0.637200 0.461990 0.052510 -0.480566
O19   O     O_R   0.664790 0.681920 0.057970 -0.469678
C87   C     C_R   0.723267 0.783147 0.082244 0.559353
O20   O     O_R   0.815840 0.852920 0.961840 -0.470758
O21   O     O_R   0.012100 0.822630 0.963670 -0.485224
C88   C     C_R   0.056250 0.766018 0.941271 0.549596
O22   O     O_R   0.037010 0.668460 0.953040 -0.460894
O23   O     O_R   0.813390 0.478970 0.949660 -0.443333
C89   C     C_R   0.709936 0.436471 0.928136 0.573708
O24   O     O_R   0.632250 0.456930 0.945520 -0.482846
O25   O     O_R   0.660200 0.677230 0.958780 -0.492037
C90   C     C_R   0.715985 0.776485 0.943314 0.556403
Cr4   Cr    Cr6+3 0.914010 0.832750 0.013970 1.142389
Cr5   Cr    Cr6+3 0.922310 0.578600 0.003000 1.176387
Cr6   Cr    Cr6+3 0.656280 0.574630 0.003870 1.136998
O26   O     O_3   0.830870 0.661990 0.006950 -0.313117
Br1   Br    Br    0.617257 0.066795 0.284120 -0.471508
Br2   Br    Br    0.287063 0.177455 0.205447 -0.243783
N1    N     N_R   0.179057 0.125758 0.308670 0.139232
O27   O     O_R   0.093490 0.099758 0.337671 -0.250061
O28   O     O_R   0.250656 0.233741 0.303416 -0.122442
N2    N     N_R   0.251210 0.060519 0.384719 0.125653
O29   O     O_R   0.195561 0.077789 0.420404 -0.225482
O30   O     O_R   0.351832 0.144692 0.373625 -0.274001
N3    N     N_R   0.883352 0.000162 0.139944 -0.094534
O31   O     O_R   0.872886 0.066586 0.110585 -0.000761
O32   O     O_R   0.872883 0.066208 0.110738 -0.000760
N4    N     N_R   0.875493 0.999680 0.391906 -0.089524
O33   O     O_R   0.902037 0.969061 0.431743 -0.002111
O34   O     O_R   0.901535 0.968984 0.431228 -0.002109
Br3   Br    Br    0.995544 0.156786 0.220938 -0.148980
Br4   Br    Br    0.917014 0.178771 0.328866 -0.163337
N5    N     N_R   0.498897 0.642121 0.121677 -0.116090
O35   O     O_R   0.482460 0.537534 0.119336 -0.000023
O36   O     O_R   0.482466 0.537525 0.119332 -0.000023
N6    N     N_R   0.368663 0.610057 0.198569 0.114630
O37   O     O_R   0.309149 0.498086 0.191009 -0.138652
O38   O     O_R   0.317830 0.670014 0.190780 -0.325983
N7    N     N_R   0.365130 0.594315 0.295843 0.134878
O39   O     O_R   0.317495 0.482534 0.289858 -0.104128
O40   O     O_R   0.304811 0.640328 0.314657 -0.280182
Br5   Br    Br    0.711650 0.148491 0.173707 -0.341585
Br6   Br    Br    0.473141 0.619724 0.391165 -0.198268
N8    N     N_R   0.858151 0.358616 0.881980 0.112144
O41   O     O_R   0.966477 0.440347 0.878832 -0.196691
O42   O     O_R   0.833513 0.289362 0.915703 -0.279483
N9    N     N_R   0.843643 0.312667 0.622345 -0.078692
O43   O     O_R   0.880911 0.367936 0.584018 -0.000001
O44   O     O_R   0.880911 0.367936 0.584017 -0.000001
Br7   Br    Br    0.907570 0.227275 0.807104 -0.154522
N10   N     N_R   0.895586 0.247618 0.701765 0.124455
O45   O     O_R   0.841248 0.140716 0.682913 -0.289899
O46   O     O_R   0.010318 0.307219 0.702603 -0.128516
N11   N     N_R   0.501737 0.399948 0.873140 -0.103203
O47   O     O_R   0.511520 0.501395 0.880737 -0.002391
O48   O     O_R   0.511161 0.502409 0.880919 -0.002393
Br8   Br    Br    0.367624 0.390935 0.787996 -0.108729
Br9   Br    Br    0.495214 0.522728 0.691732 -0.307365
Br10  Br    Br    0.404662 0.276263 0.631002 -0.207002
N12   N     N_R   0.067109 0.631818 0.686402 0.105103
O49   O     O_R   0.091389 0.550502 0.693403 -0.166879
O50   O     O_R   0.002414 0.620373 0.648266 -0.310977
N13   N     N_R   0.594747 0.474571 0.215428 0.100157
O51   O     O_R   0.669523 0.559269 0.192170 -0.369778
O52   O     O_R   0.486626 0.454039 0.218306 -0.219423
N14   N     N_R   0.046096 0.615839 0.787741 0.103621
O53   O     O_R   0.101375 0.558153 0.792701 -0.164784
O54   O     O_R   0.945996 0.583769 0.807731 -0.349166
N15   N     N_R   0.235872 0.038690 0.818050 0.124026
O55   O     O_R   0.205115 0.115323 0.810279 -0.142849
O56   O     O_R   0.297905 0.052825 0.857412 -0.309499
N16   N     N_R   0.246573 0.054584 0.715418 0.129120
O57   O     O_R   0.186904 0.066573 0.680821 -0.205649
O58   O     O_R   0.345408 0.142792 0.732844 -0.276944
Br11  Br    Br    0.899490 0.922280 0.692199 -0.264988
N17   N     N_R   0.879018 0.906630 0.803095 0.103947
O59   O     O_R   0.961213 0.012496 0.799850 -0.173801
O60   O     O_R   0.898795 0.843226 0.830704 -0.348674
Br12  Br    Br    0.411566 0.726163 0.816837 -0.307663
N18   N     N_R   0.433702 0.759771 0.706222 0.108498
O61   O     O_R   0.343414 0.658533 0.710414 -0.163535
O62   O     O_R   0.422508 0.828105 0.678531 -0.365537
N19   N     N_R   0.574008 0.438991 0.315167 0.123922
O63   O     O_R   0.492971 0.387522 0.345546 -0.196571
O64   O     O_R   0.621115 0.549758 0.313668 -0.300603
N20   N     N_R   0.148048 0.632944 0.126855 -0.053182
O65   O     O_R   0.225781 0.655828 0.094128 -0.000106
O66   O     O_R   0.225735 0.655818 0.094149 -0.000106
Br13  Br    Br    0.098315 0.610881 0.390783 -0.241744
N21   N     N_R   0.038172 0.509614 0.199367 0.132589
O67   O     O_R   0.948502 0.464189 0.168093 -0.311762
O68   O     O_R   0.082124 0.446674 0.212603 -0.127168
Br14  Br    Br    0.937899 0.478891 0.297453 -0.304518
N22   N     N_R   0.136729 0.999322 0.131336 -0.126760
O69   O     O_R   0.195484 0.043185 0.093599 -0.000678
O70   O     O_R   0.195278 0.043002 0.093740 -0.000679

loop_
_geom_bond_atom_site_label_1
_geom_bond_atom_site_label_2
_geom_bond_distance
_ccdc_geom_bond_type
C42   C46   1.411164 A    
C67   C71   1.410378 A    
C71   C72   1.451996 S    
C59   C60   1.380175 A    
N10   O45   1.301822 A    
C18   C21   1.417118 A    
N13   O52   1.299313 A    
C25   C26   1.411319 A    
C4    C75   1.433472 S    
C79   C80   1.416080 A    
C54   N8    1.434237 S    
C78   Br12  1.930615 S    
C74   C88   1.437531 S    
O19   Cr6   1.952176 S    
C33   N4    1.445802 S    
N2    O29   1.301784 A    
C27   N1    1.440939 S    
C55   C63   1.431745 A    
O23   C89   1.295543 A    
N15   O56   1.300443 A    
O4    Cr2   1.918252 S    
C61   C62   1.424307 A    
C36   C37   1.391505 A    
C49   C50   1.413328 A    
C38   N3    1.433502 S    
C35   C46   1.423137 A    
O8    Cr1   1.932497 S    
C10   C11   1.410223 A    
O11   Cr3   2.065509 S    
C20   C21   1.400365 A    
C76   Br11  1.930172 S    
N7    O39   1.300412 A    
O4    C2    1.280829 A    
C41   C43   1.413755 A    
C50   C53   1.413392 A    
C86   O18   1.268192 A    
O14   C87   1.253502 A    
C89   O24   1.258925 A    
C24   N2    1.435328 S    
C80   C83   1.446394 S    
C81   C82   1.444364 S    
C76   C80   1.405564 A    
C6    C65   1.439046 S    
O19   C87   1.302309 A    
O21   Cr4   1.938693 S    
C57   C58   1.408935 A    
N19   O64   1.299050 A    
O25   Cr6   1.915551 S    
N17   O59   1.300088 A    
C49   N9    1.437004 S    
C44   N6    1.421141 S    
C68   C69   1.417143 A    
O21   C88   1.281250 A    
C10   N13   1.428385 S    
N14   O54   1.299595 A    
N22   O69   1.303337 A    
C39   C47   1.402244 A    
C53   N10   1.434425 S    
C40   C48   1.401254 A    
O17   Cr5   1.916171 S    
C54   C55   1.411022 A    
N9    O44   1.303681 A    
C68   N15   1.441220 S    
C45   C46   1.420565 A    
C56   C57   1.393423 A    
C65   C73   1.208190 T    
C29   C31   1.415914 A    
N18   O61   1.300622 A    
C43   C44   1.402131 A    
N10   O46   1.301662 A    
C49   C64   1.419092 A    
C16   C86   1.434513 S    
Cr3   O13   1.987790 S    
C39   C87   1.497910 S    
N12   O50   1.301237 A    
C25   C27   1.421734 A    
O20   C90   1.265024 A    
N12   O49   1.299774 A    
N19   O63   1.300755 A    
C51   C62   1.422612 A    
C88   O22   1.272710 A    
N7    O40   1.300805 A    
Cr5   O26   1.988012 S    
C36   Br3   1.946883 S    
C61   C63   1.401784 A    
C9    C13   1.403270 A    
O1    Cr1   2.052707 S    
C34   C37   1.407679 A    
O24   Cr6   2.070654 S    
C35   C36   1.435866 A    
O14   Cr4   2.060377 S    
N13   O51   1.301039 A    
N16   O57   1.301301 A    
C19   C22   1.404150 A    
O1    C3    1.286567 A    
C60   C61   1.428796 A    
N21   O68   1.300429 A    
C63   N11   1.434470 S    
C52   C53   1.405122 A    
N4    O34   1.297844 A    
C78   C81   1.406479 A    
C52   Br7   1.939846 S    
C69   C70   1.413511 A    
C28   Br2   1.940014 S    
C8    Br1   1.911863 S    
O12   Cr3   1.913058 S    
C1    O3    1.266390 A    
C51   C52   1.425559 A    
C59   Br9   1.934506 S    
C19   C20   1.419286 A    
N20   O66   1.301661 A    
C27   C28   1.401451 A    
C20   N21   1.436562 S    
C13   C14   1.447640 S    
O6    Cr3   1.945800 S    
C14   C16   1.207728 T    
O10   Cr2   1.951564 S    
C18   C26   1.424500 A    
O22   Cr5   2.034006 S    
C77   N17   1.438669 S    
N15   O55   1.301245 A    
O7    Cr1   2.049647 S    
N5    O35   1.301398 A    
C67   N14   1.431192 S    
Cr1   O13   1.978783 S    
C45   C47   1.418687 A    
O12   C6    1.274408 A    
O6    C3    1.279532 A    
C34   C42   1.415231 A    
C55   C89   1.486284 S    
C8    C9    1.406957 A    
Cr6   O26   1.977948 S    
N4    O33   1.312413 A    
C3    C32   1.495733 S    
C43   N7    1.432559 S    
C24   C25   1.414812 A    
C72   C74   1.207904 T    
C33   C34   1.396899 A    
C22   N20   1.441596 S    
C37   Br4   1.955441 S    
C26   C30   1.411208 A    
N1    O27   1.298742 A    
N6    O38   1.293756 A    
C31   N22   1.438614 S    
C33   C48   1.406431 A    
C40   C41   1.415683 A    
C57   C59   1.390919 A    
N18   O62   1.301200 A    
N3    O31   1.307542 A    
C77   C81   1.413078 A    
N11   O48   1.311949 A    
C85   O16   1.270185 A    
N14   O53   1.300591 A    
C23   C31   1.415102 A    
C66   N12   1.439997 S    
Cr4   O26   1.978458 S    
C24   C32   1.421283 A    
C38   C39   1.433785 A    
O9    Cr2   2.036045 S    
O2    Cr1   1.935299 S    
N6    O37   1.300259 A    
C47   N5    1.434767 S    
C12   C15   1.446794 S    
C28   C29   1.413753 A    
C8    C12   1.404065 A    
Cr2   O13   1.978295 S    
N21   O67   1.301023 A    
N3    O32   1.300730 A    
C70   C73   1.452219 S    
N2    O30   1.300513 A    
O20   Cr4   2.046512 S    
N16   O58   1.299636 A    
O8    C4    1.273749 A    
C23   C85   1.484247 S    
C2    O5    1.267415 A    
C68   C71   1.410679 A    
O17   C86   1.280557 A    
C82   C84   1.204653 T    
N8    O41   1.301609 A    
C56   Br10  1.969610 S    
C35   C38   1.419161 A    
N11   O47   1.296281 A    
C51   C54   1.417061 A    
O2    C1    1.280245 A    
C40   Br6   1.940644 S    
C56   C64   1.420674 A    
O5    Cr3   2.030373 S    
O25   C90   1.274094 A    
N20   O65   1.302468 A    
C66   C70   1.408624 A    
N5    O36   1.301547 A    
C41   C42   1.426418 A    
C22   C23   1.416289 A    
O7    C6    1.272614 A    
C2    C7    1.431504 S    
C76   C77   1.405643 A    
C69   N16   1.436203 S    
C17   C18   1.425637 A    
C9    Br5   1.914389 S    
N8    O42   1.301237 A    
C21   Br14  1.935917 S    
C1    C48   1.477102 S    
C78   C79   1.411275 A    
N17   O60   1.300984 A    
C5    C64   1.473548 S    
O15   C85   1.286846 A    
O3    Cr2   2.070153 S    
C29   C30   1.423288 A    
C84   C90   1.432401 S    
C4    O9    1.269049 A    
C17   Br13  1.942596 S    
C10   C13   1.411503 A    
N22   O70   1.298475 A    
C66   C67   1.408304 A    
C58   C62   1.409672 A    
C11   C12   1.405420 A    
N1    O28   1.299197 A    
C17   C32   1.415968 A    
O18   Cr6   2.031834 S    
O10   C5    1.287758 A    
C44   C45   1.411322 A    
C60   Br8   1.943091 S    
C11   N19   1.437937 S    
C75   C83   1.205874 T    
N9    O43   1.303670 A    
C19   C30   1.414454 A    
O23   Cr5   1.943494 S    
O15   Cr4   1.931312 S    
C5    O11   1.267015 A    
C79   N18   1.440130 S    
C7    C15   1.205498 T    
O16   Cr5   2.061219 S    
C50   C58   1.410798 A    
