data_mof_unit_63829.cif
_audit_creation_date              2013-03-05T16:19:43-0500
_audit_creation_method            fapswitch 2.2
_symmetry_space_group_name_H-M    P1
_symmetry_Int_Tables_number       1
_space_group_crystal_system       triclinic
_cell_length_a                    23.537114
_cell_length_b                    22.174225
_cell_length_c                    27.714542
_cell_angle_alpha                 89.988038
_cell_angle_beta                  89.781018
_cell_angle_gamma                 90.062753
_cell_volume                      14464.5832206

loop_
_atom_site_label
_atom_site_type_symbol
_atom_site_description
_atom_site_fract_x
_atom_site_fract_y
_atom_site_fract_z
_atom_type_partial_charge
O1    O     O_R   0.417880 0.550320 0.500010 -0.570123
O2    O     O_R   0.582120 0.449680 0.499990 -0.570352
O3    O     O_R   0.582120 0.550320 0.499990 -0.593120
O4    O     O_R   0.417880 0.449680 0.500010 -0.592941
C1    C     C_R   0.390698 0.499982 0.500054 0.894184
C2    C     C_R   0.609303 0.500019 0.499900 0.889474
O5    O     O_R   0.500010 0.550300 0.430260 -0.551228
O6    O     O_R   0.499990 0.449700 0.569740 -0.549887
O7    O     O_R   0.499990 0.550300 0.569740 -0.570482
O8    O     O_R   0.500010 0.449700 0.430260 -0.570729
O9    O     O_2   0.422994 0.841091 0.445974 -0.467777
O10   O     O_2   0.577319 0.158960 0.553709 -0.467640
O11   O     O_2   0.577244 0.841181 0.553675 -0.475416
O12   O     O_2   0.422917 0.158866 0.446174 -0.475356
C3    C     C_R   0.499981 0.500024 0.407404 0.906554
C4    C     C_R   0.499680 0.499975 0.592645 0.904670
Cu1   Cu    Cu3+1 0.500000 0.559570 0.500000 1.023950
Cu2   Cu    Cu3+1 0.500000 0.440430 0.500000 1.024998
C5    C     C_R   0.463085 0.256806 0.530346 0.290446
C6    C     C_R   0.537823 0.743105 0.470244 0.290659
C7    C     C_R   0.537084 0.256983 0.469654 0.289928
C8    C     C_R   0.462224 0.743143 0.529487 0.290085
C9    C     C_R   0.474982 0.452479 0.177485 0.585846
C10   C     C_R   0.527871 0.541994 0.822848 0.591286
O13   O     O_2   0.459503 0.402528 0.202079 -0.490387
O14   O     O_2   0.561828 0.580388 0.798283 -0.488415
N1    N     N_R   0.492802 0.502571 0.201949 -0.454553
N2    N     N_R   0.495816 0.500668 0.798376 -0.454032
C11   C     C_R   0.509388 0.553774 0.178176 0.601924
C12   C     C_R   0.460536 0.461435 0.822075 0.597503
C13   C     C_R   0.539806 0.475577 0.277322 -0.123638
C14   C     C_R   0.455083 0.529341 0.720985 -0.126066
C15   C     C_R   0.542104 0.474583 0.327544 0.080716
C16   C     C_R   0.455322 0.529394 0.670767 0.083922
C17   C     C_R   0.450692 0.526377 0.331042 0.282572
C18   C     C_R   0.542350 0.469564 0.671234 0.283401
C19   C     C_R   0.448580 0.526812 0.280368 0.187800
C20   C     C_R   0.541447 0.469410 0.721996 0.189870
C21   C     C_R   0.493588 0.501629 0.253664 0.180983
C22   C     C_R   0.497739 0.499802 0.746670 0.181278
C23   C     C_R   0.488353 0.505666 0.101768 -0.044930
C24   C     C_R   0.489324 0.504711 0.898498 -0.045270
C25   C     C_R   0.472261 0.453097 0.126908 -0.028584
C26   C     C_R   0.525356 0.544727 0.873398 -0.030297
C27   C     C_R   0.454755 0.402252 0.100989 -0.105669
C28   C     C_R   0.558695 0.585633 0.899338 -0.104275
C29   C     C_R   0.507394 0.556320 0.127593 -0.072410
C30   C     C_R   0.456776 0.462567 0.872643 -0.071579
C31   C     C_R   0.497632 0.500251 0.354662 -0.205817
C32   C     C_R   0.499225 0.499828 0.645523 -0.209303
H1    H     H_    0.444697 0.360339 0.119215 0.204203
H2    H     H_    0.588752 0.614953 0.881151 0.204981
C33   C     C_R   0.454185 0.462463 0.974729 -0.012256
C34   C     C_R   0.507333 0.558108 0.025503 -0.012580
C35   C     C_R   0.515124 0.552827 0.974915 0.058884
C36   C     C_R   0.461767 0.458065 0.025345 0.060032
C37   C     C_R   0.486017 0.506768 0.949479 0.061426
C38   C     C_R   0.485647 0.507411 0.050772 0.061497
C39   C     C_R   0.416916 0.424709 0.947912 0.126933
C40   C     C_R   0.520480 0.611061 0.052277 0.127157
C41   C     C_R   0.419652 0.424241 0.897591 -0.128009
C42   C     C_R   0.521676 0.609055 0.102602 -0.126343
H3    H     H_    0.611095 0.945204 0.576798 0.204705
H4    H     H_    0.389158 0.054839 0.422953 0.204811
H5    H     H_    0.389177 0.945073 0.422894 0.205495
H6    H     H_    0.611108 0.054970 0.576825 0.205374
O15   O     O_2   0.429309 0.421472 0.796739 -0.488723
O16   O     O_2   0.527493 0.602061 0.203478 -0.488298
C43   C     C_R   0.450339 0.404530 0.050961 -0.148553
C44   C     C_R   0.554178 0.588982 0.949347 -0.148747
H7    H     H_    0.421223 0.551943 0.740375 0.190614
H8    H     H_    0.574302 0.456439 0.256408 0.189460
H9    H     H_    0.391190 0.394810 0.877940 0.216008
H10   H     H_    0.532184 0.649787 0.122221 0.216255
H11   H     H_    0.440607 0.363019 0.032443 0.181583
H12   H     H_    0.583664 0.618066 0.967895 0.182177
C45   C     C_R   0.880533 0.500545 0.456970 0.670152
C46   C     C_R   0.119474 0.499545 0.542510 0.669906
N3    N     N_R   0.851958 0.499926 0.499884 -0.450703
N4    N     N_R   0.148052 0.500157 0.499597 -0.450833
C47   C     C_R   0.879730 0.499327 0.543130 0.681546
C48   C     C_R   0.120285 0.500764 0.456350 0.681935
C49   C     C_R   0.939804 0.499354 0.544582 -0.112471
C50   C     C_R   0.060209 0.500746 0.454895 -0.112756
C51   C     C_R   0.969926 0.500015 0.500100 -0.048384
C52   C     C_R   0.030084 0.500085 0.499377 -0.048356
C53   C     C_R   0.939997 0.500607 0.456196 -0.073444
C54   C     C_R   0.060012 0.499491 0.543281 -0.073467
C55   C     C_R   0.971022 0.498762 0.588314 0.413360
C56   C     C_R   0.028989 0.501343 0.411164 0.413342
C57   C     C_R   0.030219 0.498840 0.587098 -0.145899
C58   C     C_R   0.969791 0.501263 0.412379 -0.146246
C59   C     C_R   0.463814 0.320230 0.529712 0.014110
C60   C     C_R   0.536992 0.679680 0.470944 0.011282
C61   C     C_R   0.536270 0.320390 0.470324 0.013480
C62   C     C_R   0.462960 0.679738 0.528883 0.013830
O17   O     O_2   0.851274 0.501106 0.415173 -0.474893
O18   O     O_2   0.148729 0.498979 0.584309 -0.474516
O19   O     O_2   0.848821 0.498723 0.584147 -0.405723
O20   O     O_2   0.151197 0.501366 0.415335 -0.404301
H13   H     H_    0.052993 0.498379 0.621006 0.226140
H14   H     H_    0.947016 0.501725 0.378471 0.225855
C63   C     C_R   0.238736 0.445253 0.499584 0.401565
C64   C     C_R   0.761099 0.445147 0.499066 0.399008
C65   C     C_R   0.298003 0.445337 0.499693 -0.213034
C66   C     C_R   0.701836 0.445317 0.499122 -0.177608
H15   H     H_    0.320329 0.402644 0.499386 0.209100
H16   H     H_    0.679381 0.402649 0.498752 0.214645
C67   C     C_R   0.328182 0.499996 0.500118 -0.161576
C68   C     C_R   0.671823 0.500020 0.499679 -0.164622
C69   C     C_R   0.298186 0.554711 0.500574 -0.173289
C70   C     C_R   0.701988 0.554691 0.500009 -0.214061
H17   H     H_    0.320653 0.597371 0.500992 0.214652
H18   H     H_    0.679651 0.597378 0.500367 0.209118
C71   C     C_R   0.238926 0.554904 0.500487 0.399097
C72   C     C_R   0.761256 0.554798 0.499973 0.401365
C73   C     C_R   0.208974 0.500107 0.499939 0.155291
C74   C     C_R   0.791036 0.499956 0.499559 0.155695
N5    N     N_R   0.500000 0.350920 0.500000 -0.228416
N6    N     N_R   0.500000 0.649080 0.500000 -0.228217
C75   C     C_R   0.460990 0.872070 0.472591 0.652255
C76   C     C_R   0.539286 0.127974 0.527136 0.652259
C77   C     C_R   0.539261 0.872116 0.527067 0.649702
C78   C     C_R   0.460959 0.127926 0.472717 0.649819
N7    N     N_R   0.500117 0.841340 0.499827 -0.428888
N8    N     N_R   0.500116 0.158696 0.499944 -0.428817
C79   C     C_R   0.540093 0.935921 0.527579 -0.041586
C80   C     C_R   0.460161 0.064121 0.472170 -0.041596
C81   C     C_R   0.460176 0.935874 0.472108 -0.043624
C82   C     C_R   0.540102 0.064169 0.527619 -0.043588
C83   C     C_R   0.500136 0.967926 0.499854 0.001860
C84   C     C_R   0.500134 0.032117 0.499880 0.002002
C85   C     C_R   0.579811 0.968468 0.555118 -0.105578
C86   C     C_R   0.420450 0.031574 0.444624 -0.105495
C87   C     C_R   0.420461 0.968374 0.444590 -0.104526
C88   C     C_R   0.579819 0.031669 0.555134 -0.104831
H19   H     H_    0.435374 0.345112 0.553108 0.178165
H20   H     H_    0.565983 0.654724 0.448093 0.178182
H21   H     H_    0.564734 0.345382 0.446999 0.187753
H22   H     H_    0.433787 0.654872 0.551596 0.188572
C89   C     C_R   0.500096 0.224290 0.499982 0.182593
C90   C     C_R   0.500065 0.775740 0.499859 0.181958
Cl1   Cl    Cl    0.416001 0.219209 0.569497 -0.479163
Cl2   Cl    Cl    0.585918 0.780540 0.431885 -0.479291
Cl3   Cl    Cl    0.584254 0.219648 0.430497 -0.475510
Cl4   Cl    Cl    0.414095 0.780578 0.567733 -0.474772
Cl5   Cl    Cl    0.939835 0.497897 0.646345 -0.402996
Cl6   Cl    Cl    0.060180 0.502213 0.353134 -0.402591
Cl7   Cl    Cl    0.202375 0.375926 0.498916 -0.465005
Cl8   Cl    Cl    0.797227 0.375766 0.498474 -0.455007
Cl9   Cl    Cl    0.202822 0.624300 0.501004 -0.453942
Cl10  Cl    Cl    0.797596 0.624139 0.500565 -0.465584
Cl11  Cl    Cl    0.393699 0.556736 0.364967 -0.499052
Cl12  Cl    Cl    0.598433 0.433502 0.639941 -0.490849
I1    I     I_    0.377418 0.564098 0.243511 -0.053644
I2    I     I_    0.604958 0.422903 0.762029 -0.065564
I3    I     I_    0.385707 0.571462 0.635709 -0.230981
I4    I     I_    0.615366 0.436560 0.360109 -0.230053
I5    I     I_    0.344166 0.379647 0.976905 -0.213362
I6    I     I_    0.523190 0.700220 0.023181 -0.220737

loop_
_geom_bond_atom_site_label_1
_geom_bond_atom_site_label_2
_geom_bond_distance
_ccdc_geom_bond_type
C50   C52   1.419876 A    
C8    Cl4   1.757610 S    
C79   C85   1.407678 A    
C68   C70   1.404284 A    
O2    Cu2   1.943496 S    
C23   C25   1.408674 A    
C6    Cl2   1.757589 S    
C20   I2    2.131820 S    
C46   O18   1.349956 S    
O3    C2    1.286462 A    
C29   C42   1.398978 A    
C64   C66   1.394877 A    
C33   C39   1.423495 A    
C18   Cl12  1.768603 S    
C34   C40   1.423506 A    
C51   C52   1.416008 A    
C65   H15   1.083277 S    
O3    Cu1   1.943942 S    
C50   C56   1.419813 A    
C11   C29   1.403989 A    
O1    C1    1.285959 A    
H3    C85   1.083234 S    
C12   C30   1.404159 A    
C17   C19   1.405499 A    
O7    C4    1.283726 A    
C10   O14   1.349520 S    
C23   C38   1.415517 A    
O8    C3    1.283031 A    
C67   C69   1.404425 A    
C34   C38   1.417905 A    
O11   C77   1.348984 S    
C46   N4    1.364162 A    
C77   N7    1.374287 A    
C70   C72   1.394996 A    
N1    C11   1.368328 A    
N2    C22   1.433683 S    
C15   C31   1.407093 A    
N3    C74   1.434015 S    
C28   H2    1.083226 S    
C9    C25   1.403473 A    
C40   C42   1.395843 A    
C39   C41   1.395919 A    
C64   Cl8   1.758704 S    
C19   I1    2.132651 S    
C56   Cl6   1.765450 S    
Cu1   N6    1.984815 S    
C81   C87   1.407668 A    
C39   I5    2.135776 S    
C63   C65   1.394991 A    
O9    C75   1.348986 S    
N1    C21   1.433618 S    
C71   C73   1.404247 A    
C17   C31   1.411238 A    
C85   C88   1.401420 A    
C13   C15   1.393291 A    
C45   O17   1.349946 S    
C9    N1    1.367795 A    
C36   C38   1.418376 A    
C55   C57   1.393590 A    
C12   O15   1.349552 S    
C5    C59   1.406554 A    
C58   H14   1.083700 S    
C78   C80   1.415011 A    
O4    Cu2   1.943945 S    
C66   H16   1.083306 S    
O5    C3    1.282339 A    
O6    C4    1.282997 A    
C53   C58   1.400058 A    
C2    C68   1.471520 S    
C63   C73   1.404313 A    
C24   C26   1.408572 A    
C57   H13   1.083702 S    
C80   C84   1.409025 A    
C24   C37   1.415525 A    
C70   H18   1.083284 S    
C47   C49   1.414695 A    
C26   C28   1.399434 A    
N4    C73   1.434002 S    
C14   H7    1.082972 S    
C64   C74   1.404258 A    
C51   C53   1.408365 A    
C49   C55   1.419811 A    
H4    C86   1.083236 S    
C16   C32   1.408272 A    
O12   C78   1.348984 S    
C27   C43   1.391711 A    
C6    C90   1.408265 A    
N4    C48   1.367446 A    
N3    C47   1.367445 A    
C33   C37   1.417845 A    
C47   O19   1.347350 S    
C41   H9    1.083182 S    
C6    C60   1.406645 A    
O6    Cu2   1.943751 S    
O2    C2    1.285997 A    
C7    Cl3   1.757532 S    
C76   N8    1.374222 A    
C82   C84   1.409041 A    
C75   N7    1.374286 A    
C80   C86   1.407665 A    
C11   O16   1.349593 S    
C17   Cl11  1.768990 S    
C56   C58   1.393632 A    
C54   C57   1.400041 A    
N7    C90   1.454644 S    
C8    C90   1.408081 A    
Cu1   Cu2   2.641835 S    
C23   C29   1.405850 A    
C45   N3    1.364166 A    
C69   H17   1.083313 S    
C24   C30   1.405895 A    
C25   C27   1.399466 A    
H5    C87   1.083237 S    
C72   C74   1.404304 A    
H6    C88   1.083239 S    
O7    Cu1   1.943666 S    
C13   H8    1.082867 S    
C49   C51   1.419867 A    
C48   C50   1.414739 A    
C35   C37   1.418411 A    
C44   H12   1.078759 S    
C10   C26   1.403321 A    
C61   H21   1.081462 S    
C83   C84   1.423390 A    
C77   C79   1.415026 A    
C72   Cl10  1.758762 S    
C14   C22   1.396599 A    
C18   C32   1.412539 A    
C15   I4    2.124543 S    
C78   N8    1.374226 A    
C66   C68   1.404432 A    
C33   C36   1.418122 A    
C46   C54   1.399654 A    
C55   Cl5   1.765454 S    
C65   C67   1.404240 A    
C34   C35   1.418144 A    
C5    Cl1   1.757534 S    
C8    C62   1.406178 A    
C62   N6    1.363523 A    
C82   C88   1.407659 A    
C10   N2    1.368078 A    
C75   C81   1.415023 A    
O4    C1    1.286473 A    
O5    Cu1   1.943754 S    
C62   H22   1.080497 S    
C86   C87   1.401412 A    
C7    C61   1.406276 A    
N8    C89   1.454486 S    
C60   N6    1.363853 A    
C61   N5    1.363689 A    
N2    C12   1.368122 A    
C7    C89   1.408080 A    
C19   C21   1.406138 A    
C18   C20   1.406915 A    
C20   C22   1.405870 A    
C30   C41   1.399045 A    
C1    C67   1.471443 S    
O8    Cu2   1.943668 S    
C60   H20   1.081929 S    
C48   O20   1.347344 S    
C13   C21   1.397741 A    
C43   H11   1.078782 S    
C52   C54   1.408356 A    
C3    C31   1.462982 S    
C4    C32   1.465496 S    
C79   C83   1.409003 A    
C28   C44   1.391642 A    
C35   C44   1.408192 A    
C59   H19   1.081938 S    
C63   Cl7   1.758760 S    
C16   I3    2.124650 S    
C9    O13   1.349462 S    
O10   C76   1.348987 S    
O1    Cu1   1.943498 S    
C45   C53   1.399704 A    
C5    C89   1.408174 A    
C36   C43   1.408210 A    
C71   Cl9   1.758689 S    
C27   H1    1.083220 S    
C42   H10   1.083193 S    
C69   C71   1.394832 A    
C59   N5    1.363735 A    
C40   I6    2.135814 S    
Cu2   N5    1.984815 S    
C76   C82   1.415030 A    
C14   C16   1.391773 A    
C81   C83   1.409018 A    
