data_mof_unit_43397.cif
_audit_creation_date              2012-12-10T18:15:10-0500
_audit_creation_method            fapswitch 2.2
_symmetry_space_group_name_H-M    P1
_symmetry_Int_Tables_number       1
_space_group_crystal_system       triclinic
_cell_length_a                    12.580952
_cell_length_b                    13.025718
_cell_length_c                    23.422006
_cell_angle_alpha                 91.003671
_cell_angle_beta                  103.419306
_cell_angle_gamma                 80.95209
_cell_volume                      3686.33359046

loop_
_atom_site_label
_atom_site_type_symbol
_atom_type_description
_atom_site_fract_x
_atom_site_fract_y
_atom_site_fract_z
_atom_type_partial_charge
C1    C     C_R   0.436819 0.692452 0.491413 0.864046
C2    C     C_R   0.552672 0.666310 0.039306 -0.157672
C3    C     C_R   0.553850 0.667256 0.980034 -0.157533
C4    C     C_R   0.537631 0.578464 0.946312 -0.015100
C5    C     C_R   0.520906 0.487739 0.972639 -0.020206
C6    C     C_R   0.504873 0.398148 0.939209 -0.015830
C7    C     C_R   0.488223 0.308142 0.965849 -0.157245
C8    C     C_R   0.486411 0.307349 0.025057 -0.157298
C9    C     C_R   0.536358 0.578195 0.886513 0.501945
C10   C     C_R   0.505164 0.401399 0.879655 0.502397
C11   C     C_R   0.610789 0.501584 0.773984 -0.097189
C12   C     C_R   0.501579 0.500192 0.610634 0.868498
C13   C     C_R   0.606218 0.504625 0.714220 -0.217153
C14   C     C_R   0.506037 0.499047 0.673468 -0.045035
C15   C     C_R   0.410474 0.491082 0.693274 -0.219325
C16   C     C_R   0.415247 0.488473 0.753049 -0.101978
C17   C     C_R   0.515390 0.493400 0.793381 0.315149
C18   C     C_R   0.409630 0.525254 0.224203 -0.148184
C19   C     C_R   0.402155 0.530378 0.282758 0.148951
C20   C     C_R   0.497855 0.494935 0.327034 -0.088989
C21   C     C_R   0.597733 0.455332 0.311833 -0.271350
C22   C     C_R   0.604890 0.450834 0.253479 0.244532
C23   C     C_R   0.563098 0.307321 0.508390 0.894853
C24   C     C_R   0.509716 0.486295 0.209620 0.280328
C25   C     C_R   0.714012 0.051716 0.471815 0.197607
C26   C     C_R   0.604220 0.194389 0.511433 -0.144125
C27   C     C_R   0.287627 0.848639 0.491916 0.208865
C28   C     C_R   0.257682 0.956924 0.489461 -0.144751
C29   C     C_R   0.334234 0.020458 0.484657 -0.242702
C30   C     C_R   0.441845 0.976935 0.480521 0.119597
C31   C     C_R   0.461760 0.871050 0.467874 0.039765
C32   C     C_R   0.529655 0.035426 0.486916 0.021288
C33   C     C_R   0.624067 0.995466 0.464772 0.056578
C34   C     C_R   0.498381 0.499897 0.389426 0.872568
C35   C     C_R   0.628832 0.896986 0.439069 -0.196636
C36   C     C_R   0.550215 0.834991 0.441718 -0.178157
C37   C     C_R   0.528907 0.129689 0.517243 0.085584
C38   C     C_R   0.705885 0.150269 0.498425 0.139272
C39   C     C_R   0.392688 0.804447 0.481834 -0.153871
C40   C     C_R   0.088595 0.349171 0.414406 0.107344
C41   C     C_R   0.799059 0.630320 0.569571 0.021278
C42   C     C_R   0.902561 0.661080 0.582728 -0.250313
C43   C     C_R   0.983627 0.613217 0.555219 -0.200171
C44   C     C_R   0.961175 0.533577 0.514328 0.036514
C45   C     C_R   0.498710 0.398045 0.117931 0.508445
C46   C     C_R   0.853987 0.506306 0.502077 0.243752
C47   C     C_R   0.040369 0.479854 0.485469 -0.048521
C48   C     C_R   0.009850 0.403260 0.443028 0.178056
C49   C     C_R   0.902068 0.381115 0.430990 -0.302191
C50   C     C_R   0.827019 0.429768 0.461297 -0.231492
C51   C     C_R   0.149857 0.498093 0.497799 -0.082604
C52   C     C_R   0.195512 0.372504 0.429034 -0.016280
C53   C     C_R   0.532000 0.574231 0.124975 0.509042
C54   C     C_R   0.535031 0.576628 0.065802 -0.020652
C55   C     C_R   0.519401 0.486858 0.032440 -0.022350
C56   C     C_R   0.501507 0.396457 0.058637 -0.021646
H1    H     H_    0.565034 0.736098 0.064157 0.193474
H2    H     H_    0.670932 0.427441 0.345614 0.168018
H3    H     H_    0.696112 0.863891 0.419582 0.167699
H4    H     H_    0.307968 0.103540 0.483341 0.168347
H5    H     H_    0.176430 0.992853 0.494033 0.147220
H6    H     H_    0.558927 0.758735 0.422621 0.172125
H7    H     H_    0.258592 0.333425 0.408174 0.145929
H8    H     H_    0.875243 0.323333 0.399446 0.169657
H9    H     H_    0.181047 0.553151 0.529565 0.137887
H10   H     H_    0.735341 0.667429 0.590537 0.144907
H11   H     H_    0.062053 0.640829 0.566565 0.141078
H12   H     H_    0.919816 0.722016 0.613946 0.157540
H13   H     H_    0.748870 0.403529 0.453069 0.218906
H14   H     H_    0.475888 0.238347 0.941003 0.193770
H15   H     H_    0.688321 0.505257 0.805286 0.144929
H16   H     H_    0.681118 0.510505 0.700042 0.164365
H17   H     H_    0.332151 0.487065 0.662729 0.161789
H18   H     H_    0.337898 0.552640 0.189365 0.147393
N1    N     N_R   0.513905 0.485985 0.149429 -0.354219
N2    N     N_R   0.519847 0.490706 0.854681 -0.358429
N3    N     N_R   0.222200 0.444670 0.469780 -0.120772
N4    N     N_R   0.776960 0.554790 0.529910 -0.133065
O1    O     O_R   0.366740 0.627150 0.485570 -0.601929
O2    O     O_2   0.546902 0.659076 0.157981 -0.551937
O3    O     O_2   0.550007 0.664869 0.860080 -0.556867
O4    O     O_2   0.491066 0.316206 0.846846 -0.555642
O5    O     O_R   0.544830 0.662520 0.504870 -0.612450
O6    O     O_R   0.410930 0.482340 0.574190 -0.618886
O7    O     O_R   0.589010 0.517710 0.593490 -0.620742
O8    O     O_R   0.455170 0.337480 0.495130 -0.602163
O9    O     O_R   0.633260 0.372850 0.514430 -0.631898
O10   O     O_R   0.410990 0.482290 0.406510 -0.608314
O11   O     O_R   0.589070 0.517660 0.425810 -0.639268
O12   O     O_2   0.480995 0.312830 0.144075 -0.550571
Zn1   Zn    Zn3+2 0.381090 0.476380 0.487110 0.930728
Zn2   Zn    Zn3+2 0.618910 0.523620 0.512890 0.924152
C57   C     C_3   0.293668 0.577073 0.296606 -0.839830
H19   H     H_    0.306533 0.640987 0.328252 0.236789
H20   H     H_    0.231993 0.610039 0.256663 0.231642
H21   H     H_    0.258107 0.516452 0.315386 0.256245
C58   C     C_3   0.714827 0.409109 0.239947 -0.858639
H22   H     H_    0.741481 0.327504 0.256400 0.239071
H23   H     H_    0.712081 0.410395 0.192314 0.242498
H24   H     H_    0.777734 0.456639 0.262247 0.240339
C59   C     C_3   0.808824 0.199050 0.519973 -0.872801
H25   H     H_    0.798737 0.263043 0.550867 0.261919
H26   H     H_    0.875882 0.140243 0.545444 0.241598
H27   H     H_    0.836099 0.226103 0.482150 0.239711
C60   C     C_3   0.817241 0.005807 0.451163 -0.923968
H28   H     H_    0.794560 0.990626 0.403428 0.241467
H29   H     H_    0.881131 0.056930 0.456876 0.247545
H30   H     H_    0.856023 0.931932 0.475596 0.242176
C61   C     C_3   0.468008 0.153379 0.566134 -0.844491
H31   H     H_    0.519499 0.191434 0.602952 0.234635
H32   H     H_    0.388867 0.206738 0.550673 0.250082
H33   H     H_    0.452568 0.081132 0.585069 0.246687
C62   C     C_3   0.206623 0.784261 0.505746 -0.887145
H34   H     H_    0.131598 0.833569 0.514219 0.224467
H35   H     H_    0.178771 0.734410 0.468041 0.257334
H36   H     H_    0.245732 0.735645 0.545827 0.238194
H37   H     H_    0.567027 0.737782 0.960725 0.193635
C63   C     C_3   0.061642 0.267095 0.369398 -0.943719
H38   H     H_    0.994868 0.301440 0.331810 0.253578
H39   H     H_    0.134544 0.234113 0.352030 0.247386
H40   H     H_    0.034588 0.202253 0.389639 0.245281
H41   H     H_    0.472812 0.236963 0.044327 0.193334
H42   H     H_    0.341267 0.482740 0.768162 0.142516

loop_
_geom_bond_atom_site_label_1
_geom_bond_atom_site_label_2
_ccdc_geom_bond_type
C40   C63   S    
C55   C56   A    
C57   H19   S    
C41   C42   A    
C35   C36   A    
C8    C56   A    
C7    H14   S    
C58   H22   S    
C2    H1    S    
C25   C60   S    
C7    C8    A    
C53   C54   A    
O5    Zn2   S    
C60   H29   S    
C59   H25   S    
C12   O7    A    
C18   C24   A    
C21   C22   A    
C28   C29   A    
C50   H13   S    
C38   C59   S    
O8    Zn1   S    
C61   H32   S    
C30   C31   A    
C11   H15   S    
C15   C16   A    
C12   O6    A    
C35   H3    S    
C18   C19   A    
C51   H9    S    
C23   C26   S    
C63   H38   S    
C3    H37   S    
C10   N2    A    
C11   C17   A    
C19   C20   A    
C45   C56   A    
C27   C39   A    
C16   C17   A    
C23   O8    A    
C17   N2    S    
C29   H4    S    
C9    N2    A    
O1    Zn1   S    
C19   C57   S    
C44   C47   A    
C62   H36   S    
C20   C34   S    
C28   H5    S    
C18   H18   S    
C22   C58   S    
C23   O9    A    
O9    Zn2   S    
C42   H12   S    
C53   N1    A    
C36   H6    S    
C58   H23   S    
O7    Zn2   S    
C44   C46   A    
C57   H20   S    
C60   H30   S    
C53   O2    S    
C2    C54   A    
C61   H33   S    
C41   N4    A    
C46   N4    A    
C26   C38   A    
C47   C51   A    
N4    Zn2   S    
C40   C52   A    
C10   O4    S    
C63   H40   S    
C43   C44   A    
C51   N3    A    
C29   C30   A    
C25   C38   A    
C47   C48   A    
O10   Zn1   S    
C26   C37   A    
C34   O10   A    
C32   C37   A    
C5    C55   A    
O11   Zn2   S    
C45   O12   S    
C6    C7    A    
C27   C62   S    
C48   C49   A    
C15   H17   S    
C12   C14   S    
C57   H21   S    
C1    O1    A    
C22   C24   A    
C1    O5    A    
C42   C43   A    
C52   N3    A    
C58   H24   S    
C62   H34   S    
C59   H26   S    
C40   C48   A    
C54   C55   A    
N3    Zn1   S    
C31   C36   A    
C37   C61   S    
C16   H42   S    
C4    C5    A    
C52   H7    S    
C6    C10   A    
C24   N1    S    
C41   H10   S    
C13   H16   S    
C59   H27   S    
C60   H28   S    
C46   C50   A    
C45   N1    A    
C32   C33   A    
C2    C3    A    
C34   O11   A    
C21   H2    S    
C61   H31   S    
C30   C32   A    
C11   C13   A    
C8    H41   S    
C5    C6    A    
O6    Zn1   S    
C33   C35   A    
C31   C39   A    
C63   H39   S    
C1    C39   S    
C20   C21   A    
C43   H11   S    
C49   C50   A    
C25   C33   A    
C27   C28   A    
C49   H8    S    
C14   C15   A    
C4    C9    A    
C13   C14   A    
C3    C4    A    
C9    O3    S    
C62   H35   S    
