data_mof_unit_50438.cif
_audit_creation_date              2012-12-10T17:23:37-0500
_audit_creation_method            fapswitch 2.2
_symmetry_space_group_name_H-M    P1
_symmetry_Int_Tables_number       1
_space_group_crystal_system       triclinic
_cell_length_a                    10.135402
_cell_length_b                    10.476125
_cell_length_c                    15.7161
_cell_angle_alpha                 90.077893
_cell_angle_beta                  82.656106
_cell_angle_gamma                 93.561515
_cell_volume                      1651.80953697

loop_
_atom_site_label
_atom_site_type_symbol
_atom_type_description
_atom_site_fract_x
_atom_site_fract_y
_atom_site_fract_z
_atom_type_partial_charge
C1    C     C_R   0.553704 0.734652 0.498994 0.912944
C2    C     C_3   0.585719 0.421005 0.964185 0.453421
C3    C     C_3   0.553420 0.624510 0.972279 0.405653
C4    C     C_3   0.456825 0.391957 0.025355 0.477910
C5    C     C_1   0.508129 0.509868 0.749897 -0.151764
C6    C     C_1   0.493802 0.496294 0.249551 -0.191821
C7    C     C_3   0.380488 0.484923 0.976765 -0.401621
C8    C     C_3   0.630042 0.530881 0.022313 -0.551386
C9    C     C_3   0.510594 0.514174 0.915474 -0.070553
C10   C     C_3   0.498272 0.501111 0.083171 -0.065756
C11   C     C_1   0.511466 0.514485 0.824724 0.057253
C12   C     C_R   0.446741 0.265423 0.510746 0.952392
C13   C     C_1   0.493431 0.496183 0.174300 0.052424
C14   C     C_2   0.578090 0.870401 0.514111 -0.484409
C15   C     C_2   0.423452 0.129878 0.531599 -0.342033
C16   C     C_3   0.700376 0.800032 0.983001 0.046151
C17   C     C_3   0.722358 0.943245 0.963539 -0.292653
C18   C     C_3   0.808724 0.009130 0.025511 -0.966925
C19   C     C_3   0.374008 0.188871 0.991101 0.135416
C20   C     C_3   0.222512 0.167924 0.995959 -0.410245
C21   C     C_3   0.184141 0.083252 0.922732 -0.893385
C22   C     C_3   0.393681 0.784951 0.108527 0.098813
C23   C     C_2   0.500535 0.930299 0.576168 -0.083343
C24   C     C_3   0.289278 0.855986 0.165652 -0.341273
C25   C     C_3   0.352960 0.970726 0.208638 -0.948718
C26   C     C_3   0.797040 0.355494 0.910074 0.106865
C27   C     C_3   0.835733 0.451838 0.836194 -0.367788
C28   C     C_3   0.986893 0.472723 0.815891 -0.930947
C29   C     C_2   0.606025 0.132482 0.626703 0.465750
C30   C     C_2   0.412806 0.862727 0.647517 0.472707
C31   C     C_2   0.507492 0.069045 0.575753 0.045278
C32   C     C_2   0.927060 0.510223 0.507923 -0.119452
C33   C     C_2   0.072709 0.488847 0.492744 -0.121072
C34   C     C_R   0.502391 0.502890 0.661794 0.938132
C35   C     C_R   0.497935 0.498527 0.338068 0.896889
C36   C     C_3   0.425009 0.595337 0.034106 0.456768
H1    H     H_    0.728639 0.550060 0.044983 0.170595
H2    H     H_    0.674257 0.787282 0.053676 0.128638
H3    H     H_    0.771433 0.957910 0.896579 0.224686
H4    H     H_    0.624943 0.987654 0.969740 0.230858
H5    H     H_    0.755781 0.003915 0.091947 0.266758
H6    H     H_    0.829969 0.111288 0.007439 0.267896
H7    H     H_    0.904474 0.962541 0.023898 0.264154
H8    H     H_    0.415881 0.095112 0.000038 0.154673
H9    H     H_    0.416148 0.223155 0.925447 0.173556
H10   H     H_    0.181601 0.122033 0.058300 0.236994
H11   H     H_    0.177495 0.261302 0.991968 0.223562
H12   H     H_    0.279960 0.468497 0.956419 0.175146
H13   H     H_    0.227060 0.125879 0.859779 0.287693
H14   H     H_    0.074190 0.074724 0.924924 0.259819
H15   H     H_    0.220784 0.986259 0.928523 0.282113
H16   H     H_    0.440755 0.851663 0.057041 0.172603
H17   H     H_    0.469690 0.755204 0.148535 0.123500
H18   H     H_    0.214517 0.889697 0.126241 0.226931
H19   H     H_    0.237116 0.789774 0.216009 0.236680
H20   H     H_    0.424190 0.938562 0.251106 0.261033
H21   H     H_    0.274332 0.021961 0.248044 0.269517
H22   H     H_    0.406607 0.037986 0.159607 0.289595
H23   H     H_    0.344006 0.076177 0.504219 0.143370
H24   H     H_    0.847634 0.266413 0.892417 0.167972
H25   H     H_    0.834763 0.389326 0.970081 0.129493
H26   H     H_    0.794334 0.415640 0.777932 0.257270
H27   H     H_    0.794135 0.545283 0.853587 0.227697
H28   H     H_    0.030295 0.510495 0.873017 0.263402
H29   H     H_    0.011793 0.542986 0.762525 0.269291
H30   H     H_    0.031750 0.381485 0.796069 0.271448
H31   H     H_    0.695762 0.085358 0.635503 0.041501
H32   H     H_    0.420531 0.762102 0.659780 0.065371
H33   H     H_    0.652028 0.924427 0.469801 0.158917
H34   H     H_    0.108793 0.419422 0.445424 0.164055
H35   H     H_    0.890839 0.579063 0.555629 0.162852
H36   H     H_    0.119659 0.616178 0.579110 0.168187
H37   H     H_    0.880484 0.384278 0.420619 0.162850
H38   H     H_    0.794930 0.753543 0.962338 0.155704
N1    N     N_2   0.842700 0.448880 0.465440 -0.189858
N2    N     N_2   0.157300 0.551120 0.534560 -0.190068
O1    O     O_R   0.431060 0.692470 0.506960 -0.608461
O2    O     O_3   0.407637 0.270309 0.058117 -0.638385
O3    O     O_3   0.330211 0.678967 0.071753 -0.627615
O4    O     O_3   0.658546 0.322498 0.922593 -0.643302
O5    O     O_2   0.583845 0.232273 0.664159 -0.572603
O6    O     O_2   0.332514 0.920660 0.694967 -0.572263
O7    O     O_R   0.568940 0.307530 0.493040 -0.592186
O8    O     O_R   0.651120 0.659650 0.484770 -0.604853
O9    O     O_R   0.348880 0.340350 0.515230 -0.601170
O10   O     O_R   0.389990 0.516420 0.634310 -0.623486
O11   O     O_R   0.610010 0.483580 0.365690 -0.606850
O12   O     O_R   0.610050 0.483600 0.612130 -0.579635
O13   O     O_R   0.389950 0.516400 0.387870 -0.605623
O14   O     O_3   0.598477 0.746569 0.937947 -0.635175
Zn1   Zn    Zn3+2 0.353060 0.521920 0.514810 0.953852
Zn2   Zn    Zn3+2 0.646940 0.478080 0.485190 0.961677

loop_
_geom_bond_atom_site_label_1
_geom_bond_atom_site_label_2
_ccdc_geom_bond_type
C16   O14   S    
C1    O1    A    
C7    C36   S    
C28   H30   S    
C19   C20   S    
C25   H20   S    
H36   N2    S    
C32   N1    D    
C21   H13   S    
O9    Zn1   S    
C1    O8    A    
C4    O2    S    
O7    Zn2   S    
C26   C27   S    
C12   O9    A    
C3    O14   S    
C16   H38   S    
C26   H25   S    
C22   O3    S    
C5    C11   T    
O10   Zn1   S    
C18   H6    S    
C17   H3    S    
C24   H18   S    
C6    C35   S    
C34   O10   A    
C29   H31   S    
C35   O11   A    
O12   Zn2   S    
C16   C17   S    
C22   H17   S    
O11   Zn2   S    
H37   N1    S    
C25   H21   S    
C4    C7    S    
C21   H14   S    
C32   H35   S    
C23   C30   S    
C24   C25   S    
C3    C8    S    
C18   H5    S    
N1    Zn2   S    
C36   O3    S    
C26   O4    S    
C12   O7    A    
C24   H19   S    
C17   H4    S    
C23   C31   S    
C14   C23   D    
C30   O6    D    
C19   O2    S    
C2    C4    S    
C29   O5    D    
C3    C9    S    
C27   H26   S    
C33   N2    D    
C12   C15   S    
C5    C34   S    
C17   C18   S    
C34   O12   A    
C9    C11   S    
C27   H27   S    
C33   H34   S    
C35   O13   A    
C14   H33   S    
C22   C24   S    
O13   Zn1   S    
C8    H1    S    
C4    C10   S    
C28   H28   S    
C21   H15   S    
C19   H8    S    
C22   H16   S    
C7    C9    S    
O1    Zn1   S    
C15   H23   S    
C2    C8    S    
C10   C13   S    
C19   H9    S    
C15   C31   D    
C7    H12   S    
C28   H29   S    
C29   C31   S    
C18   H7    S    
C32   C33   S    
C6    C13   T    
C3    C36   S    
C20   H10   S    
C20   H11   S    
C2    O4    S    
N2    Zn1   S    
C20   C21   S    
C8    C10   S    
C25   H22   S    
C27   C28   S    
C10   C36   S    
C1    C14   S    
O8    Zn2   S    
C2    C9    S    
C26   H24   S    
C30   H32   S    
C16   H2    S    
