data_mof_unit_28369.cif
_audit_creation_date              2013-03-05T15:50:50-0500
_audit_creation_method            fapswitch 2.2
_symmetry_space_group_name_H-M    P1
_symmetry_Int_Tables_number       1
_space_group_crystal_system       triclinic
_cell_length_a                    9.61303
_cell_length_b                    10.813686
_cell_length_c                    15.36654
_cell_angle_alpha                 83.211091
_cell_angle_beta                  74.655468
_cell_angle_gamma                 89.512331
_cell_volume                      1529.20993145

loop_
_atom_site_label
_atom_site_type_symbol
_atom_site_description
_atom_site_fract_x
_atom_site_fract_y
_atom_site_fract_z
_atom_type_partial_charge
O1    O     O_R   0.118810 0.319640 0.500010 -0.594890
O2    O     O_R   0.881240 0.319660 0.500000 -0.571240
C1    C     C_R   0.997933 0.261658 0.506593 0.768340
O3    O     O_R   0.055570 0.499980 0.629840 -0.544670
O4    O     O_R   0.818000 0.500010 0.629830 -0.592561
C2    C     C_R   0.918899 0.495463 0.672997 0.801667
Cu1   Cu    Cu3+1 0.140660 0.499990 0.500010 0.961330
Cu2   Cu    Cu3+1 0.859340 0.500010 0.499990 1.017459
O5    O     O_R   0.118760 0.680340 0.500000 -0.621668
O6    O     O_R   0.881190 0.680360 0.499990 -0.522622
O7    O     O_R   0.182000 0.499990 0.370170 -0.611302
O8    O     O_R   0.944430 0.500020 0.370160 -0.463560
C3    C     C_R   0.995889 0.735439 0.508367 0.807037
C4    C     C_R   0.080796 0.493831 0.327982 0.854921
C5    C     C_R   0.874864 0.474920 0.773794 -0.214117
C6    C     C_R   0.124359 0.490616 0.228218 -0.222919
C7    C     C_R   0.899332 0.364387 0.916886 0.256596
C8    C     C_R   0.960786 0.409236 0.824718 0.257967
C9    C     C_R   0.734025 0.504747 0.817554 -0.261317
C10   C     C_R   0.670341 0.463184 0.909813 0.058496
C11   C     C_R   0.755996 0.394709 0.959971 -0.111913
C12   C     C_R   0.522908 0.485663 0.952861 0.033753
C13   C     C_R   0.468074 0.452667 0.048562 -0.041840
C14   C     C_R   0.555422 0.380801 0.096323 0.440624
C15   C     C_R   0.697195 0.356435 0.052562 -0.147857
C16   C     C_R   0.426247 0.534281 0.902628 -0.145705
C17   C     C_R   0.281355 0.548902 0.944504 -0.099153
C18   C     C_R   0.228712 0.522218 0.038196 0.101936
C19   C     C_R   0.323875 0.484281 0.091512 0.089598
C20   C     C_R   0.080668 0.529096 0.079016 -0.218619
C21   C     C_R   0.026033 0.503075 0.173390 0.346972
C22   C     C_R   0.272103 0.483403 0.185885 -0.255938
H1    H     H_    0.760370 0.305465 0.092959 0.224530
H2    H     H_    0.347394 0.482389 0.226937 0.245154
H3    H     H_    0.209639 0.581093 0.903211 0.170399
H4    H     H_    0.676251 0.561367 0.777034 0.167722
H5    H     H_    0.456401 0.554865 0.829743 0.157282
H6    H     H_    0.006775 0.547891 0.036843 0.170280
H7    H     H_    0.836979 0.122410 0.439269 0.183472
C23   C     C_R   0.150722 0.105495 0.623350 -0.152225
H8    H     H_    0.148268 0.203368 0.629934 0.177925
C24   C     C_R   0.228266 0.031544 0.673705 -0.090918
H9    H     H_    0.288218 0.073820 0.713449 0.182207
C25   C     C_R   0.224953 0.903009 0.675565 -0.145957
H10   H     H_    0.281617 0.845583 0.717017 0.150495
C26   C     C_R   0.145001 0.847752 0.626540 -0.168189
H11   H     H_    0.138491 0.747315 0.635542 0.181269
C27   C     C_R   0.070993 0.921143 0.571292 0.094086
C28   C     C_R   0.073571 0.052510 0.569749 0.086071
C29   C     C_R   0.993693 0.125744 0.517634 -0.103681
C30   C     C_R   0.902583 0.068168 0.476538 -0.196356
H12   H     H_    0.827815 0.899735 0.445765 0.183360
C31   C     C_R   0.897985 0.940554 0.479756 -0.208705
C32   C     C_R   0.988617 0.867092 0.520921 -0.126982
H13   H     H_    0.584244 0.357149 0.608525 0.142375
C33   C     C_R   0.693424 0.674796 0.362142 0.508899
C34   C     C_R   0.629410 0.744113 0.298555 -0.207903
H14   H     H_    0.687601 0.806566 0.240654 0.145540
C35   C     C_R   0.485734 0.740869 0.306797 -0.286213
H15   H     H_    0.441100 0.799128 0.258837 0.171341
C36   C     C_R   0.397863 0.665460 0.375881 -0.132140
H16   H     H_    0.289079 0.675346 0.375472 0.216116
C37   C     C_R   0.449021 0.582789 0.437491 0.166799
C38   C     C_R   0.601172 0.584615 0.434526 0.128668
N1    N     N_R   0.648320 0.501210 0.499140 -0.188646
C39   C     C_R   0.549466 0.421634 0.559517 -0.038903
H17   H     H_    0.327854 0.356625 0.607775 0.166506
C40   C     C_R   0.402304 0.421376 0.559128 0.010519
N2    N     N_R   0.352470 0.501290 0.499110 -0.196577
O9    O     O_3   0.840406 0.697023 0.354094 -0.544242
C41   C     C_3   0.913626 0.787338 0.280732 0.049427
H18   H     H_    0.862060 0.879528 0.287411 0.138517
H19   H     H_    0.914458 0.755317 0.214437 0.181325
C42   C     C_3   0.071387 0.809694 0.277937 -0.815203
H20   H     H_    0.134798 0.725003 0.267427 0.221656
H21   H     H_    0.119898 0.880983 0.219759 0.217386
H22   H     H_    0.082524 0.845800 0.339859 0.234198
N3    N     N_R   0.872763 0.487118 0.210833 0.125656
O10   O     O_R   0.821432 0.387774 0.266276 -0.343440
O11   O     O_R   0.785753 0.552642 0.172833 -0.403581
N4    N     N_R   0.978477 0.279898 0.964467 0.138441
O12   O     O_R   0.926966 0.167864 0.996226 -0.363587
O13   O     O_R   0.109233 0.307730 0.965515 -0.323693
N5    N     N_R   0.108218 0.383413 0.782735 0.134045
O14   O     O_R   0.203235 0.474452 0.756875 -0.405537
O15   O     O_R   0.151911 0.269279 0.784974 -0.367768
O16   O     O_3   0.503160 0.327677 0.185452 -0.565087
C43   C     C_3   0.440700 0.209595 0.186281 0.055867
H23   H     H_    0.525428 0.143769 0.157393 0.156634
H24   H     H_    0.357980 0.215647 0.147029 0.162910
C44   C     C_3   0.366487 0.157842 0.283988 -0.727591
H25   H     H_    0.279693 0.220896 0.314045 0.252610
H26   H     H_    0.318010 0.064380 0.285696 0.191217
H27   H     H_    0.445986 0.149221 0.325182 0.257413

loop_
_geom_bond_atom_site_label_1
_geom_bond_atom_site_label_2
_geom_bond_distance
_ccdc_geom_bond_type
C5    C8    1.414139 A    
H7    C30   1.084055 S    
O16   C43   1.412903 S    
C39   C40   1.416289 A    
C9    C10   1.407610 A    
N4    O12   1.301389 A    
Cu1   Cu2   2.704417 S    
C31   C32   1.396907 A    
C25   H10   1.082792 S    
C6    C21   1.419116 A    
C27   C32   1.416710 A    
C16   C17   1.387470 A    
C42   H21   1.110638 S    
C13   C19   1.426558 A    
C18   C19   1.409676 A    
N5    O15   1.299863 A    
C19   C22   1.402019 A    
C9    H4    1.076161 S    
C20   C21   1.400370 A    
O7    C4    1.310082 A    
N3    O11   1.301245 A    
C34   C35   1.353549 A    
C23   C28   1.413811 A    
C33   C34   1.425650 A    
C20   H6    1.084377 S    
C36   C37   1.405760 A    
O5    C3    1.300940 A    
C41   C42   1.526289 S    
C2    C5    1.483539 S    
C5    C9    1.396865 A    
C37   N2    1.373405 A    
C40   N2    1.365731 A    
C42   H22   1.100796 S    
C8    N5    1.433440 S    
C13   C14   1.424022 A    
C33   C38   1.486898 A    
O9    C41   1.432325 S    
C23   C24   1.393833 A    
C35   H15   1.084946 S    
C24   C25   1.387307 A    
O3    Cu1   1.945646 S    
N4    O13   1.299652 A    
C1    C29   1.459105 S    
C25   C26   1.391387 A    
C29   C30   1.395888 A    
C26   C27   1.416871 A    
C35   C36   1.355691 A    
C42   H20   1.099895 S    
H17   C40   1.078393 S    
C14   C15   1.389158 A    
O3    C2    1.304082 A    
C44   H25   1.111395 S    
C41   H19   1.112118 S    
N3    O10   1.301369 A    
C17   H3    1.083651 S    
C7    C11   1.416080 A    
C30   C31   1.375676 A    
C22   H2    1.077858 S    
Cu1   O7    1.928492 S    
C44   H26   1.111114 S    
C43   C44   1.522395 S    
Cu2   O8    1.945646 S    
C10   C11   1.418068 A    
C7    C8    1.410593 A    
N5    O14   1.300813 A    
C27   C28   1.418267 A    
C43   H24   1.115368 S    
C28   C29   1.422413 A    
C33   O9    1.405604 S    
C4    C6    1.483018 S    
C24   H9    1.082086 S    
H13   C39   1.081800 S    
H12   C31   1.081085 S    
C21   N3    1.436620 S    
C3    C32   1.457736 S    
Cu1   O5    1.959782 S    
C11   C15   1.397958 A    
C26   H11   1.078751 S    
C23   H8    1.074499 S    
O1    Cu1   1.963303 S    
O2    Cu2   1.959782 S    
C10   C12   1.428747 A    
O6    C3    1.300563 A    
Cu1   N2    2.032677 S    
O4    Cu2   1.928492 S    
C16   H5    1.076224 S    
C6    C22   1.402695 A    
C38   N1    1.422745 A    
C18   C20   1.400406 A    
O2    C1    1.301997 A    
O8    C4    1.304636 A    
C41   H18   1.113084 S    
C44   H27   1.110988 S    
C34   H14   1.077784 S    
O4    C2    1.309653 A    
C7    N4    1.439732 S    
C36   H16   1.051893 S    
C14   O16   1.383095 S    
C37   C38   1.451475 A    
Cu2   N1    2.031958 S    
C43   H23   1.113836 S    
Cu2   O6    1.963303 S    
N1    C39   1.364869 A    
C12   C16   1.418107 A    
C17   C18   1.389550 A    
C12   C13   1.427130 A    
O1    C1    1.299527 A    
C15   H1    1.082088 S    
