data_mof_unit_23894.cif
_audit_creation_date              2013-03-05T16:06:26-0500
_audit_creation_method            fapswitch 2.2
_symmetry_space_group_name_H-M    P1
_symmetry_Int_Tables_number       1
_space_group_crystal_system       triclinic
_cell_length_a                    26.187352
_cell_length_b                    26.568532
_cell_length_c                    18.346758
_cell_angle_alpha                 90.517788
_cell_angle_beta                  134.131475
_cell_angle_gamma                 89.982422
_cell_volume                      9161.25866897

loop_
_atom_site_label
_atom_site_type_symbol
_atom_site_description
_atom_site_fract_x
_atom_site_fract_y
_atom_site_fract_z
_atom_type_partial_charge
Zn1   Zn    Zn3+2 0.337540 0.293760 0.587540 1.197682
Zn2   Zn    Zn3+2 0.337540 0.706240 0.587540 1.192186
Zn3   Zn    Zn3+2 0.837540 0.793760 0.587540 1.230606
Zn4   Zn    Zn3+2 0.837540 0.206240 0.587540 1.202616
Zn5   Zn    Zn3+2 0.162450 0.293770 0.412470 1.168647
Zn6   Zn    Zn3+2 0.162450 0.706230 0.412470 1.148712
Zn7   Zn    Zn3+2 0.662450 0.793770 0.412470 1.189832
Zn8   Zn    Zn3+2 0.662450 0.206230 0.412470 1.108221
Zn9   Zn    Zn3+2 0.249980 0.206220 0.412450 1.221309
Zn10  Zn    Zn3+2 0.249980 0.793780 0.412450 1.212746
Zn11  Zn    Zn3+2 0.749980 0.706220 0.412450 1.196564
Zn12  Zn    Zn3+2 0.749980 0.293780 0.412450 1.182144
Zn13  Zn    Zn3+2 0.250000 0.206220 0.587540 1.214705
Zn14  Zn    Zn3+2 0.250000 0.793780 0.587540 1.217713
Zn15  Zn    Zn3+2 0.750000 0.706220 0.587540 1.209737
Zn16  Zn    Zn3+2 0.750000 0.293780 0.587540 1.197076
O1    O     O_3   0.249990 0.249990 0.500000 -0.624302
O2    O     O_3   0.249990 0.750010 0.500000 -0.629977
O3    O     O_3   0.749990 0.749990 0.500000 -0.627002
O4    O     O_3   0.749990 0.250010 0.500000 -0.618734
O5    O     O_R   0.163790 0.219360 0.561280 -0.566134
O6    O     O_R   0.163790 0.780640 0.561280 -0.559118
O7    O     O_R   0.663790 0.719360 0.561280 -0.566420
O8    O     O_R   0.663790 0.280640 0.561280 -0.549853
O9    O     O_R   0.397470 0.280620 0.561260 -0.591181
O10   O     O_R   0.397470 0.719380 0.561260 -0.570127
O11   O     O_R   0.897470 0.780620 0.561260 -0.568958
O12   O     O_R   0.897470 0.219380 0.561260 -0.557652
O13   O     O_R   0.188730 0.366850 0.438750 -0.544559
O14   O     O_R   0.188730 0.633150 0.438750 -0.563764
O15   O     O_R   0.688730 0.866850 0.438750 -0.555517
O16   O     O_R   0.688730 0.133150 0.438750 -0.611850
O17   O     O_R   0.249980 0.133140 0.438710 -0.574393
O18   O     O_R   0.249980 0.866860 0.438710 -0.552633
O19   O     O_R   0.749980 0.633140 0.438710 -0.586581
O20   O     O_R   0.749980 0.366860 0.438710 -0.585534
O21   O     O_R   0.102500 0.280640 0.266310 -0.616251
O22   O     O_R   0.102500 0.719360 0.266310 -0.616517
O23   O     O_R   0.602500 0.780640 0.266310 -0.593395
O24   O     O_R   0.602500 0.219360 0.266310 -0.660246
O25   O     O_R   0.336220 0.219350 0.733700 -0.590287
O26   O     O_R   0.336220 0.780650 0.733700 -0.577665
O27   O     O_R   0.836220 0.719350 0.733700 -0.578916
O28   O     O_R   0.836220 0.280650 0.733700 -0.585392
O29   O     O_R   0.163750 0.219360 0.266290 -0.555470
O30   O     O_R   0.163750 0.780640 0.266290 -0.559299
O31   O     O_R   0.663750 0.719360 0.266290 -0.599198
O32   O     O_R   0.663750 0.280640 0.266290 -0.557240
O33   O     O_R   0.397490 0.280620 0.733700 -0.541802
O34   O     O_R   0.397490 0.719380 0.733700 -0.585079
O35   O     O_R   0.897490 0.780620 0.733700 -0.576225
O36   O     O_R   0.897490 0.219380 0.733700 -0.569535
O37   O     O_R   0.311270 0.366840 0.561280 -0.582423
O38   O     O_R   0.311270 0.633160 0.561280 -0.557645
O39   O     O_R   0.811270 0.866840 0.561280 -0.553905
O40   O     O_R   0.811270 0.133160 0.561280 -0.534155
O41   O     O_R   0.249990 0.133140 0.561260 -0.563064
O42   O     O_R   0.249990 0.866860 0.561260 -0.573035
O43   O     O_R   0.749990 0.633140 0.561260 -0.561160
O44   O     O_R   0.749990 0.366860 0.561260 -0.563646
O45   O     O_R   0.102520 0.280640 0.438750 -0.576137
O46   O     O_R   0.102520 0.719360 0.438750 -0.580206
O47   O     O_R   0.602520 0.780640 0.438750 -0.581655
O48   O     O_R   0.602520 0.219360 0.438750 -0.592516
O49   O     O_R   0.336190 0.219350 0.438710 -0.551633
O50   O     O_R   0.336190 0.780650 0.438710 -0.555374
O51   O     O_R   0.836190 0.719350 0.438710 -0.554029
O52   O     O_R   0.836190 0.280650 0.438710 -0.561203
C1    C     C_R   0.110581 0.250270 0.502036 1.019079
C2    C     C_R   0.111242 0.748990 0.503535 1.019119
C3    C     C_R   0.611413 0.750891 0.503669 1.005120
C4    C     C_R   0.610569 0.248930 0.502724 1.042055
C5    C     C_R   0.391496 0.248102 0.500660 0.988627
C6    C     C_R   0.391801 0.751077 0.501533 0.984280
C7    C     C_R   0.890975 0.749269 0.499267 1.013964
C8    C     C_R   0.891147 0.250813 0.500146 0.953165
C9    C     C_R   0.248843 0.390960 0.502068 1.020023
C10   C     C_R   0.249313 0.609360 0.504709 0.964838
C11   C     C_R   0.748958 0.890668 0.501094 1.029300
C12   C     C_R   0.750288 0.108847 0.504102 1.033923
C13   C     C_R   0.247241 0.108849 0.497890 1.022078
C14   C     C_R   0.251983 0.891167 0.502530 1.028133
C15   C     C_R   0.747002 0.608643 0.496716 1.012003
C16   C     C_R   0.752418 0.390985 0.502998 1.003990
C17   C     C_R   0.110082 0.249938 0.217706 0.976062
C18   C     C_R   0.109618 0.749980 0.217638 0.916199
C19   C     C_R   0.610666 0.751186 0.217822 0.903017
C20   C     C_R   0.609532 0.250168 0.218047 0.909305
C21   C     C_R   0.389136 0.252453 0.781899 0.921136
C22   C     C_R   0.390361 0.750225 0.781812 0.944455
C23   C     C_R   0.890658 0.750296 0.781624 0.953969
C24   C     C_R   0.890595 0.249577 0.781660 0.913933
C25   C     C_3   0.436146 0.209549 0.938449 -0.037498
C26   C     C_3   0.504161 0.791403 0.935316 -0.103928
C27   C     C_3   0.983463 0.698123 0.935701 -0.075722
C28   C     C_3   0.986736 0.300458 0.937997 -0.080449
H1    H     H_    0.437707 0.175110 0.905694 0.234994
H2    H     H_    0.529022 0.782088 0.907564 0.227246
H3    H     H_    0.009471 0.690176 0.909601 0.238402
H4    H     H_    0.013626 0.306486 0.912182 0.218295
C29   C     C_3   0.495608 0.207553 0.054791 0.101779
C30   C     C_3   0.562611 0.793527 0.053784 0.130366
C31   C     C_3   0.041155 0.696894 0.053073 0.063626
C32   C     C_3   0.042827 0.301872 0.055159 0.147640
H5    H     H_    0.471328 0.217006 0.084260 0.218994
H6    H     H_    0.553406 0.828572 0.076495 0.202922
H7    H     H_    0.020775 0.673433 0.078221 0.201052
H8    H     H_    0.020192 0.325016 0.077818 0.197877
H9    H     H_    0.398498 0.303550 0.929480 0.209287
H10   H     H_    0.398319 0.804509 0.924102 0.215001
H11   H     H_    0.883438 0.729983 0.924881 0.209895
H12   H     H_    0.882886 0.266033 0.925114 0.197814
H13   H     H_    0.485589 0.300814 0.099253 0.225422
H14   H     H_    0.483373 0.805084 0.092529 0.230959
H15   H     H_    0.967344 0.731886 0.092599 0.229999
H16   H     H_    0.968216 0.265923 0.093483 0.225945
C33   C     C_3   0.449162 0.303421 0.949593 0.115395
C34   C     C_3   0.417565 0.765400 0.946858 0.091170
C35   C     C_3   0.918526 0.762168 0.946150 0.098354
C36   C     C_3   0.919273 0.235320 0.945919 0.103397
C37   C     C_3   0.525524 0.245140 0.934607 0.221971
C38   C     C_3   0.486092 0.695249 0.937211 0.249661
C39   C     C_3   0.012186 0.791031 0.935414 0.236594
C40   C     C_3   0.012332 0.207794 0.934058 0.234128
C41   C     C_3   0.448950 0.254633 0.897836 -0.364446
C42   C     C_3   0.447006 0.749563 0.897476 -0.334939
C43   C     C_3   0.949272 0.751688 0.896883 -0.337111
C44   C     C_3   0.949555 0.247073 0.896727 -0.338545
C45   C     C_3   0.554382 0.250894 0.102273 -0.300776
C46   C     C_3   0.552135 0.749855 0.101824 -0.257637
C47   C     C_3   0.053152 0.751424 0.101197 -0.273514
C48   C     C_3   0.054344 0.248015 0.101212 -0.308675
C49   C     C_3   0.510147 0.299971 0.068389 -0.487445
C50   C     C_3   0.479365 0.766281 0.065268 -0.475524
C51   C     C_3   0.979759 0.761957 0.064861 -0.475420
C52   C     C_3   0.980720 0.236500 0.064319 -0.497968
C53   C     C_3   0.589574 0.253978 0.056284 0.361065
C54   C     C_3   0.539204 0.693219 0.058132 0.282660
C55   C     C_3   0.068223 0.796004 0.057781 0.330160
C56   C     C_3   0.068671 0.203507 0.056004 0.340366
H17   H     H_    0.545378 0.333517 0.104617 0.291823
H18   H     H_    0.466356 0.744894 0.101595 0.313175
H19   H     H_    0.982009 0.795489 0.102766 0.285500
H20   H     H_    0.982826 0.202024 0.099515 0.295651
C57   C     C_3   0.525317 0.249081 0.606965 -0.021087
C58   C     C_3   0.517051 0.716574 0.592454 -0.015831
C59   C     C_3   0.008310 0.789248 0.575756 -0.031876
C60   C     C_3   0.007969 0.210298 0.575435 -0.019064
H21   H     H_    0.545954 0.211303 0.635855 0.222995
H22   H     H_    0.543993 0.736677 0.663528 0.233617
H23   H     H_    0.033948 0.775144 0.650368 0.235391
H24   H     H_    0.035332 0.224534 0.651290 0.255357
C61   C     C_3   0.578298 0.269456 0.604296 0.130583
C62   C     C_3   0.573594 0.712200 0.588075 0.129337
C63   C     C_3   0.066763 0.792546 0.575216 0.133587
C64   C     C_3   0.064739 0.206918 0.571785 0.105746
H25   H     H_    0.573039 0.310080 0.600830 0.243915
H26   H     H_    0.569586 0.675071 0.558287 0.240774
H27   H     H_    0.061695 0.827465 0.539411 0.236110
H28   H     H_    0.056709 0.171964 0.532992 0.237937
C65   C     C_3   0.432682 0.290992 0.422120 0.263923
C66   C     C_3   0.419597 0.730336 0.393611 0.312486
C67   C     C_3   0.915727 0.760203 0.383093 0.333884
C68   C     C_3   0.914895 0.236914 0.383949 0.320613
C69   C     C_3   0.449520 0.190255 0.456699 0.332108
C70   C     C_3   0.487429 0.808378 0.535103 0.291554
C71   C     C_3   0.990559 0.693221 0.540984 0.276909
C72   C     C_3   0.992645 0.305262 0.544860 0.293537
C73   C     C_3   0.446896 0.245192 0.494721 -0.440202
C74   C     C_3   0.451102 0.751860 0.502980 -0.442047
C75   C     C_3   0.948537 0.747478 0.496984 -0.459414
C76   C     C_3   0.948714 0.251437 0.498104 -0.453967
C77   C     C_3   0.551787 0.249365 0.499902 -0.433136
C78   C     C_3   0.555806 0.750593 0.507040 -0.453163
C79   C     C_3   0.054698 0.748985 0.504538 -0.467036
C80   C     C_3   0.053705 0.249993 0.502662 -0.460880
C81   C     C_3   0.488857 0.286937 0.410563 0.263693
C82   C     C_3   0.482053 0.732551 0.394404 0.255428
C83   C     C_3   0.979760 0.758471 0.386992 0.277238
C84   C     C_3   0.978322 0.239098 0.385746 0.280682
C85   C     C_3   0.519225 0.192885 0.475063 -0.106046
C86   C     C_3   0.547552 0.805696 0.532610 -0.048775
C87   C     C_3   0.052535 0.696092 0.542431 -0.044205
C88   C     C_3   0.051756 0.303402 0.540640 -0.027144
H29   H     H_    0.504735 0.181132 0.406197 0.234501
H30   H     H_    0.530912 0.827583 0.469710 0.237410
H31   H     H_    0.040959 0.669942 0.486751 0.236577
H32   H     H_    0.036684 0.328444 0.482409 0.234574
C89   C     C_3   0.241131 0.030578 0.580345 0.258399
C90   C     C_3   0.237568 0.969064 0.574757 0.244463
C91   C     C_3   0.737985 0.530410 0.572749 0.244630
C92   C     C_3   0.741271 0.469273 0.577186 0.260005
C93   C     C_3   0.316846 0.030633 0.534730 -0.042513
C94   C     C_3   0.322152 0.971924 0.545031 -0.027368
C95   C     C_3   0.817048 0.529048 0.530511 0.011109
C96   C     C_3   0.822867 0.470200 0.544132 -0.032089
C97   C     C_3   0.176935 0.029105 0.386369 0.208262
C98   C     C_3   0.185452 0.967976 0.383440 0.230739
C99   C     C_3   0.679794 0.527913 0.381039 0.201012
C100  C     C_3   0.687231 0.466779 0.383568 0.227659
C101  C     C_3   0.245094 0.051065 0.499706 -0.438284
C102  C     C_3   0.249257 0.948874 0.502033 -0.433352
C103  C     C_3   0.745341 0.550434 0.495478 -0.438234
C104  C     C_3   0.750209 0.448359 0.502609 -0.452217
H33   H     H_    0.311427 0.037785 0.470857 0.185223
H34   H     H_    0.330667 0.961315 0.496815 0.213581
H35   H     H_    0.810591 0.534109 0.465378 0.219178
H36   H     H_    0.829770 0.455115 0.495435 0.223447
C105  C     C_3   0.243028 0.449047 0.500678 -0.523843
C106  C     C_3   0.246823 0.551437 0.505274 -0.518462
C107  C     C_3   0.744347 0.948034 0.499601 -0.546244
C108  C     C_3   0.751668 0.050229 0.508330 -0.537272
C109  C     C_3   0.260105 0.470738 0.432846 0.333940
C110  C     C_3   0.273127 0.531844 0.448841 0.303495
C111  C     C_3   0.744946 0.968682 0.412336 0.345268
C112  C     C_3   0.762067 0.029261 0.432179 0.319084
C113  C     C_3   0.158641 0.467909 0.445604 0.296821
C114  C     C_3   0.162793 0.531855 0.450851 0.287954
C115  C     C_3   0.668377 0.966641 0.468494 0.309684
C116  C     C_3   0.675932 0.030367 0.479072 0.277774
C117  C     C_3   0.300198 0.469711 0.624012 0.174015
C118  C     C_3   0.306160 0.531969 0.625396 0.179700
C119  C     C_3   0.813336 0.967694 0.621848 0.157215
C120  C     C_3   0.823083 0.030030 0.628232 0.203302
N1    N     N_R   0.365699 0.207781 0.904489 0.241510
O53   O     O_R   0.349665 0.237926 0.942327 -0.310181
O54   O     O_R   0.326219 0.167877 0.855662 -0.195449
N2    N     N_R   0.472676 0.841354 0.891307 0.220903
O55   O     O_R   0.457406 0.872149 0.929388 -0.299917
O56   O     O_R   0.469855 0.858167 0.822242 -0.234421
N3    N     N_R   0.931720 0.656674 0.892335 0.225125
O57   O     O_R   0.904733 0.644459 0.928350 -0.315556
O58   O     O_R   0.920997 0.626795 0.826361 -0.233492
N4    N     N_R   0.939555 0.344144 0.897834 0.252198
O59   O     O_R   0.895949 0.349230 0.909058 -0.320255
O60   O     O_R   0.956910 0.384202 0.878738 -0.220416
S1    S     S_3+6 0.637739 0.316298 0.086199 0.172755
O61   O     O_2   0.587880 0.359440 0.027900 -0.193321
O62   O     O_2   0.690942 0.333023 0.194929 -0.144379
O63   O     O_3   0.685558 0.312508 0.056537 -0.416334
H37   H     H_    0.700128 0.347558 0.060066 0.413596
S2    S     S_3+6 0.503726 0.654105 0.099700 0.166565
O64   O     O_2   0.424041 0.653739 0.023896 -0.124830
O65   O     O_2   0.525933 0.600284 0.114804 -0.090166
O66   O     O_3   0.531475 0.675683 0.208721 -0.472521
H38   H     H_    0.583517 0.671800 0.260249 0.355053
S3    S     S_3+6 0.063110 0.860121 0.095467 0.176598
O67   O     O_2   0.992872 0.872213 0.060022 -0.141900
O68   O     O_2   0.118656 0.867034 0.208471 -0.209273
O69   O     O_3   0.077449 0.904012 0.045289 -0.384352
H39   H     H_    0.129563 0.908173 0.092704 0.425142
S4    S     S_3+6 0.061941 0.141499 0.095621 0.159287
O70   O     O_2   0.088443 0.144241 0.198942 -0.225452
O71   O     O_2   0.987096 0.121604 0.025584 -0.184133
O72   O     O_3   0.111385 0.098980 0.098979 -0.372219
H40   H     H_    0.078576 0.071016 0.052980 0.435465
N5    N     N_R   0.448592 0.352581 0.913382 0.297195
O73   O     O_R   0.404392 0.359535 0.816537 -0.250850
O74   O     O_R   0.466876 0.392330 0.969448 -0.188385
N6    N     N_R   0.354846 0.737645 0.910961 0.288770
O75   O     O_R   0.299901 0.733920 0.814076 -0.229789
O76   O     O_R   0.342631 0.735425 0.968617 -0.216354
N7    N     N_R   0.870721 0.805390 0.906821 0.292325
O77   O     O_R   0.818418 0.810232 0.809171 -0.258382
O78   O     O_R   0.864323 0.827432 0.963762 -0.191402
N8    N     N_R   0.874423 0.189793 0.907832 0.293159
O79   O     O_R   0.823496 0.181944 0.810543 -0.236244
O80   O     O_R   0.867590 0.168395 0.964271 -0.196310
N9    N     N_R   0.531129 0.270003 0.686210 0.298608
O81   O     O_R   0.569687 0.309687 0.739776 -0.169437
O82   O     O_R   0.509723 0.241048 0.717284 -0.268766
N10   N     N_R   0.502620 0.667021 0.611597 0.306293
O83   O     O_R   0.508661 0.625568 0.579789 -0.245989
O84   O     O_R   0.508502 0.663345 0.687956 -0.182260
N11   N     N_R   0.985346 0.840260 0.575805 0.294760
O85   O     O_R   0.984497 0.877058 0.528714 -0.204679
O86   O     O_R   0.989129 0.852564 0.648374 -0.178293
N12   N     N_R   0.984405 0.159504 0.574540 0.291336
O87   O     O_R   0.977551 0.123062 0.520403 -0.262732
O88   O     O_R   0.993213 0.146847 0.651115 -0.161648
S5    S     S_3+6 0.669994 0.262864 0.728388 0.174092
O89   O     O_2   0.672277 0.230266 0.797236 -0.143791
O90   O     O_2   0.720047 0.241428 0.722998 -0.227531
O91   O     O_3   0.700118 0.320618 0.781554 -0.422969
H41   H     H_    0.749086 0.315329 0.848443 0.400014
S6    S     S_3+6 0.662062 0.707022 0.718408 0.146615
O92   O     O_2   0.712059 0.677382 0.720725 -0.176302
O93   O     O_2   0.695726 0.756690 0.770825 -0.167640
O94   O     O_3   0.653375 0.674869 0.787881 -0.441155
H42   H     H_    0.702080 0.673172 0.856706 0.413973
S7    S     S_3+6 0.151927 0.804469 0.706606 0.162228
O95   O     O_2   0.181414 0.758197 0.770134 -0.144210
O96   O     O_2   0.207333 0.827610 0.713107 -0.171973
O97   O     O_3   0.137234 0.846401 0.759467 -0.436378
H43   H     H_    0.182947 0.849137 0.831575 0.418326
S8    S     S_3+6 0.151031 0.193861 0.698709 0.180080
O98   O     O_2   0.186275 0.153353 0.689317 -0.143248
O99   O     O_2   0.198985 0.239022 0.750490 -0.155695
O100  O     O_3   0.140701 0.171672 0.773454 -0.430819
H44   H     H_    0.189311 0.163109 0.838118 0.434557
N13   N     N_R   0.441383 0.340796 0.468223 0.198668
O101  O     O_R   0.469931 0.346274 0.560394 -0.296928
O102  O     O_R   0.417195 0.381433 0.414615 -0.224149
N14   N     N_R   0.393587 0.677521 0.376472 0.249303
O103  O     O_R   0.357938 0.655539 0.288588 -0.152264
O104  O     O_R   0.382235 0.659365 0.429152 -0.286054
N15   N     N_R   0.882785 0.810932 0.351772 0.249690
O105  O     O_R   0.862722 0.830193 0.393086 -0.318398
O106  O     O_R   0.847894 0.826834 0.260583 -0.189176
N16   N     N_R   0.880982 0.185777 0.353291 0.258686
O107  O     O_R   0.848938 0.167714 0.263882 -0.144478
O108  O     O_R   0.854801 0.169602 0.388277 -0.276358
S9    S     S_3+6 0.525616 0.349534 0.422012 0.162800
O109  O     O_2   0.580567 0.342828 0.418613 -0.245230
O110  O     O_2   0.468288 0.381752 0.332902 -0.110029
O111  O     O_3   0.562075 0.381995 0.528326 -0.456526
H45   H     H_    0.543116 0.416589 0.506537 0.444555
S10   S     S_3+6 0.494409 0.669837 0.360274 0.154199
O112  O     O_2   0.434097 0.660747 0.247725 -0.074116
O113  O     O_2   0.561604 0.669549 0.383192 -0.268068
O114  O     O_3   0.496996 0.620408 0.419528 -0.493576
H46   H     H_    0.493439 0.590261 0.383998 0.441880
S11   S     S_3+6 0.986426 0.817899 0.338621 0.130309
O115  O     O_2   0.053134 0.818330 0.360023 -0.295661
O116  O     O_2   0.925502 0.819770 0.224933 -0.116842
O117  O     O_3   0.984880 0.871467 0.386391 -0.468271
H47   H     H_    0.987661 0.898841 0.352942 0.445869
S12   S     S_3+6 0.984331 0.179501 0.335892 0.135790
O118  O     O_2   0.923115 0.177038 0.222188 -0.109121
O119  O     O_2   0.050920 0.179706 0.356961 -0.288758
O120  O     O_3   0.982679 0.125922 0.382272 -0.478615
H48   H     H_    0.985667 0.098536 0.348410 0.444055
N17   N     N_R   0.385374 0.178288 0.347730 0.242445
O121  O     O_R   0.390708 0.164519 0.284946 -0.268359
O122  O     O_R   0.325002 0.167398 0.318733 -0.223871
N18   N     N_R   0.435282 0.848504 0.466189 0.233207
O123  O     O_R   0.446444 0.880032 0.424554 -0.311470
O124  O     O_R   0.390438 0.863271 0.471304 -0.263596
N19   N     N_R   0.943082 0.649452 0.477657 0.222444
O125  O     O_R   0.962540 0.613945 0.451929 -0.246551
O126  O     O_R   0.893642 0.637046 0.474837 -0.271259
N20   N     N_R   0.946208 0.349744 0.488350 0.263389
O127  O     O_R   0.963248 0.385108 0.459575 -0.204643
O128  O     O_R   0.900804 0.362153 0.493660 -0.297933
S13   S     S_3+6 0.453331 0.136663 0.525940 0.164951
O129  O     O_2   0.525374 0.127712 0.630424 -0.121190
O130  O     O_2   0.402561 0.142872 0.537835 -0.282609
O131  O     O_3   0.429789 0.083703 0.457025 -0.398553
H49   H     H_    0.378733 0.078101 0.417317 0.401139
S14   S     S_3+6 0.524720 0.829220 0.662422 0.153926
O132  O     O_2   0.481894 0.806998 0.680930 -0.281495
O133  O     O_2   0.600657 0.813651 0.748133 -0.166951
O134  O     O_3   0.522530 0.892322 0.672006 -0.343621
H50   H     H_    0.514111 0.907518 0.615550 0.405311
S15   S     S_3+6 0.024594 0.678265 0.667671 0.177196
O135  O     O_2   0.089874 0.707634 0.753812 -0.145531
O136  O     O_2   0.967624 0.688286 0.666452 -0.254550
O137  O     O_3   0.045896 0.617121 0.697884 -0.331799
H51   H     H_    0.020657 0.598325 0.633943 0.414065
S16   S     S_3+6 0.033968 0.317335 0.676941 0.161765
O138  O     O_2   0.107465 0.295757 0.755050 -0.145750
O139  O     O_2   0.040010 0.373141 0.696559 -0.102319
O140  O     O_3   0.985953 0.293025 0.697877 -0.523404
H52   H     H_    0.944480 0.315325 0.662506 0.354201
N21   N     N_R   0.571545 0.153979 0.544936 0.264086
O141  O     O_R   0.556332 0.107095 0.515288 -0.164080
O142  O     O_R   0.633497 0.164454 0.633872 -0.224060
N22   N     N_R   0.614423 0.832509 0.617971 0.295711
O143  O     O_R   0.610529 0.879431 0.634304 -0.210471
O144  O     O_R   0.674659 0.818529 0.649945 -0.260277
N23   N     N_R   0.121592 0.675665 0.634883 0.290469
O145  O     O_R   0.122791 0.629427 0.658498 -0.190238
O146  O     O_R   0.180224 0.691898 0.664137 -0.261496
N24   N     N_R   0.120747 0.327414 0.629212 0.290287
O147  O     O_R   0.119083 0.372938 0.654255 -0.159498
O148  O     O_R   0.179112 0.315368 0.653558 -0.310593
S17   S     S_3+6 0.339346 0.292270 0.296843 0.192121
O149  O     O_2   0.318555 0.250974 0.224037 -0.093168
O150  O     O_2   0.291599 0.289495 0.314096 -0.292485
O151  O     O_3   0.321765 0.346465 0.235881 -0.359560
H53   H     H_    0.285024 0.363758 0.228800 0.440423
S18   S     S_3+6 0.337032 0.760702 0.281866 0.197224
O152  O     O_2   0.278810 0.739858 0.270759 -0.190370
O153  O     O_2   0.334779 0.816910 0.284997 -0.150147
O154  O     O_3   0.319201 0.743604 0.177358 -0.393599
H54   H     H_    0.280600 0.766154 0.123104 0.430658
S19   S     S_3+6 0.838429 0.721170 0.278143 0.200587
O155  O     O_2   0.842587 0.665271 0.290387 -0.138717
O156  O     O_2   0.776855 0.738786 0.261126 -0.166226
O157  O     O_3   0.819707 0.732956 0.171587 -0.417131
H55   H     H_    0.776984 0.712232 0.117863 0.423919
S20   S     S_3+6 0.838043 0.274796 0.280476 0.188704
O158  O     O_2   0.775627 0.256057 0.260557 -0.164309
O159  O     O_2   0.843319 0.330487 0.298505 -0.179861
O160  O     O_3   0.819993 0.263563 0.173782 -0.396685
H56   H     H_    0.819365 0.296894 0.149457 0.407219
N25   N     N_R   0.452827 0.269694 0.305453 0.240574
O161  O     O_R   0.409740 0.299861 0.229137 -0.171257
O162  O     O_R   0.474457 0.231971 0.287758 -0.343196
N26   N     N_R   0.463535 0.767945 0.315316 0.250536
O163  O     O_R   0.470711 0.754563 0.254368 -0.245746
O164  O     O_R   0.442393 0.813730 0.305714 -0.295993
N27   N     N_R   0.966330 0.717558 0.317479 0.249658
O165  O     O_R   0.968069 0.727063 0.249653 -0.282998
O166  O     O_R   0.953924 0.670961 0.321935 -0.292487
N28   N     N_R   0.964765 0.279469 0.316527 0.225935
O167  O     O_R   0.968545 0.269728 0.250631 -0.311374
O168  O     O_R   0.950009 0.325756 0.319024 -0.332774
N29   N     N_R   0.305121 0.049749 0.684557 0.253271
O169  O     O_R   0.298719 0.085768 0.726359 -0.191693
O170  O     O_R   0.367096 0.028888 0.741353 -0.221767
N30   N     N_R   0.291092 0.950728 0.681841 0.267711
O171  O     O_R   0.340683 0.918612 0.716007 -0.239870
O172  O     O_R   0.283009 0.962826 0.742309 -0.195846
N31   N     N_R   0.797290 0.553167 0.675391 0.258379
O173  O     O_R   0.783966 0.582698 0.717568 -0.170932
O174  O     O_R   0.863022 0.540682 0.730343 -0.231958
N32   N     N_R   0.800622 0.455095 0.686342 0.267573
O175  O     O_R   0.798138 0.470982 0.751337 -0.187078
O176  O     O_R   0.839512 0.415868 0.713621 -0.248344
N33   N     N_R   0.179527 0.048969 0.563533 0.256061
O177  O     O_R   0.148943 0.091754 0.521591 -0.273162
O178  O     O_R   0.172062 0.031289 0.621762 -0.190712
N34   N     N_R   0.168380 0.948255 0.533569 0.242549
O179  O     O_R   0.107723 0.969749 0.462722 -0.278738
O180  O     O_R   0.167693 0.909366 0.575681 -0.225403
N35   N     N_R   0.671692 0.546705 0.545255 0.248425
O181  O     O_R   0.642361 0.589579 0.502226 -0.275076
O182  O     O_R   0.659688 0.529490 0.598559 -0.215438
N36   N     N_R   0.677355 0.445090 0.546896 0.244694
O183  O     O_R   0.612919 0.455166 0.463511 -0.265949
O184  O     O_R   0.685137 0.413509 0.607926 -0.195666
N37   N     N_R   0.384234 0.057560 0.617995 0.298210
O185  O     O_R   0.387268 0.097401 0.662684 -0.268441
O186  O     O_R   0.439453 0.047678 0.632484 -0.189046
N38   N     N_R   0.386745 0.949360 0.640700 0.286125
O187  O     O_R   0.436221 0.975040 0.723239 -0.135006
O188  O     O_R   0.400488 0.902734 0.637749 -0.274909
N39   N     N_R   0.884637 0.556536 0.609640 0.301227
O189  O     O_R   0.887723 0.600094 0.645463 -0.282177
O190  O     O_R   0.939379 0.542992 0.625382 -0.238671
N40   N     N_R   0.887756 0.450314 0.643271 0.292361
O191  O     O_R   0.931920 0.477743 0.725183 -0.162921
O192  O     O_R   0.906047 0.404208 0.646895 -0.343897
N41   N     N_R   0.168736 0.051561 0.305147 0.263165
O193  O     O_R   0.221402 0.062614 0.314375 -0.316182
O194  O     O_R   0.105368 0.048690 0.213698 -0.171418
N42   N     N_R   0.201733 0.957111 0.319795 0.231135
O195  O     O_R   0.253661 0.929462 0.347931 -0.292735
O196  O     O_R   0.154200 0.966516 0.223150 -0.211539
N43   N     N_R   0.676336 0.546307 0.300798 0.249429
O197  O     O_R   0.725348 0.573006 0.317713 -0.258704
O198  O     O_R   0.623274 0.531183 0.207635 -0.156349
N44   N     N_R   0.706119 0.450109 0.325865 0.235709
O199  O     O_R   0.752991 0.472900 0.331901 -0.296934
O200  O     O_R   0.668816 0.414757 0.256844 -0.199633
N45   N     N_R   0.111444 0.046900 0.359672 0.242054
O201  O     O_R   0.099768 0.095083 0.346401 -0.281742
O202  O     O_R   0.054948 0.019399 0.313143 -0.206425
N46   N     N_R   0.116771 0.940959 0.328024 0.267072
O203  O     O_R   0.062726 0.949580 0.231801 -0.143706
O204  O     O_R   0.112972 0.900269 0.362721 -0.327883
N47   N     N_R   0.612643 0.546720 0.347004 0.253297
O205  O     O_R   0.596690 0.593330 0.320795 -0.302667
O206  O     O_R   0.567200 0.520377 0.338917 -0.209248
N48   N     N_R   0.616922 0.442383 0.326503 0.278682
O207  O     O_R   0.563303 0.456874 0.233678 -0.174513
O208  O     O_R   0.613789 0.396020 0.344525 -0.317546
S21   S     S_3+6 0.517028 0.142775 0.092142 0.168367
O209  O     O_2   0.458496 0.107926 0.008442 -0.117522
O210  O     O_2   0.584014 0.127422 0.121345 -0.153578
O211  O     O_3   0.522500 0.136164 0.187823 -0.447475
H57   H     H_    0.573797 0.135381 0.249093 0.411371
S22   S     S_3+6 0.648527 0.812535 0.105287 0.161662
O212  O     O_2   0.700630 0.815616 0.218834 -0.199200
O213  O     O_2   0.676524 0.778815 0.073968 -0.152179
O214  O     O_3   0.640818 0.870774 0.063423 -0.418941
H58   H     H_    0.619996 0.865865 0.993564 0.409304
S23   S     S_3+6 0.113419 0.657572 0.094180 0.173350
O215  O     O_2   0.126824 0.660371 0.026753 -0.135534
O216  O     O_2   0.180021 0.671909 0.199583 -0.187866
O217  O     O_3   0.091569 0.597581 0.090910 -0.423332
H59   H     H_    0.052555 0.588901 0.017879 0.395862
S24   S     S_3+6 0.116890 0.341387 0.103973 0.148443
O218  O     O_2   0.176221 0.333664 0.215361 -0.194291
O219  O     O_2   0.144329 0.333043 0.055394 -0.169048
O220  O     O_3   0.088337 0.401036 0.081938 -0.453634
H60   H     H_    0.097793 0.416296 0.043202 0.412400
S25   S     S_3+6 0.330719 0.433602 0.454615 0.185795
O221  O     O_2   0.349185 0.458011 0.401867 -0.122122
O222  O     O_2   0.399515 0.424300 0.560513 -0.139766
O223  O     O_3   0.296895 0.376634 0.399092 -0.491136
H61   H     H_    0.331795 0.351942 0.450698 0.379438
S26   S     S_3+6 0.366634 0.549131 0.507354 0.208034
O224  O     O_2   0.393909 0.598867 0.560876 -0.137541
O225  O     O_2   0.425524 0.513136 0.579577 -0.152775
O226  O     O_3   0.365198 0.554351 0.414254 -0.365147
H62   H     H_    0.415558 0.553843 0.448435 0.426165
S27   S     S_3+6 0.803225 0.930811 0.405706 0.204414
O227  O     O_2   0.882210 0.933305 0.487128 -0.088419
O228  O     O_2   0.782991 0.876585 0.394862 -0.275630
O229  O     O_3   0.787981 0.944754 0.302534 -0.375836
H63   H     H_    0.786477 0.912169 0.274421 0.442689
S28   S     S_3+6 0.849955 0.044525 0.475817 0.194225
O230  O     O_2   0.866845 0.099025 0.503660 -0.159689
O231  O     O_2   0.913382 0.015764 0.563025 -0.167726
O232  O     O_3   0.847381 0.035330 0.382383 -0.375495
H64   H     H_    0.896209 0.042478 0.413347 0.431389
N49   N     N_R   0.272712 0.447930 0.666372 0.237681
O233  O     O_R   0.280116 0.399621 0.682388 -0.278053
O234  O     O_R   0.260302 0.472961 0.713528 -0.163866
N50   N     N_R   0.296553 0.555475 0.689175 0.277481
O235  O     O_R   0.341756 0.543664 0.784906 -0.132307
O236  O     O_R   0.271587 0.600853 0.669847 -0.272442
N51   N     N_R   0.800801 0.945686 0.683816 0.242370
O237  O     O_R   0.810165 0.897379 0.700447 -0.251465
O238  O     O_R   0.798861 0.970575 0.742823 -0.155564
N52   N     N_R   0.827671 0.052059 0.707059 0.271107
O239  O     O_R   0.881407 0.038445 0.800620 -0.156012
O240  O     O_R   0.807775 0.098157 0.697698 -0.254080
N53   N     N_R   0.374768 0.451167 0.704054 0.284139
O241  O     O_R   0.405728 0.418925 0.693152 -0.181473
O242  O     O_R   0.409871 0.463396 0.798014 -0.150324
N54   N     N_R   0.379787 0.551040 0.679355 0.257341
O243  O     O_R   0.433680 0.523108 0.716118 -0.186436
O244  O     O_R   0.398616 0.595183 0.722254 -0.195880
N55   N     N_R   0.883148 0.944774 0.675749 0.272079
O245  O     O_R   0.905132 0.931823 0.634036 -0.208498
O246  O     O_R   0.929245 0.942417 0.774624 -0.150394
N56   N     N_R   0.895488 0.047260 0.671214 0.271881
O247  O     O_R   0.952196 0.019816 0.730579 -0.169729
O248  O     O_R   0.914036 0.094250 0.694105 -0.181036
S29   S     S_3+6 0.189787 0.453910 0.295691 0.177754
O249  O     O_2   0.218827 0.447716 0.248433 -0.162674
O250  O     O_2   0.160683 0.403650 0.287198 -0.190301
O251  O     O_3   0.123129 0.494054 0.217999 -0.409976
H65   H     H_    0.105976 0.489579 0.150268 0.426712
S30   S     S_3+6 0.226244 0.570898 0.333754 0.200324
O252  O     O_2   0.227898 0.548402 0.259968 -0.078898
O253  O     O_2   0.151313 0.583244 0.277892 -0.203251
O254  O     O_3   0.268668 0.626706 0.370571 -0.421851
H66   H     H_    0.239935 0.651746 0.368872 0.323108
S31   S     S_3+6 0.661285 0.952828 0.275492 0.173954
O255  O     O_2   0.665865 0.968419 0.201928 -0.116803
O256  O     O_2   0.651777 0.896715 0.261578 -0.230918
O257  O     O_3   0.584396 0.977738 0.224527 -0.414775
H67   H     H_    0.548775 0.964998 0.153468 0.428492
S32   S     S_3+6 0.709311 0.067716 0.316311 0.193724
O258  O     O_2   0.717385 0.053013 0.245637 -0.035945
O259  O     O_2   0.632952 0.064530 0.258115 -0.223259
O260  O     O_3   0.735053 0.128550 0.345188 -0.490114
H68   H     H_    0.691645 0.148038 0.312124 0.362057
S33   S     S_3+6 0.071655 0.437433 0.319526 0.226991
O261  O     O_2   0.008820 0.458453 0.297103 -0.126431
O262  O     O_2   0.050847 0.440702 0.220580 -0.154700
O263  O     O_3   0.063814 0.375943 0.331846 -0.421066
H69   H     H_    0.020085 0.364047 0.263223 0.399849
S34   S     S_3+6 0.074845 0.557786 0.325761 0.223039
O264  O     O_2   0.045085 0.533586 0.229153 -0.142487
O265  O     O_2   0.021108 0.549714 0.332006 -0.137804
O266  O     O_3   0.066897 0.619868 0.302546 -0.421002
H70   H     H_    0.015867 0.625303 0.241143 0.399912
S35   S     S_3+6 0.576608 0.933934 0.351583 0.219632
O267  O     O_2   0.513148 0.965842 0.273685 -0.149779
O268  O     O_2   0.574847 0.895868 0.289630 -0.166883
O269  O     O_3   0.549145 0.898477 0.394929 -0.436539
H71   H     H_    0.508983 0.916768 0.377574 0.430167
S36   S     S_3+6 0.584436 0.057440 0.374316 0.190151
O270  O     O_2   0.548092 0.047880 0.267369 -0.128472
O271  O     O_2   0.539220 0.034462 0.388206 -0.159554
O272  O     O_3   0.574768 0.119278 0.381465 -0.466196
H72   H     H_    0.522705 0.124769 0.329803 0.411848
N57   N     N_R   0.142472 0.448642 0.504363 0.247663
O273  O     O_R   0.088337 0.467007 0.486244 -0.169178
O274  O     O_R   0.152294 0.401174 0.527144 -0.269355
N58   N     N_R   0.155401 0.555112 0.518627 0.242149
O275  O     O_R   0.135857 0.601929 0.506235 -0.255706
O276  O     O_R   0.168640 0.532972 0.592760 -0.210960
N59   N     N_R   0.666300 0.947419 0.542318 0.242680
O277  O     O_R   0.617773 0.965133 0.538119 -0.202805
O278  O     O_R   0.679905 0.900105 0.566051 -0.272553
N60   N     N_R   0.686009 0.053040 0.564111 0.245481
O279  O     O_R   0.678612 0.101393 0.565692 -0.235215
O280  O     O_R   0.702920 0.029439 0.639665 -0.188223
N61   N     N_R   0.540706 0.277575 0.886310 0.270545
O281  O     O_R   0.514099 0.322121 0.851444 -0.202633
O282  O     O_R   0.593267 0.264776 0.896335 -0.171703
N62   N     N_R   0.434765 0.652841 0.891843 0.257648
O283  O     O_R   0.458129 0.606820 0.914543 -0.153855
O284  O     O_R   0.366540 0.659346 0.825154 -0.255176
N63   N     N_R   0.982056 0.840801 0.886515 0.259991
O285  O     O_R   0.932566 0.861986 0.875579 -0.211013
O286  O     O_R   0.999776 0.862208 0.843115 -0.175871
N64   N     N_R   0.986717 0.156400 0.890640 0.265451
O287  O     O_R   0.029029 0.124849 0.899948 -0.210029
O288  O     O_R   0.922285 0.141915 0.838537 -0.224957
N65   N     N_R   0.522582 0.192995 0.900156 0.206354
O289  O     O_R   0.552386 0.154456 0.959781 -0.222202
O290  O     O_R   0.481585 0.183818 0.803640 -0.268796
N66   N     N_R   0.525537 0.686795 0.905960 0.221112
O291  O     O_R   0.506356 0.651097 0.842136 -0.157774
O292  O     O_R   0.584071 0.710202 0.947615 -0.299917
N67   N     N_R   0.049575 0.773835 0.904136 0.235470
O293  O     O_R   0.101220 0.801303 0.929033 -0.219894
O294  O     O_R   0.019354 0.743265 0.827728 -0.302174
N68   N     N_R   0.045371 0.225719 0.896880 0.209578
O295  O     O_R   0.024743 0.206560 0.814186 -0.189950
O296  O     O_R   0.100092 0.255666 0.948812 -0.238799
N69   N     N_R   0.645049 0.215562 0.099643 0.270217
O297  O     O_R   0.675412 0.192946 0.183636 -0.309598
O298  O     O_R   0.673101 0.209544 0.063163 -0.137327
N70   N     N_R   0.605240 0.667765 0.099497 0.240209
O299  O     O_R   0.660266 0.693289 0.133047 -0.225170
O300  O     O_R   0.603449 0.620244 0.079857 -0.176642
N71   N     N_R   0.142224 0.791337 0.103716 0.231031
O301  O     O_R   0.162426 0.751369 0.089009 -0.256870
O302  O     O_R   0.188359 0.827915 0.155818 -0.250600
N72   N     N_R   0.141613 0.204774 0.098219 0.263675
O303  O     O_R   0.184153 0.242398 0.152336 -0.220718
O304  O     O_R   0.161833 0.170821 0.071227 -0.171538

loop_
_geom_bond_atom_site_label_1
_geom_bond_atom_site_label_2
_geom_bond_distance
_ccdc_geom_bond_type
C54   N70   1.484818 S    
N35   O181  1.296920 A    
C119  N55   1.477669 S    
Zn5   O21   1.974299 S    
N45   O201  1.301267 A    
S7    O95   1.496009 D    
O23   C19   1.304515 A    
S19   O157  1.684176 S    
C33   C49   1.570145 S    
H10   C34   1.105656 S    
C21   C41   1.529463 S    
N17   O121  1.302517 A    
S28   O230  1.491851 D    
S5    O91   1.682366 S    
S34   O266  1.683548 S    
C115  N59   1.487733 S    
C23   C43   1.519050 S    
C68   S20   1.838433 S    
C19   C46   1.528320 S    
S4    O71   1.501058 D    
O91   H41   0.990766 S    
N27   O166  1.297688 A    
C62   H26   1.092377 S    
O42   C14   1.292955 A    
C27   H3    1.090866 S    
S21   O211  1.669773 S    
C95   C103  1.608488 S    
N72   O303  1.291688 A    
C61   C77   1.601636 S    
C93   C101  1.600761 S    
S36   O270  1.486870 D    
O46   C2    1.299928 A    
N7    O78   1.301947 A    
N56   O247  1.297864 A    
N61   O281  1.299186 A    
S16   O138  1.503275 D    
S17   O151  1.687523 S    
Zn4   O12   1.968387 S    
C58   H22   1.090800 S    
O34   C22   1.304582 A    
C119  C120  1.666421 S    
C59   C75   1.610004 S    
N10   O83   1.302074 A    
S27   O228  1.498164 D    
C37   N65   1.497099 S    
S2    O65   1.497330 D    
Zn3   O3    2.007045 S    
O117  H47   0.990547 S    
N44   O200  1.302453 A    
C96   C104  1.584755 S    
C59   C63   1.540171 S    
Zn16  O28   1.998779 S    
C111  S27   1.900468 S    
O28   C24   1.323234 A    
C16   C104  1.525320 S    
C26   C42   1.580477 S    
C55   S3    1.872259 S    
C99   C100  1.633049 S    
H13   C49   1.114300 S    
O66   H38   0.984462 S    
Zn4   O40   1.999414 S    
C119  N51   1.508024 S    
C46   C50   1.580099 S    
N4    O60   1.300313 A    
O11   C7    1.315252 A    
Zn13  O25   1.990545 S    
N22   O143  1.300011 A    
C69   C73   1.634023 S    
N16   O108  1.297992 A    
S2    O66   1.677157 S    
N47   O205  1.292262 A    
C67   S19   1.848727 S    
C36   N8    1.474272 S    
S20   O159  1.498497 D    
C25   C29   1.535231 S    
H12   C36   1.103718 S    
C113  N57   1.499785 S    
N20   O127  1.303054 A    
C71   C75   1.650345 S    
C108  C116  1.735846 S    
S21   O209  1.504033 D    
C92   N36   1.490638 S    
C105  C109  1.693857 S    
O111  H45   0.990470 S    
Zn15  O3    1.991230 S    
C111  C112  1.639078 S    
O16   C12   1.332235 A    
S15   O135  1.498352 D    
C58   C62   1.542034 S    
Zn16  O4    1.974204 S    
C107  C119  1.704004 S    
N50   O235  1.303425 A    
Zn12  O4    1.991379 S    
C22   C42   1.523423 S    
Zn13  O5    1.984601 S    
Zn2   O10   1.968387 S    
C4    C77   1.503797 S    
O251  H65   0.990005 S    
S13   O131  1.685634 S    
N68   O296  1.296130 A    
C87   N23   1.478619 S    
C45   C49   1.561865 S    
S12   O119  1.500493 D    
S8    O98   1.502433 D    
Zn6   O14   2.007491 S    
O47   C3    1.314599 A    
S21   O210  1.491754 D    
Zn7   O3    2.022987 S    
S29   O250  1.489904 D    
S33   O263  1.683380 S    
N28   O168  1.298885 A    
C89   C101  1.650539 S    
C65   C81   1.629249 S    
S19   O155  1.496622 D    
C46   C54   1.619229 S    
O260  H68   0.986555 S    
N38   O187  1.298802 A    
C79   C87   1.591836 S    
S3    O69   1.688015 S    
C80   C88   1.591634 S    
S34   O264  1.489427 D    
Zn15  O43   1.996321 S    
C92   C104  1.633360 S    
S6    O94   1.682177 S    
C30   C46   1.598057 S    
O43   C15   1.299635 A    
N18   O123  1.301268 A    
C39   N63   1.486944 S    
C97   N45   1.496217 S    
N52   O239  1.305606 A    
C114  S34   1.926853 S    
S36   O272  1.680098 S    
C2    C79   1.493602 S    
C105  C113  1.747698 S    
N42   O195  1.297677 A    
O24   C20   1.314623 A    
Zn11  O19   2.004731 S    
N21   O141  1.300950 A    
N58   O275  1.305198 A    
S6    O93   1.496823 D    
Zn6   O46   1.966627 S    
S22   O212  1.498929 D    
N49   O233  1.303301 A    
Zn10  O2    1.991379 S    
S32   O259  1.473404 D    
O131  H49   0.991079 S    
C40   N68   1.506197 S    
C53   S1    1.911659 S    
S14   O132  1.502001 D    
N36   O184  1.303226 A    
C66   N14   1.492056 S    
C95   C96   1.576101 S    
Zn4   O4    2.022986 S    
C25   N1    1.480748 S    
C45   C53   1.628527 S    
N66   O291  1.297733 A    
C26   C30   1.560443 S    
N48   O207  1.304419 A    
Zn7   O23   1.974299 S    
C31   H7    1.111098 S    
Zn8   O24   1.982675 S    
S11   O116  1.505324 D    
N29   O169  1.302964 A    
C112  S32   1.849329 S    
C59   N11   1.482806 S    
C89   N29   1.498060 S    
S4    O70   1.498569 D    
C81   N25   1.506441 S    
S3    O68   1.497156 D    
O25   C21   1.325110 A    
N33   O177  1.297196 A    
C106  C118  1.670359 S    
C94   H34   1.087129 S    
C117  N49   1.498148 S    
O29   C17   1.302903 A    
C70   C86   1.608171 S    
C78   C86   1.593335 S    
C99   N47   1.485877 S    
N69   O297  1.295399 A    
C114  N58   1.512191 S    
N65   O289  1.298062 A    
Zn12  O52   1.984555 S    
O39   C11   1.336231 A    
C117  C118  1.659807 S    
O22   C18   1.318711 A    
N30   O171  1.297239 A    
S7    O96   1.501876 D    
N62   O284  1.295517 A    
N39   O190  1.301117 A    
C48   C52   1.564684 S    
S9    O110  1.505268 D    
Zn13  O41   1.996321 S    
O50   C6    1.320896 A    
C39   C55   1.617985 S    
H11   C35   1.105840 S    
N5    O73   1.293293 A    
Zn16  O44   2.004778 S    
C97   N41   1.480888 S    
S35   O267  1.495455 D    
C8    C76   1.533932 S    
S33   O261  1.499889 D    
Zn1   O37   2.007444 S    
N24   O147  1.301434 A    
S10   O113  1.497634 D    
Zn2   O34   1.974342 S    
C94   N38   1.478243 S    
S8    O100  1.683044 S    
C115  S35   1.979966 S    
C98   C102  1.655322 S    
N31   O174  1.295539 A    
N44   O199  1.302111 A    
C118  N50   1.489705 S    
C10   C106  1.540750 S    
C116  S36   1.887615 S    
C34   C50   1.562729 S    
S28   O232  1.683530 S    
C83   N27   1.510743 S    
C12   C108  1.559191 S    
C65   C73   1.652898 S    
N25   O162  1.296370 A    
C51   H19   1.101186 S    
S1    O61   1.496350 D    
N41   O193  1.300465 A    
C20   C45   1.525291 S    
S24   O218  1.489303 D    
C27   C31   1.546373 S    
Zn9   O49   1.983267 S    
Zn10  O50   1.984555 S    
S26   O225  1.491612 D    
C93   H33   1.096321 S    
C62   C78   1.590758 S    
C63   H27   1.095161 S    
C64   H28   1.092213 S    
C81   S9    1.857371 S    
O211  H57   0.982904 S    
C90   C102  1.648458 S    
C53   N69   1.479665 S    
C113  C114  1.700020 S    
N22   O144  1.298182 A    
O5    C1    1.305257 A    
S35   O268  1.491048 D    
O31   C19   1.315126 A    
C96   H36   1.099954 S    
C59   H23   1.092822 S    
C37   C41   1.630529 S    
O254  H66   0.988501 S    
N53   O242  1.305955 A    
O114  H46   0.990551 S    
C39   C43   1.634787 S    
S31   O255  1.497702 D    
C100  C104  1.652899 S    
N70   O300  1.301686 A    
O94   H42   0.990655 S    
H14   C50   1.114271 S    
S31   O257  1.659827 S    
Zn5   O45   1.968343 S    
N71   O302  1.301328 A    
S25   O222  1.488439 D    
Zn7   O47   1.968343 S    
N60   O279  1.302185 A    
N8    O80   1.302382 A    
Zn8   O48   1.966627 S    
S4    O72   1.686912 S    
N34   O179  1.294742 A    
S15   O136  1.500166 D    
N54   O244  1.296645 A    
C93   C94   1.567348 S    
N15   O105  1.288358 A    
C67   C83   1.628482 S    
C68   C76   1.649898 S    
O51   C7    1.299812 A    
N51   O237  1.305044 A    
C25   H1    1.106467 S    
S16   O139  1.504696 D    
C65   N13   1.493264 S    
O8    C4    1.305980 A    
C108  C120  1.707688 S    
C91   C92   1.626337 S    
O269  H71   0.989858 S    
C31   S23   1.807449 S    
C69   N17   1.493908 S    
C60   H24   1.093252 S    
C29   S21   1.797676 S    
S12   O118  1.505460 D    
S19   O156  1.489174 D    
C90   N34   1.498604 S    
C70   C74   1.646591 S    
O52   C8    1.313961 A    
C107  C115  1.717969 S    
Zn1   O1    2.007045 S    
O40   C12   1.312772 A    
C3    C78   1.499933 S    
C91   N31   1.493630 S    
Zn14  O6    1.983313 S    
Zn3   O11   1.966670 S    
Zn15  O27   1.990545 S    
C83   S11   1.884732 S    
N25   O161  1.302145 A    
N6    O75   1.294156 A    
N72   O304  1.302384 A    
C95   N39   1.475472 S    
C109  S25   1.878817 S    
C28   H4    1.100766 S    
O63   H37   0.990780 S    
N1    O54   1.299657 A    
C60   N12   1.479278 S    
C62   S6    1.842555 S    
O9    C5    1.321939 A    
C97   C98   1.644766 S    
C66   C82   1.626565 S    
C47   C55   1.627338 S    
C77   C85   1.622912 S    
N43   O197  1.299530 A    
C80   C84   1.635273 S    
O13   C9    1.295532 A    
N10   O84   1.303028 A    
O266  H70   0.990998 S    
S1    O63   1.680003 S    
O220  H60   0.990507 S    
N12   O87   1.300250 A    
O151  H53   0.990158 S    
N60   O280  1.292833 A    
O18   C14   1.300610 A    
O38   C10   1.324077 A    
N40   O191  1.298998 A    
N9    O81   1.302708 A    
C33   C41   1.597604 S    
O6    C2    1.295174 A    
S16   O140  1.680263 S    
C35   C43   1.597391 S    
N13   O102  1.298240 A    
Zn9   O17   2.004731 S    
Zn9   O29   1.998881 S    
S18   O152  1.496216 D    
N45   O202  1.296925 A    
Zn11  O31   1.998881 S    
S23   O215  1.505167 D    
C56   S4    1.863805 S    
C69   S13   1.872754 S    
Zn12  O32   1.990641 S    
N2    O56   1.300163 A    
O134  H50   0.986906 S    
S23   O217  1.680011 S    
H9    C33   1.102109 S    
N7    O77   1.299626 A    
C109  C110  1.640273 S    
C11   C107  1.527852 S    
Zn11  O3    1.974352 S    
S30   O252  1.502900 D    
C40   N64   1.478447 S    
C27   N3    1.471584 S    
C98   N46   1.491589 S    
O97   H43   0.990629 S    
S17   O150  1.490221 D    
N20   O128  1.300916 A    
Zn5   O1    2.022987 S    
C26   H2    1.097094 S    
N23   O145  1.299427 A    
C94   C102  1.592565 S    
O223  H61   0.983808 S    
C28   C44   1.577267 S    
C92   N32   1.498933 S    
O257  H67   0.991468 S    
C86   H30   1.082335 S    
N57   O274  1.300372 A    
C37   N61   1.480011 S    
O35   C23   1.298495 A    
O17   C13   1.312122 A    
C111  S31   1.897897 S    
N37   O186  1.302439 A    
N50   O236  1.300427 A    
O140  H52   0.988315 S    
O32   C20   1.300934 A    
C112  S28   1.879152 S    
C67   C75   1.652601 S    
C78   C82   1.629395 S    
C99   N43   1.497197 S    
C68   C84   1.639233 S    
C26   N2    1.478051 S    
C40   C44   1.644567 S    
S8    O99   1.496022 D    
C113  S33   1.955640 S    
O272  H72   0.990577 S    
N39   O189  1.300045 A    
S29   O249  1.507544 D    
C99   C103  1.634520 S    
S33   O262  1.491704 D    
S12   O120  1.680921 S    
S24   O220  1.680458 S    
C55   N71   1.486082 S    
S28   O231  1.491013 D    
S34   O265  1.504854 D    
N17   O122  1.300936 A    
Zn14  O42   2.004778 S    
C34   N6    1.469932 S    
C57   C73   1.604884 S    
C96   N40   1.479043 S    
N59   O277  1.306245 A    
O7    C3    1.302565 A    
C105  C117  1.709759 S    
C38   C54   1.601309 S    
C15   C103  1.546682 S    
Zn2   O38   1.999414 S    
C115  C116  1.698283 S    
N9    O82   1.297829 A    
O19   C15   1.300148 A    
N26   O163  1.302875 A    
C13   C101  1.537795 S    
S14   O134  1.689249 S    
O69   H39   0.988185 S    
C35   C51   1.565712 S    
S11   O115  1.500251 D    
C36   C52   1.562046 S    
N42   O196  1.300006 A    
O37   C9    1.342431 A    
O100  H44   0.990578 S    
O214  H58   0.990376 S    
C87   H31   1.083615 S    
N38   O188  1.301011 A    
N35   O182  1.304090 A    
S22   O213  1.499094 D    
N19   O125  1.303473 A    
C66   C74   1.645629 S    
S27   O229  1.685163 S    
N6    O76   1.302734 A    
S2    O64   1.498990 D    
N3    O58   1.297512 A    
S14   O133  1.501601 D    
C70   N18   1.489614 S    
N18   O124  1.301675 A    
C110  S26   1.921061 S    
N66   O292  1.296553 A    
N48   O208  1.295591 A    
S30   O254  1.681326 S    
O36   C24   1.287991 A    
S35   O269  1.687473 S    
S5    O90   1.493727 D    
N4    O59   1.300589 A    
C72   N20   1.488597 S    
N67   O294  1.298447 A    
O12   C8    1.319225 A    
C32   H8    1.113824 S    
O263  H69   0.990754 S    
S22   O214  1.682337 S    
C14   C102  1.534655 S    
O154  H54   0.990329 S    
C63   C79   1.588490 S    
N55   O246  1.305482 A    
N16   O107  1.301658 A    
C64   C80   1.586573 S    
Zn3   O35   1.982724 S    
C71   S15   1.867122 S    
C31   C47   1.602526 S    
C40   C56   1.613352 S    
N32   O176  1.293385 A    
N13   O101  1.294128 A    
S20   O158  1.489429 D    
N51   O238  1.294386 A    
N52   O240  1.296062 A    
O160  H56   0.990241 S    
C36   C44   1.594641 S    
O157  H55   0.990582 S    
H16   C52   1.113959 S    
Zn13  O1    1.991230 S    
C48   C56   1.625552 S    
C49   H17   1.105965 S    
S18   O154  1.684746 S    
C66   S18   1.839734 S    
C70   S14   1.875351 S    
N30   O172  1.303616 A    
C110  S30   1.863067 S    
C52   H20   1.104564 S    
S9    O109  1.493672 D    
C116  N60   1.508793 S    
C58   N10   1.480858 S    
C32   S24   1.797572 S    
C61   H25   1.084873 S    
C89   C90   1.635245 S    
C25   C41   1.570578 S    
C98   N42   1.521755 S    
C27   C43   1.569623 S    
C72   C76   1.645893 S    
C68   N16   1.497409 S    
N46   O203  1.303719 A    
O217  H59   0.990191 S    
C32   C48   1.587153 S    
S29   O251  1.666636 S    
N71   O301  1.293642 A    
C28   N4    1.470851 S    
N28   O167  1.303602 A    
C120  N52   1.480307 S    
C60   C64   1.536632 S    
C88   N24   1.484982 S    
C57   H21   1.091244 S    
N55   O245  1.282264 A    
N58   O276  1.293732 A    
N43   O198  1.301604 A    
C107  C111  1.707426 S    
N12   O88   1.302787 A    
Zn2   O2    2.022986 S    
Zn14  O2    1.974204 S    
N59   O278  1.300103 A    
N27   O165  1.303445 A    
O120  H48   0.990439 S    
S24   O219  1.499337 D    
C71   N19   1.487520 S    
O232  H64   0.990154 S    
C91   C103  1.650443 S    
S26   O226  1.689107 S    
Zn8   O4    2.007044 S    
H15   C51   1.113962 S    
Zn4   O36   1.974342 S    
O21   C17   1.316547 A    
S32   O258  1.500392 D    
N11   O86   1.302997 A    
C82   N26   1.506442 S    
C47   C51   1.560577 S    
N21   O142  1.295171 A    
C17   C48   1.534511 S    
S6    O92   1.502886 D    
C18   C47   1.534306 S    
C50   H18   1.098303 S    
C37   C53   1.621198 S    
S27   O227  1.486452 D    
S1    O62   1.493944 D    
O49   C5    1.290561 A    
C90   N30   1.497920 S    
C57   N9    1.457125 S    
O226  H62   0.990478 S    
N41   O194  1.301926 A    
N36   O183  1.292889 A    
O10   C6    1.312264 A    
C35   N7    1.470597 S    
C108  C112  1.688832 S    
N40   O192  1.300441 A    
S36   O271  1.504372 D    
N23   O146  1.296205 A    
Zn10  O30   1.990641 S    
O26   C22   1.308476 A    
S31   O256  1.501522 D    
C97   C101  1.630984 S    
C1    C80   1.497459 S    
Zn12  O20   1.996279 S    
C120  N56   1.529148 S    
S25   O221  1.501407 D    
N64   O287  1.303121 A    
C91   N35   1.496570 S    
C54   S2    1.877857 S    
O229  H63   0.990302 S    
Zn14  O26   1.998779 S    
C57   C61   1.521824 S    
N34   O180  1.303301 A    
Zn16  O8    1.983313 S    
Zn1   O9    1.966670 S    
N57   O273  1.305586 A    
Zn3   O39   2.007444 S    
S20   O160  1.686791 S    
C24   C44   1.519311 S    
N69   O298  1.302254 A    
N56   O248  1.295292 A    
Zn11  O51   1.983267 S    
Zn5   O13   1.999455 S    
N65   O290  1.300966 A    
C29   H5    1.111702 S    
Zn6   O2    2.007044 S    
C71   C87   1.606442 S    
Zn7   O15   1.999455 S    
C30   S22   1.800411 S    
C61   S5    1.836752 S    
Zn8   O16   2.007491 S    
S7    O97   1.682172 S    
N62   O283  1.302576 A    
N26   O164  1.298060 A    
N49   O234  1.295158 A    
N67   O293  1.305613 A    
N63   O286  1.302193 A    
C85   H29   1.078486 S    
C118  N54   1.512509 S    
S9    O111  1.684194 S    
C79   C83   1.637457 S    
C72   C88   1.603562 S    
S5    O89   1.504574 D    
C106  C110  1.673522 S    
O27   C23   1.312823 A    
C88   H32   1.079480 S    
N14   O104  1.289882 A    
N5    O74   1.302843 A    
C38   C42   1.624941 S    
C56   N72   1.479507 S    
S10   O112  1.505375 D    
C33   N5    1.466079 S    
N31   O173  1.304218 A    
C77   C81   1.632716 S    
Zn6   O22   1.982675 S    
N1    O53   1.302039 A    
Zn10  O18   1.996279 S    
N68   O295  1.302921 A    
C65   S17   1.853640 S    
S17   O149  1.498511 D    
C93   N37   1.478675 S    
S10   O114  1.683503 S    
Zn9   O1    1.974352 S    
N14   O103  1.303650 A    
N19   O126  1.301647 A    
N11   O85   1.300464 A    
C38   N66   1.506149 S    
C89   N33   1.498571 S    
C58   C74   1.623251 S    
C7    C75   1.537566 S    
O41   C13   1.281926 A    
N29   O170  1.296842 A    
C100  N44   1.510711 S    
O72   H40   0.990800 S    
N46   O204  1.297900 A    
C84   N28   1.511877 S    
N32   O175  1.305087 A    
N53   O241  1.285861 A    
O45   C1    1.311201 A    
S26   O224  1.490289 D    
S18   O153  1.496666 D    
C63   S7    1.839804 S    
S32   O260  1.683830 S    
C64   S8    1.826305 S    
O33   C21   1.292810 A    
S30   O253  1.487749 D    
S3    O67   1.499003 D    
S23   O216  1.488884 D    
O15   C11   1.292900 A    
C84   S12   1.882191 S    
C9    C105  1.549416 S    
C72   S16   1.865579 S    
N64   O288  1.287029 A    
C106  C114  1.743977 S    
S11   O117  1.679935 S    
C69   C85   1.610474 S    
C28   C32   1.543078 S    
N15   O106  1.302340 A    
C86   N22   1.479231 S    
O44   C16   1.290152 A    
S13   O130  1.498588 D    
N61   O282  1.300902 A    
Zn1   O33   1.982724 S    
O20   C16   1.299075 A    
Zn15  O7    1.984601 S    
N70   O299  1.293454 A    
C60   C76   1.605140 S    
N24   O148  1.299827 A    
C30   H6    1.109678 S    
O48   C4    1.295446 A    
C67   N15   1.487912 S    
O137  H51   0.986032 S    
C82   S10   1.880426 S    
S25   O223  1.682106 S    
C109  S29   1.857415 S    
C6    C74   1.534713 S    
N8    O79   1.298630 A    
N2    O55   1.302292 A    
N63   O285  1.294667 A    
O14   C10   1.311674 A    
S15   O137  1.685987 S    
N54   O243  1.296225 A    
C95   H35   1.093691 S    
N33   O178  1.303895 A    
N37   O185  1.301006 A    
C38   N62   1.481537 S    
N3    O57   1.302202 A    
N47   O206  1.296451 A    
C39   N67   1.508047 S    
C34   C42   1.599360 S    
S13   O129  1.504016 D    
C5    C73   1.530530 S    
C100  N48   1.486681 S    
C85   N21   1.471792 S    
C29   C45   1.602973 S    
O30   C18   1.302020 A    
C117  N53   1.493824 S    
