data_mof_unit_46881.cif
_audit_creation_date              2013-03-05T15:55:55-0500
_audit_creation_method            fapswitch 2.2
_symmetry_space_group_name_H-M    P1
_symmetry_Int_Tables_number       1
_space_group_crystal_system       triclinic
_cell_length_a                    21.627942
_cell_length_b                    7.1795
_cell_length_c                    14.882531
_cell_angle_alpha                 90.375942
_cell_angle_beta                  106.802119
_cell_angle_gamma                 90.111955
_cell_volume                      2212.20507449

loop_
_atom_site_label
_atom_site_type_symbol
_atom_site_description
_atom_site_fract_x
_atom_site_fract_y
_atom_site_fract_z
_atom_type_partial_charge
O1    O     O_R   0.335860 0.638190 0.002110 -0.591856
O2    O     O_R   0.664140 0.361810 0.997890 -0.598741
O3    O     O_R   0.164140 0.138190 0.997890 -0.596298
O4    O     O_R   0.835860 0.861810 0.002110 -0.597470
O5    O     O_R   0.217530 0.305920 0.861960 -0.579836
O6    O     O_R   0.782470 0.694080 0.138040 -0.580347
O7    O     O_R   0.282470 0.805920 0.138040 -0.572380
O8    O     O_R   0.717530 0.194080 0.861960 -0.586338
C1    C     C_R   0.205996 0.475969 0.825695 0.907466
C2    C     C_R   0.793970 0.524026 0.174306 0.907473
C3    C     C_R   0.294979 0.977098 0.174345 0.914325
C4    C     C_R   0.705056 0.022436 0.825672 0.914929
O9    O     O_R   0.338690 0.308320 0.993240 -0.600092
O10   O     O_R   0.661310 0.691680 0.006760 -0.593728
O11   O     O_R   0.161310 0.808320 0.006760 -0.599593
O12   O     O_R   0.838690 0.191680 0.993240 -0.598328
O13   O     O_R   0.286170 0.140430 0.130100 -0.585409
O14   O     O_R   0.713830 0.859570 0.869900 -0.570961
O15   O     O_R   0.213830 0.640430 0.869900 -0.574181
O16   O     O_R   0.786170 0.359570 0.130100 -0.573842
C5    C     C_R   0.364985 0.477365 0.997825 0.933421
C6    C     C_R   0.634997 0.522664 0.002086 0.936524
C7    C     C_R   0.135013 0.977136 0.002155 0.925128
C8    C     C_R   0.864986 0.022863 0.997842 0.925095
O17   O     O_3   0.232630 0.472410 0.044750 -0.286023
O18   O     O_3   0.767370 0.527590 0.955250 -0.286043
O19   O     O_3   0.267370 0.972410 0.955250 -0.280388
O20   O     O_3   0.732630 0.027590 0.044750 -0.281116
V1    V     V_3+5 0.253220 0.196620 0.991700 1.199299
V2    V     V_3+5 0.746780 0.803380 0.008300 1.208030
V3    V     V_3+5 0.246780 0.696620 0.008300 1.206443
V4    V     V_3+5 0.753220 0.303380 0.991700 1.198018
C9    C     C_R   0.029446 0.826166 0.001828 -0.074017
C10   C     C_R   0.970552 0.173830 0.998166 -0.073821
C11   C     C_R   0.469746 0.326424 0.995298 -0.099206
C12   C     C_R   0.530179 0.673706 0.004314 -0.016206
H1    H     H_    0.050883 0.689702 0.002945 0.119224
H2    H     H_    0.949116 0.310294 0.997050 0.119300
H3    H     H_    0.447674 0.190048 0.991922 0.136268
H4    H     H_    0.552243 0.810078 0.007641 0.125083
C13   C     C_R   0.964487 0.837662 0.000255 -0.089825
C14   C     C_R   0.035511 0.162334 0.999736 -0.089823
C15   C     C_R   0.534701 0.337664 0.996800 -0.094561
C16   C     C_R   0.465228 0.662463 0.002843 -0.018501
H5    H     H_    0.938210 0.709231 0.000513 0.123870
H6    H     H_    0.061787 0.290766 0.999476 0.123878
H7    H     H_    0.560345 0.209260 0.994259 0.137344
H8    H     H_    0.439588 0.790860 0.005402 0.126745
C17   C     C_R   0.934020 0.011688 0.998371 -0.118350
C18   C     C_R   0.065978 0.988309 0.001623 -0.118427
C19   C     C_R   0.565941 0.511479 0.001419 -0.148111
C20   C     C_R   0.434005 0.488633 0.998309 -0.150391
C21   C     C_R   0.676914 0.007870 0.723821 -0.114183
C22   C     C_R   0.323170 0.982656 0.276406 -0.112233
C23   C     C_R   0.821484 0.520680 0.276096 -0.114745
C24   C     C_R   0.178424 0.479267 0.723908 -0.115032
C25   C     C_R   0.689417 0.940180 0.570961 -0.128847
C26   C     C_R   0.310301 0.953123 0.431491 -0.134389
C27   C     C_R   0.813468 0.602951 0.429704 -0.123896
C28   C     C_R   0.186336 0.396301 0.570323 -0.129301
C29   C     C_R   0.716677 0.977299 0.666234 -0.167661
C30   C     C_R   0.283262 0.971669 0.334978 -0.169562
C31   C     C_R   0.784233 0.574900 0.334200 -0.158124
C32   C     C_R   0.215626 0.424807 0.665779 -0.158058
C33   C     C_R   0.609696 0.000378 0.685837 -0.125732
C34   C     C_R   0.390335 0.974280 0.314711 -0.122423
C35   C     C_R   0.887378 0.486079 0.314294 -0.106344
C36   C     C_R   0.112513 0.513732 0.685767 -0.106391
C37   C     C_R   0.580969 0.946129 0.591249 0.136877
C38   C     C_R   0.418690 0.937940 0.411296 0.138439
C39   C     C_R   0.917463 0.502006 0.411893 0.138310
C40   C     C_R   0.082371 0.497530 0.588188 0.139153
C41   C     C_R   0.622080 0.924675 0.533070 0.121165
C42   C     C_R   0.377496 0.936379 0.470034 0.121217
C43   C     C_R   0.880168 0.575093 0.467969 0.126912
C44   C     C_R   0.119635 0.424232 0.532103 0.125407
C45   C     C_R   0.512802 0.919787 0.551840 -0.124201
C46   C     C_R   0.486611 0.910329 0.451857 -0.124191
C47   C     C_R   0.984495 0.464263 0.453774 -0.114122
C48   C     C_R   0.015317 0.535160 0.546344 -0.114497
C49   C     C_R   0.529403 0.868536 0.397321 0.369812
C50   C     C_R   0.469727 0.897387 0.607795 0.369486
C51   C     C_R   0.977672 0.638925 0.593711 0.361293
C52   C     C_R   0.022106 0.360354 0.406422 0.361419
C53   C     C_R   0.596099 0.881050 0.438291 -0.319984
C54   C     C_R   0.403169 0.910932 0.566318 -0.322969
C55   C     C_R   0.910500 0.639143 0.558412 -0.309179
C56   C     C_R   0.089272 0.360019 0.441703 -0.310080
H9    H     H_    0.628213 0.850682 0.396049 0.172513
H10   H     H_    0.370861 0.895535 0.609597 0.176779
H11   H     H_    0.882253 0.710949 0.597351 0.171465
H12   H     H_    0.117489 0.288077 0.402769 0.172283
H13   H     H_    0.419339 0.996497 0.267656 0.138335
H14   H     H_    0.580934 0.037818 0.731531 0.139267
H15   H     H_    0.084807 0.537774 0.734516 0.131369
H16   H     H_    0.915126 0.462101 0.265591 0.131260
H17   H     H_    0.231220 0.975965 0.305854 0.120161
H18   H     H_    0.768750 0.980619 0.695230 0.120029
H19   H     H_    0.266559 0.394968 0.695135 0.123363
H20   H     H_    0.733301 0.604773 0.304824 0.123779
H21   H     H_    0.721106 0.919659 0.527134 0.117424
H22   H     H_    0.278502 0.947557 0.475926 0.125370
H23   H     H_    0.784550 0.655797 0.472739 0.114023
H24   H     H_    0.215213 0.342907 0.527315 0.122519
N1    N     N_R   0.507138 0.785315 0.305414 0.221620
O21   O     O_R   0.465262 0.649668 0.289825 -0.408593
O22   O     O_R   0.535821 0.823716 0.241955 -0.436002
N2    N     N_R   0.491290 0.832060 0.702869 0.221963
O23   O     O_R   0.531851 0.694336 0.724268 -0.410274
O24   O     O_R   0.463152 0.889184 0.764368 -0.434070
N3    N     N_R   0.006304 0.765795 0.669571 0.223486
O25   O     O_R   0.980563 0.788306 0.737872 -0.428566
O26   O     O_R   0.051600 0.879944 0.662959 -0.395769
N4    N     N_R   0.993429 0.233459 0.330591 0.223461
O27   O     O_R   0.948062 0.119570 0.337201 -0.395491
O28   O     O_R   0.019176 0.210677 0.262315 -0.428700

loop_
_geom_bond_atom_site_label_1
_geom_bond_atom_site_label_2
_geom_bond_distance
_ccdc_geom_bond_type
O17   V3    1.756310 S    
C51   C55   1.394772 A    
C26   C30   1.392845 A    
C55   H11   1.084812 S    
O19   V1    1.750874 S    
O13   V1    2.019047 S    
C37   C45   1.432086 A    
N3    O25   1.301795 A    
C10   C14   1.400951 A    
C40   C44   1.417043 A    
O15   V3    2.013082 S    
C39   C47   1.430067 A    
N4    O27   1.301813 A    
C45   C46   1.432077 A    
O1    C5    1.326337 A    
N1    O22   1.301639 A    
O9    V1    2.007543 S    
C47   C52   1.428897 A    
O4    C8    1.326302 A    
C38   C46   1.432375 A    
C46   C49   1.427398 A    
O1    V3    2.000396 S    
N2    O23   1.301804 A    
O2    V4    2.000393 S    
C14   H6    1.082808 S    
C25   C41   1.405396 A    
O3    V1    1.999067 S    
O3    C7    1.326309 A    
C38   C42   1.417189 A    
C21   C29   1.395224 A    
C1    O15   1.334266 A    
C32   H19   1.083588 S    
C56   H12   1.084780 S    
C2    O16   1.334252 A    
C23   C31   1.395715 A    
O2    C6    1.326471 A    
C24   C32   1.395658 A    
C37   C41   1.416999 A    
C26   H22   1.084017 S    
C50   N2    1.437915 S    
C21   C33   1.400054 A    
C44   C56   1.390577 A    
C4    C21   1.464014 S    
C36   C40   1.413365 A    
C16   C20   1.409747 A    
O11   C7    1.333564 A    
O12   C8    1.333568 A    
O10   V2    2.007539 S    
C48   C51   1.429035 A    
C13   C17   1.410322 A    
O5    V1    2.024948 S    
C49   N1    1.437754 S    
C36   H15   1.079516 S    
O7    V3    2.013929 S    
O8    V4    2.013930 S    
C12   H4    1.082885 S    
C54   H10   1.084522 S    
C53   H9    1.084623 S    
O18   V4    1.756311 S    
C7    C18   1.493138 S    
C22   C30   1.395255 A    
C9    C18   1.406154 A    
C50   C54   1.396536 A    
C28   C44   1.404676 A    
C9    H1    1.082893 S    
O7    C3    1.334531 A    
O5    C1    1.332676 A    
C31   H20   1.083641 S    
C30   H17   1.083509 S    
C23   C35   1.396702 A    
O8    C4    1.337452 A    
O9    C5    1.332230 A    
N3    O26   1.301814 A    
C1    C24   1.459174 S    
C42   C54   1.392434 A    
C25   C29   1.392917 A    
C2    C23   1.459094 S    
C3    C22   1.464300 S    
C41   C53   1.392401 A    
C12   C19   1.406685 A    
C14   C18   1.410319 A    
C34   H13   1.079076 S    
O14   V2    2.019048 S    
C43   C55   1.390603 A    
C33   H14   1.079103 S    
O6    V2    2.024947 S    
C35   H16   1.079539 S    
C51   N3    1.438002 S    
C12   C16   1.400749 A    
C27   C43   1.404633 A    
C11   C15   1.400703 A    
C26   C42   1.405396 A    
O16   V4    2.013081 S    
C8    C17   1.493136 S    
C3    O13   1.335459 A    
C10   C17   1.406152 A    
C52   N4    1.438028 S    
C10   H2    1.082893 S    
C52   C56   1.394628 A    
O6    C2    1.332664 A    
N4    O28   1.301788 A    
O11   V3    2.010543 S    
C22   C34   1.400280 A    
O12   V4    2.010547 S    
C25   H21   1.083712 S    
N1    O21   1.301787 A    
C27   C31   1.391660 A    
C28   C32   1.391669 A    
C9    C13   1.400952 A    
O10   C6    1.332093 A    
O20   V2    1.750873 S    
C27   H23   1.083828 S    
C40   C48   1.430240 A    
C24   C36   1.396763 A    
C39   C43   1.416876 A    
C29   H18   1.083506 S    
C15   C19   1.409698 A    
C34   C38   1.416429 A    
C45   C50   1.427215 A    
C33   C37   1.416182 A    
C11   H3    1.082923 S    
N2    O24   1.301670 A    
C35   C39   1.413292 A    
O4    V2    1.999070 S    
C47   C48   1.435269 A    
C4    O14   1.332394 A    
C11   C20   1.406651 A    
C13   H5    1.082808 S    
C28   H24   1.084221 S    
C15   H7    1.082851 S    
C5    C20   1.492711 S    
C49   C53   1.396769 A    
C16   H8    1.082815 S    
C6    C19   1.492689 S    
