data_mof_unit_6478.cif
_audit_creation_date              2013-03-05T16:08:03-0500
_audit_creation_method            fapswitch 2.2
_symmetry_space_group_name_H-M    P1
_symmetry_Int_Tables_number       1
_space_group_crystal_system       triclinic
_cell_length_a                    23.518802
_cell_length_b                    11.559311
_cell_length_c                    10.753786
_cell_angle_alpha                 89.994369
_cell_angle_beta                  89.821481
_cell_angle_gamma                 90.176851
_cell_volume                      2923.50845868

loop_
_atom_site_label
_atom_site_type_symbol
_atom_site_description
_atom_site_fract_x
_atom_site_fract_y
_atom_site_fract_z
_atom_type_partial_charge
O1    O     O_R   0.500000 0.334450 0.602530 -0.606623
O2    O     O_R   0.500000 0.665550 0.397470 -0.615785
O3    O     O_R   0.500000 0.665550 0.602530 -0.607787
O4    O     O_R   0.500000 0.334450 0.397470 -0.616681
C1    C     C_R   0.499999 0.281127 0.500002 0.897089
C2    C     C_R   0.499991 0.718873 0.499992 0.894578
O5    O     O_R   0.416150 0.500000 0.602560 -0.557838
O6    O     O_R   0.583850 0.500000 0.397440 -0.604010
O7    O     O_R   0.583850 0.500000 0.602560 -0.554987
O8    O     O_R   0.416150 0.500000 0.397440 -0.604536
C3    C     C_R   0.388934 0.502541 0.500181 0.976295
C4    C     C_R   0.611133 0.497290 0.499760 0.974213
Zn1   Zn    Zn3+2 0.500000 0.500000 0.636920 1.051247
Zn2   Zn    Zn3+2 0.500000 0.500000 0.363080 1.019956
C5    C     C_R   0.879695 0.600706 0.477676 0.600313
C6    C     C_R   0.120614 0.405336 0.472747 0.592349
C7    C     C_R   0.881924 0.394170 0.475286 0.632043
C8    C     C_R   0.118450 0.611263 0.490067 0.631110
N1    N     N_R   0.852831 0.495979 0.479595 -0.331703
N2    N     N_R   0.147477 0.509417 0.484874 -0.331486
C9    C     C_R   0.941419 0.394552 0.466673 -0.170797
C10   C     C_R   0.059046 0.611890 0.479356 -0.171351
C11   C     C_R   0.939291 0.606418 0.478584 -0.168238
C12   C     C_R   0.061049 0.399660 0.472751 -0.166904
C13   C     C_R   0.970282 0.501875 0.472449 -0.144039
C14   C     C_R   0.030137 0.504506 0.474022 -0.144763
C15   C     C_R   0.972563 0.290887 0.455680 0.381620
C16   C     C_R   0.028003 0.716229 0.476371 0.391308
C17   C     C_R   0.968483 0.713102 0.486485 0.365629
C18   C     C_R   0.031825 0.292747 0.472114 0.389393
O9    O     O_2   0.848368 0.698297 0.475166 -0.489345
O10   O     O_2   0.151920 0.308366 0.460232 -0.489870
O11   O     O_2   0.852966 0.293369 0.482384 -0.500361
O12   O     O_2   0.147394 0.710873 0.507785 -0.497045
C19   C     C_R   0.238956 0.558501 0.392928 0.470796
C20   C     C_R   0.761370 0.452630 0.385419 0.470798
C21   C     C_R   0.235803 0.466639 0.598386 0.319036
C22   C     C_R   0.764441 0.529040 0.597915 0.317737
C23   C     C_R   0.298373 0.564463 0.399783 0.232799
C24   C     C_R   0.702048 0.444033 0.393468 0.231678
C25   C     C_R   0.295487 0.461184 0.599404 0.383505
C26   C     C_R   0.704725 0.533237 0.600677 0.382178
C27   C     C_R   0.326715 0.510317 0.500241 -0.346996
C28   C     C_R   0.673498 0.490411 0.498522 -0.349025
C29   C     C_R   0.208094 0.511861 0.492657 0.011373
C30   C     C_R   0.792198 0.492601 0.488005 0.008742
C31   C     C_1   0.499999 0.161045 0.500000 -0.153829
C32   C     C_1   0.499972 0.838954 0.499973 -0.154046
C33   C     C_1   0.499988 0.059140 0.499984 0.023352
C34   C     C_1   0.499972 0.940859 0.499970 0.023527
N3    N     N_1   0.500000 0.500000 0.180630 -0.064254
N4    N     N_1   0.500000 0.500000 0.819370 -0.062300
C35   C     C_1   0.500001 0.500000 0.069694 0.088083
C36   C     C_1   0.500001 0.500000 0.930306 0.090169
O13   O     O_3   0.944782 0.186067 0.439037 -0.617393
C37   C     C_3   0.955352 0.142503 0.318010 0.090064
H1    H     H_    0.948335 0.047503 0.321147 0.176288
H2    H     H_    0.000062 0.155743 0.286245 0.145479
C38   C     C_3   0.913953 0.194351 0.223469 -0.290861
H3    H     H_    0.869529 0.177194 0.253977 0.278590
H4    H     H_    0.920363 0.289490 0.217898 0.226290
C39   C     C_3   0.922988 0.142357 0.094438 -0.963533
H5    H     H_    0.966931 0.160053 0.061168 0.262306
H6    H     H_    0.892555 0.181530 0.028004 0.284397
H7    H     H_    0.915724 0.047368 0.096712 0.274168
O14   O     O_3   0.055821 0.822194 0.473366 -0.605526
C40   C     C_3   0.047992 0.876060 0.356209 0.097177
H8    H     H_    0.050875 0.970904 0.370691 0.188667
H9    H     H_    0.005415 0.859325 0.314434 0.139187
C41   C     C_3   0.094829 0.840493 0.264745 -0.290946
H10   H     H_    0.137097 0.860877 0.305292 0.281171
H11   H     H_    0.092410 0.745823 0.247521 0.232421
C42   C     C_3   0.088810 0.904170 0.141093 -0.952314
H12   H     H_    0.047178 0.883583 0.097710 0.260342
H13   H     H_    0.123249 0.876873 0.076729 0.286431
H14   H     H_    0.092051 0.999141 0.155511 0.275608
O15   O     O_3   0.939191 0.815781 0.502442 -0.599157
C43   C     C_3   0.940769 0.845897 0.629811 0.105291
H15   H     H_    0.985023 0.867683 0.658346 0.150475
H16   H     H_    0.924428 0.773682 0.689006 0.144367
C44   C     C_3   0.903218 0.951582 0.651346 -0.262784
H17   H     H_    0.917387 0.022832 0.589446 0.267250
H18   H     H_    0.858448 0.929628 0.628021 0.264230
C45   C     C_3   0.906166 0.992664 0.786066 -0.972626
H19   H     H_    0.891252 0.923346 0.849992 0.278831
H20   H     H_    0.878538 0.069574 0.798367 0.288033
H21   H     H_    0.950459 0.017166 0.810480 0.258126
O16   O     O_3   0.061187 0.189263 0.482769 -0.605962
C46   C     C_3   0.050221 0.137892 0.600347 0.094105
H22   H     H_    0.055248 0.042933 0.589913 0.197425
H23   H     H_    0.006018 0.151728 0.634887 0.144319
C47   C     C_3   0.092954 0.180543 0.697477 -0.297560
H24   H     H_    0.136870 0.161634 0.665077 0.281195
H25   H     H_    0.088672 0.275576 0.709581 0.212743
C48   C     C_3   0.083081 0.121834 0.822913 -0.950467
H26   H     H_    0.040018 0.142747 0.859008 0.255356
H27   H     H_    0.115106 0.153174 0.890775 0.288101
H28   H     H_    0.087259 0.026497 0.813768 0.274547
O17   O     O_3   0.209065 0.600396 0.291887 -0.738852
H29   H     H_    0.235728 0.625524 0.225764 0.388636
O18   O     O_3   0.791231 0.419158 0.280360 -0.736245
H30   H     H_    0.764526 0.398759 0.212831 0.388259
O19   O     O_3   0.205953 0.426102 0.700677 -0.755804
H31   H     H_    0.166124 0.453152 0.697368 0.336336
O20   O     O_3   0.794266 0.561997 0.702912 -0.749899
H32   H     H_    0.834120 0.535449 0.696732 0.338536
O21   O     O_3   0.327331 0.624964 0.308603 -0.732710
H33   H     H_    0.359459 0.666401 0.348233 0.347436
O22   O     O_3   0.673374 0.388413 0.298824 -0.731548
H34   H     H_    0.642690 0.341092 0.336774 0.348540
O23   O     O_3   0.324574 0.408149 0.695520 -0.714458
H35   H     H_    0.297585 0.373069 0.755482 0.392065
O24   O     O_3   0.675672 0.578569 0.701675 -0.712662
H36   H     H_    0.702638 0.610541 0.763283 0.392204

loop_
_geom_bond_atom_site_label_1
_geom_bond_atom_site_label_2
_geom_bond_distance
_ccdc_geom_bond_type
O13   C37   1.417102 S    
O18   H30   0.989635 S    
C42   H13   1.110332 S    
C42   H12   1.111031 S    
C19   C23   1.401064 A    
C48   H26   1.110820 S    
C45   H21   1.110953 S    
O3    C2    1.263200 A    
C44   H17   1.108730 S    
C48   H28   1.111045 S    
C31   C33   1.177954 T    
O15   C43   1.413852 S    
O5    C3    1.275612 A    
C1    C31   1.388061 S    
C2    C32   1.388054 S    
O1    C1    1.263208 A    
C11   C17   1.412268 A    
C16   C17   1.404067 A    
C45   H20   1.110453 S    
C22   C26   1.405655 A    
Zn2   N3    1.962028 S    
C43   H16   1.116304 S    
C37   H1    1.110461 S    
O7    Zn1   2.005237 S    
C39   H6    1.110331 S    
C5    N1    1.363919 A    
O23   H35   0.989421 S    
O21   H33   0.990860 S    
C20   C30   1.399711 A    
C41   H10   1.111366 S    
C46   H23   1.114866 S    
N2    C29   1.428533 S    
O3    Zn1   1.949016 S    
C6    N2    1.363628 A    
C5    C11   1.403042 A    
O14   C40   1.418056 S    
C9    C15   1.411135 A    
C38   H3    1.111379 S    
C6    C12   1.402221 A    
C10   C16   1.412196 A    
C15   C18   1.405562 A    
C21   C25   1.405390 A    
C25   C27   1.411221 A    
O2    C2    1.263149 A    
C26   C28   1.412142 A    
C19   O17   1.384244 S    
C44   H18   1.111759 S    
N4    C36   1.192985 T    
N1    C30   1.429015 S    
C38   H4    1.111145 S    
C40   H8    1.109244 S    
C20   C24   1.400825 A    
C45   H19   1.110992 S    
O8    Zn2   2.005240 S    
C21   O19   1.384016 S    
C43   H15   1.114113 S    
C23   C27   1.417746 A    
C13   C14   1.408097 A    
C35   C36   1.498951 S    
C47   C48   1.526738 S    
C7    C9    1.402011 A    
C20   O18   1.384243 S    
N3    C35   1.192978 T    
C16   O14   1.387201 S    
C39   H5    1.110999 S    
Zn1   N4    1.962027 S    
C26   O24   1.385219 S    
O17   H29   0.989589 S    
C24   C28   1.418499 A    
O6    C4    1.275908 A    
C41   C42   1.526964 S    
C47   H25   1.111057 S    
C7    O11   1.349848 S    
C46   C47   1.532232 S    
C3    C27   1.466364 S    
C8    O12   1.349611 S    
C10   C14   1.414711 A    
C42   H14   1.111122 S    
O1    Zn1   1.949089 S    
C18   O16   1.387974 S    
C19   C29   1.400119 A    
C44   C45   1.526349 S    
O24   H36   0.989421 S    
C9    C13   1.413784 A    
C38   C39   1.526713 S    
O6    Zn2   2.007501 S    
C39   H7    1.110957 S    
C8    C10   1.402269 A    
C12   C14   1.415261 A    
O4    C1    1.263145 A    
C23   O21   1.380991 S    
C48   H27   1.110365 S    
C5    O9    1.349587 S    
C24   O22   1.380473 S    
C6    O10   1.349499 S    
O20   H32   0.989219 S    
C15   O13   1.386688 S    
C37   C38   1.533116 S    
C40   C41   1.531672 S    
C22   O20   1.383998 S    
C4    C28   1.469187 S    
O22   H34   0.991083 S    
C43   C44   1.526906 S    
C32   C34   1.177953 T    
C47   H24   1.111373 S    
C7    N1    1.363845 A    
C37   H2    1.114702 S    
C8    N2    1.363774 A    
C11   C13   1.414601 A    
O4    Zn2   1.949017 S    
O2    Zn2   1.949087 S    
O7    C4    1.276919 A    
C12   C18   1.412286 A    
C22   C30   1.413343 A    
O8    C3    1.275532 A    
O5    Zn1   2.007503 S    
C17   O15   1.384603 S    
O16   C46   1.419411 S    
C33   C34   1.367250 S    
C25   O23   1.385292 S    
O19   H31   0.989211 S    
C41   H11   1.111224 S    
C40   H9    1.115148 S    
C46   H22   1.110027 S    
C21   C29   1.413256 A    
