data_mof_unit_52339.cif
_audit_creation_date              2012-12-11T17:43:36-0500
_audit_creation_method            fapswitch 2.2
_symmetry_space_group_name_H-M    P1
_symmetry_Int_Tables_number       1
_space_group_crystal_system       triclinic
_cell_length_a                    14.991708
_cell_length_b                    15.095268
_cell_length_c                    16.940207
_cell_angle_alpha                 108.927089
_cell_angle_beta                  105.971227
_cell_angle_gamma                 109.264564
_cell_volume                      3093.93601534

loop_
_atom_site_label
_atom_site_type_symbol
_atom_type_description
_atom_site_fract_x
_atom_site_fract_y
_atom_site_fract_z
_atom_type_partial_charge
C1    C     C_R   0.089536 0.275152 0.028330 -0.114283
C2    C     C_R   0.090102 0.063755 0.944693 -0.220843
C3    C     C_R   0.002347 0.882562 0.915809 0.050526
C4    C     C_R   0.996843 0.071093 0.933715 0.068301
C5    C     C_R   0.093913 0.969330 0.934676 0.027932
C6    C     C_R   0.902492 0.977145 0.898004 0.036554
C7    C     C_R   0.725216 0.932731 0.789792 -0.172589
C8    C     C_R   0.288710 0.041906 0.015100 -0.169521
C9    C     C_R   0.592524 0.938131 0.843961 -0.119049
C10   C     C_R   0.376923 0.947299 0.954948 -0.092840
C11   C     C_R   0.487943 0.639982 0.362855 0.218740
C12   C     C_R   0.915076 0.707308 0.916096 -0.145155
C13   C     C_R   0.505736 0.486352 0.739733 0.234687
C14   C     C_R   0.510903 0.656085 0.291620 0.169947
C15   C     C_R   0.515784 0.492060 0.826756 0.175197
C16   C     C_R   0.936646 0.452055 0.734680 -0.126153
C17   C     C_R   0.064922 0.481292 0.253039 -0.150203
C18   C     C_R   0.519117 0.576138 0.225860 -0.007287
C19   C     C_R   0.572977 0.591690 0.905895 -0.015911
C20   C     C_R   0.506710 0.483530 0.234100 -0.203993
C21   C     C_R   0.616860 0.683349 0.896493 -0.213566
C22   C     C_R   0.484120 0.468764 0.304737 -0.136806
C23   C     C_R   0.030003 0.467470 0.726296 0.083837
C24   C     C_R   0.608775 0.676096 0.810498 -0.147911
C25   C     C_R   0.474310 0.546356 0.368498 -0.177011
C26   C     C_R   0.553955 0.578179 0.732619 -0.157370
C27   C     C_R   0.622620 0.573621 0.133465 -0.223399
C28   C     C_R   0.502072 0.624776 0.016654 -0.192989
C29   C     C_R   0.638072 0.574927 0.055746 0.074579
C30   C     C_R   0.472198 0.601359 0.081283 0.082541
C31   C     C_R   0.577473 0.602977 0.997463 0.074923
C32   C     C_R   0.538605 0.585944 0.146967 0.089691
C33   C     C_R   0.623133 0.917489 0.771859 -0.104897
C34   C     C_R   0.973916 0.421162 0.255366 0.093473
C35   C     C_R   0.380530 0.033869 0.021780 -0.081228
C36   C     C_R   0.967914 0.380804 0.322781 0.075728
C37   C     C_R   0.041490 0.425835 0.640606 0.073822
C38   C     C_R   0.148208 0.456108 0.558662 0.220912
C39   C     C_R   0.865770 0.299699 0.391643 0.205376
C40   C     C_R   0.718921 0.215967 0.823459 -0.136443
C41   C     C_R   0.223032 0.797025 0.187091 -0.096939
C42   C     C_R   0.139936 0.466902 0.640363 -0.199158
C43   C     C_R   0.871397 0.317868 0.317220 -0.225527
C44   C     C_R   0.952372 0.357866 0.556943 -0.209339
C45   C     C_R   0.663487 0.218505 0.744757 0.081905
C46   C     C_R   0.059885 0.414131 0.398509 -0.218182
C47   C     C_R   0.957653 0.349512 0.474147 0.070356
C48   C     C_R   0.056293 0.403513 0.476046 0.064651
C49   C     C_R   0.554994 0.145167 0.677075 0.134454
C50   C     C_R   0.281477 0.899469 0.359427 0.119613
C51   C     C_R   0.391800 0.087894 0.442771 -0.141860
C52   C     C_R   0.404199 0.974190 0.607265 -0.169246
C53   C     C_R   0.321423 0.998286 0.360360 -0.148701
C54   C     C_R   0.496156 0.055334 0.682946 -0.148866
C55   C     C_R   0.297365 0.894030 0.442959 -0.225303
C56   C     C_R   0.239694 0.803168 0.273809 0.071678
C57   C     C_R   0.513547 0.159347 0.600058 -0.188579
C58   C     C_R   0.371526 0.982749 0.525519 0.183282
C59   C     C_R   0.423289 0.078532 0.523973 0.181659
C60   C     C_R   0.663924 0.973910 0.934152 -0.121603
C61   C     C_R   0.281609 0.868872 0.880905 -0.121921
C62   C     C_R   0.765942 0.988671 0.952383 -0.157964
C63   C     C_R   0.189608 0.876640 0.873754 -0.132171
C64   C     C_R   0.302235 0.600600 0.008735 -0.115126
C65   C     C_R   0.738220 0.465644 0.048960 -0.096072
C66   C     C_R   0.797409 0.969195 0.880359 0.074269
C67   C     C_R   0.362545 0.571010 0.061418 0.088896
C68   C     C_R   0.192164 0.962817 0.941336 0.110718
C69   C     C_R   0.726325 0.310852 0.747108 -0.117868
C70   C     C_R   0.217611 0.702519 0.265213 -0.081745
C71   C     C_R   0.296859 0.502282 0.081846 -0.119778
C72   C     C_R   0.754813 0.566521 0.976785 -0.121080
C73   C     C_R   0.111028 0.537477 0.813386 -0.129472
C74   C     C_R   0.891718 0.397219 0.176654 -0.138834
C75   C     C_R   0.916117 0.195049 0.946830 -0.126304
C76   C     C_R   0.086918 0.794918 0.997210 -0.143972
C77   C     C_R   0.001689 0.176522 0.965891 0.055912
C78   C     C_R   0.711141 0.540274 0.032298 0.068465
C79   C     C_R   0.002814 0.798394 0.941362 0.067440
C80   C     C_R   0.907080 0.884700 0.887469 -0.223085
H1    H     H_    0.170131 0.291220 0.058933 0.097942
H2    H     H_    0.643769 0.746542 0.803802 0.163258
H3    H     H_    0.672312 0.557334 0.180651 0.133571
H4    H     H_    0.454841 0.641404 0.968159 0.128543
H5    H     H_    0.134338 0.457850 0.401045 0.160765
H6    H     H_    0.877583 0.321384 0.557450 0.159983
H7    H     H_    0.799475 0.286790 0.257313 0.141814
H8    H     H_    0.210583 0.515489 0.703891 0.147492
H9    H     H_    0.857974 0.403124 0.680999 0.108218
H10   H     H_    0.144027 0.501076 0.294878 0.112753
H11   H     H_    0.567522 0.888861 0.701964 0.162402
H12   H     H_    0.837970 0.674997 0.862102 0.102141
H13   H     H_    0.454463 0.094511 0.079111 0.121976
H14   H     H_    0.555806 0.228552 0.594298 0.131868
H15   H     H_    0.262264 0.819275 0.443656 0.134007
H16   H     H_    0.523668 0.044621 0.743378 0.116671
H17   H     H_    0.306502 0.006244 0.297547 0.121384
H18   H     H_    0.429048 0.162023 0.441442 0.152546
H19   H     H_    0.363886 0.901924 0.610219 0.143048
H20   H     H_    0.513350 0.925971 0.829816 0.116314
H21   H     H_    0.447957 0.940916 0.960626 0.101785
H22   H     H_    0.640012 0.989325 0.989825 0.117836
H23   H     H_    0.747805 0.915250 0.733322 0.149847
H24   H     H_    0.278954 0.801890 0.829150 0.121283
H25   H     H_    0.820257 0.014773 0.022198 0.128879
H26   H     H_    0.116287 0.815114 0.816027 0.121265
H27   H     H_    0.687921 0.163999 0.851074 0.105304
H28   H     H_    0.232224 0.859709 0.167873 0.094389
H29   H     H_    0.329391 0.665317 0.992500 0.095367
H30   H     H_    0.717136 0.427798 0.089964 0.097085
H31   H     H_    0.703563 0.347876 0.705872 0.100793
H32   H     H_    0.222655 0.677845 0.318602 0.118121
H33   H     H_    0.317949 0.469904 0.127930 0.109126
H34   H     H_    0.292728 0.108713 0.068264 0.113392
H35   H     H_    0.758263 0.627410 0.956467 0.119842
H36   H     H_    0.193945 0.566836 0.833573 0.100883
H37   H     H_    0.811042 0.339833 0.149176 0.092036
H38   H     H_    0.837062 0.142633 0.897489 0.131547
H39   H     H_    0.168682 0.847231 0.022951 0.116818
H40   H     H_    0.834987 0.817098 0.866901 0.125200
H41   H     H_    0.160641 0.132239 0.963066 0.133257
H42   H     H_    0.456560 0.533852 0.422961 0.176889
H43   H     H_    0.546888 0.573978 0.666013 0.173204
H44   H     H_    0.512399 0.421492 0.184385 0.139538
H45   H     H_    0.658270 0.760313 0.956161 0.149741
H46   H     H_    0.473672 0.396651 0.309801 0.146103
I1    I     I_    0.473403 0.753020 0.465430 -0.431947
I2    I     I_    0.413315 0.343871 0.615081 -0.393441
I3    I     I_    0.538056 0.802139 0.286992 -0.340347
I4    I     I_    0.441825 0.352459 0.838486 -0.387249
I5    I     I_    0.300864 0.540723 0.571125 -0.447329
I6    I     I_    0.714042 0.207521 0.376513 -0.433673
N1    N     N_R   0.055660 0.348550 0.045620 -0.041805
N2    N     N_R   0.185200 0.638170 0.176300 -0.045056
N3    N     N_R   0.201680 0.494570 0.045620 -0.042024
N4    N     N_R   0.798320 0.505430 0.954380 -0.041848
N5    N     N_R   0.068420 0.560530 0.871650 -0.043090
N6    N     N_R   0.931580 0.439470 0.128350 -0.042650
N7    N     N_R   0.948070 0.295860 0.997670 -0.045298
N8    N     N_R   0.051930 0.704140 0.002330 -0.043695
N9    N     N_R   0.944340 0.651450 0.954380 -0.042666
N10   N     N_R   0.960830 0.507850 0.823700 -0.043389
N11   N     N_R   0.039170 0.492150 0.176300 -0.045027
N12   N     N_R   0.811290 0.303410 0.871650 -0.043152
N13   N     N_R   0.188710 0.696590 0.128350 -0.043673
N14   N     N_R   0.205200 0.552990 0.997670 -0.042566
N15   N     N_R   0.794800 0.447010 0.002330 -0.042711
N16   N     N_R   0.814800 0.361830 0.823700 -0.041628
Ni1   Ni    Ni4+2 0.119340 0.493420 0.109960 0.225134
Ni2   Ni    Ni4+2 0.880660 0.506580 0.890040 0.219655
Ni3   Ni    Ni4+2 0.872590 0.372590 0.000000 0.218901
Ni4   Ni    Ni4+2 0.127410 0.627410 0.000000 0.222429

loop_
_geom_bond_atom_site_label_1
_geom_bond_atom_site_label_2
_ccdc_geom_bond_type
N5    N10   A    
C80   H40   S    
C41   H28   S    
C27   C29   A    
C1    C77   A    
C14   C18   A    
C16   N10   A    
C76   C79   A    
N12   N16   A    
C19   C31   S    
C18   C32   S    
C62   H25   S    
C15   C19   A    
C74   N6    A    
C72   H35   S    
C73   H36   S    
C19   C21   A    
N16   Ni2   S    
C38   C42   A    
N12   Ni3   S    
N6    N11   A    
C33   H11   S    
C71   N3    A    
C11   C14   A    
C44   H6    S    
C22   H46   S    
C28   H4    S    
C39   I6    S    
C11   C25   A    
C1    H1    S    
C49   C54   A    
C12   C79   A    
C49   C57   A    
C12   N9    A    
C71   H33   S    
C60   C62   A    
C37   C42   A    
C61   C63   A    
C24   H2    S    
C72   C78   A    
C13   I2    S    
C29   C78   S    
C28   C30   A    
C22   C25   A    
N11   Ni1   S    
N5    Ni4   S    
C36   C46   A    
C10   C35   A    
C65   N15   A    
C25   H42   S    
N8    Ni4   S    
C18   C20   A    
C30   C67   S    
C44   C47   A    
C8    H34   S    
C46   H5    S    
C51   H18   S    
C35   H13   S    
C3    C79   S    
C16   H9    S    
C7    H23   S    
N4    N15   A    
C9    C33   A    
C7    C33   A    
C75   H38   S    
C23   C73   A    
C5    C68   S    
C60   H22   S    
C3    C80   A    
C10   H21   S    
C52   C54   A    
N9    Ni2   S    
C51   C59   A    
C76   N8    A    
C40   C45   A    
C57   C59   A    
C46   C48   A    
C1    N1    A    
C50   C53   A    
C62   C66   A    
C45   C69   A    
C76   H39   S    
C64   C67   A    
C61   H24   S    
N1    Ni1   S    
N8    N9    A    
C55   H15   S    
C39   C43   A    
C53   H17   S    
C58   C59   A    
N3    Ni1   S    
N2    Ni1   S    
C50   C56   S    
C51   C53   A    
C8    C35   A    
C2    C4    A    
C41   C56   A    
C6    C80   A    
C47   C48   A    
C45   C49   S    
N3    N14   A    
C63   H26   S    
C75   C77   A    
C52   C58   A    
C34   C74   A    
C40   H27   S    
N14   Ni4   S    
C11   I1    S    
C4    C6    A    
C20   C22   A    
C8    C68   A    
C16   C23   A    
C56   C70   A    
C57   H14   S    
C13   C15   A    
C13   C26   A    
C21   C24   A    
C10   C61   A    
C42   H8    S    
C17   C34   A    
C21   H45   S    
C38   C48   A    
C39   C47   A    
C2    H41   S    
N2    N13   A    
C63   C68   A    
C65   C78   A    
C64   N14   A    
C27   C32   A    
C54   H16   S    
C74   H37   S    
C28   C31   A    
C17   H10   S    
C24   C26   A    
C3    C5    A    
N4    Ni2   S    
N1    N7    A    
N6    Ni3   S    
C9    H20   S    
C52   H19   S    
C50   C55   A    
C17   N11   A    
C9    C60   A    
C43   H7    S    
C38   I5    S    
N10   Ni2   S    
C37   C44   A    
C40   N12   A    
C4    C77   S    
C29   C31   A    
C23   C37   S    
C7    C66   A    
C30   C32   A    
C69   H31   S    
C64   H29   S    
C15   I4    S    
C73   N5    A    
N15   Ni3   S    
N7    Ni3   S    
C34   C36   S    
C67   C71   A    
C70   H32   S    
C65   H30   S    
C20   H44   S    
N13   Ni4   S    
C72   N4    A    
C27   H3    S    
C2    C5    A    
C6    C66   S    
C12   H12   S    
C41   N13   A    
C26   H43   S    
C55   C58   A    
C70   N2    A    
C69   N16   A    
C36   C43   A    
C75   N7    A    
C14   I3    S    
