data_mof_unit_14861.cif
_audit_creation_date              2012-12-10T17:03:37-0500
_audit_creation_method            fapswitch 2.2
_symmetry_space_group_name_H-M    P1
_symmetry_Int_Tables_number       1
_space_group_crystal_system       triclinic
_cell_length_a                    10.074399
_cell_length_b                    10.7071
_cell_length_c                    13.315987
_cell_angle_alpha                 90.064208
_cell_angle_beta                  71.972293
_cell_angle_gamma                 91.131575
_cell_volume                      1365.5629062

loop_
_atom_site_label
_atom_site_type_symbol
_atom_type_description
_atom_site_fract_x
_atom_site_fract_y
_atom_site_fract_z
_atom_type_partial_charge
C1    C     C_R   0.503017 0.737043 0.495238 0.908732
C2    C     C_R   0.380140 0.463485 0.817200 -0.100319
C3    C     C_2   0.607383 0.068568 0.488794 -0.394348
C4    C     C_R   0.424327 0.488670 0.702623 0.961413
C5    C     C_2   0.489098 0.132421 0.528415 0.335543
C6    C     C_2   0.610938 0.935878 0.499517 -0.130372
C7    C     C_2   0.511574 0.868051 0.478347 -0.212747
C8    C     C_2   0.076214 0.398015 0.492111 0.632062
C9    C     C_2   0.916917 0.402005 0.516973 0.023030
C10   C     C_R   0.497111 0.262765 0.505115 0.825267
C11   C     C_R   0.576096 0.500218 0.297546 0.893382
C12   C     C_R   0.437393 0.447456 0.981515 -0.090891
C13   C     C_R   0.778572 0.392989 0.028777 0.624995
C14   C     C_R   0.619386 0.482317 0.184617 -0.263296
C15   C     C_R   0.241107 0.484369 0.875478 -0.178409
C16   C     C_R   0.196634 0.474456 0.984685 -0.198797
C17   C     C_R   0.292427 0.452370 0.038482 0.609004
C18   C     C_3   0.066581 0.183918 0.454585 -0.331907
C19   C     C_3   0.907125 0.699068 0.453381 -0.109475
C20   C     C_3   0.887697 0.207937 0.989572 -0.316237
C21   C     C_3   0.462592 0.708543 0.135042 -0.297090
C22   C     C_3   0.236399 0.298536 0.161789 -0.294692
C23   C     C_R   0.476531 0.430596 0.871027 -0.141688
C24   C     C_3   0.623172 0.192160 0.751209 -0.331354
C25   C     C_R   0.543590 0.451070 0.030928 -0.164272
C26   C     C_R   0.680334 0.413698 0.974826 -0.220702
C27   C     C_R   0.717363 0.402292 0.865836 0.314268
C28   C     C_R   0.612521 0.386861 0.818900 0.468187
C29   C     C_R   0.523696 0.505355 0.130125 0.590051
C30   C     C_R   0.746120 0.425634 0.134288 -0.387850
H1    H     H_    0.819416 0.405290 0.176616 0.206763
H2    H     H_    0.006601 0.204391 0.399212 0.117193
H3    H     H_    0.996615 0.151649 0.532685 0.183407
H4    H     H_    0.136591 0.105875 0.419888 0.217611
H5    H     H_    0.845556 0.711248 0.538076 0.174730
H6    H     H_    0.854289 0.742165 0.400738 0.162678
H7    H     H_    0.007422 0.751087 0.440360 0.130391
H8    H     H_    0.941520 0.288069 0.721966 0.336634
H9    H     H_    0.812492 0.172494 0.949610 0.146398
H10   H     H_    0.853666 0.178365 0.074000 0.144573
H11   H     H_    0.989703 0.164492 0.950564 0.205173
H12   H     H_    0.694937 0.895282 0.522739 0.155663
H13   H     H_    0.552360 0.739509 0.161661 0.138989
H14   H     H_    0.376334 0.774101 0.168540 0.191361
H15   H     H_    0.490926 0.714408 0.047432 0.168738
H16   H     H_    0.341857 0.257372 0.131249 0.142719
H17   H     H_    0.162780 0.251870 0.125500 0.151025
H18   H     H_    0.197918 0.279859 0.247716 0.218860
H19   H     H_    0.511466 0.169358 0.793167 0.218374
H20   H     H_    0.690106 0.161653 0.798945 0.127838
H21   H     H_    0.654787 0.138031 0.676998 0.214154
H22   H     H_    0.433081 0.910532 0.449581 0.175929
H23   H     H_    0.092444 0.576623 0.529798 0.185841
H24   H     H_    0.853964 0.321027 0.552416 0.118572
H25   H     H_    0.166894 0.507839 0.835776 0.273516
H26   H     H_    0.087336 0.484811 0.028245 0.214742
H27   H     H_    0.703854 0.113898 0.441117 0.151985
H28   H     H_    0.180859 0.157228 0.760362 0.384999
N1    N     N_2   0.148270 0.498670 0.498870 -0.169325
N2    N     N_2   0.852610 0.498640 0.498840 0.097898
O1    O     O_R   0.386950 0.680940 0.500020 -0.607173
O2    O     O_2   0.375573 0.977078 0.694614 -0.320306
O3    O     O_3   0.263302 0.194818 0.706839 -0.532665
O4    O     O_3   0.149524 0.287159 0.466509 -0.565271
O5    O     O_3   0.936692 0.574094 0.423495 -0.557535
O6    O     O_2   0.853622 0.546082 0.701582 -0.341289
O7    O     O_2   0.931636 0.557402 0.855664 -0.286259
O8    O     O_3   0.995622 0.359245 0.738174 -0.510708
O9    O     O_3   0.905429 0.338679 0.979512 -0.566357
O10   O     O_3   0.415880 0.587151 0.172005 -0.537697
O11   O     O_3   0.241059 0.428843 0.145729 -0.547475
O12   O     O_R   0.613110 0.680900 0.499980 -0.646140
O13   O     O_3   0.642358 0.320411 0.725846 -0.595581
O14   O     O_R   0.330780 0.500000 0.653640 -0.581004
O15   O     O_R   0.556930 0.499960 0.653610 -0.552693
O16   O     O_R   0.386890 0.319100 0.500020 -0.515084
O17   O     O_R   0.613050 0.319060 0.499980 -0.647029
O18   O     O_R   0.443070 0.500040 0.346390 -0.556128
O19   O     O_R   0.669220 0.500000 0.346360 -0.607360
O20   O     O_2   0.234296 0.021643 0.578734 -0.323763
S1    S     S_3+6 0.337551 0.075568 0.628491 0.016536
S2    S     S_3+6 0.877618 0.469915 0.788415 0.037955
Zn1   Zn    Zn3+2 0.349000 0.500030 0.500020 1.101169
Zn2   Zn    Zn3+2 0.651000 0.499970 0.499980 1.032939

loop_
_geom_bond_atom_site_label_1
_geom_bond_atom_site_label_2
_ccdc_geom_bond_type
C22   H18   S    
O14   Zn1   S    
C3    C6    S    
C20   H11   S    
H23   N1    S    
C12   C23   A    
C26   C27   A    
O3    S1    S    
N1    Zn1   S    
C7    H22   S    
C19   H6    S    
C8    N1    D    
O19   Zn2   S    
C20   H10   S    
C11   C14   S    
O15   Zn2   S    
C15   C16   A    
H28   O3    S    
C4    O15   A    
C19   H7    S    
C21   H13   S    
C10   O16   A    
O18   Zn1   S    
C8    C9    S    
C12   C17   A    
C4    O14   A    
C24   H21   S    
C22   H17   S    
C24   H20   S    
C14   C30   A    
C28   O13   S    
O16   Zn1   S    
C10   O17   A    
C21   H15   S    
C25   C29   A    
C1    O12   A    
C13   C30   A    
O1    Zn1   S    
C20   H9    S    
C16   C17   A    
O17   Zn2   S    
C25   C26   A    
C15   H25   S    
C2    C4    S    
C16   H26   S    
C11   O18   A    
O6    S2    D    
C21   H14   S    
C5    S1    S    
C23   C28   A    
C2    C15   A    
C18   H4    S    
O12   Zn2   S    
C11   O19   A    
C8    O4    S    
C3    H27   S    
C22   H16   S    
O2    S1    D    
H8    O8    S    
N2    O5    S    
C17   O11   S    
C13   C26   A    
C18   H2    S    
C14   C29   A    
C22   O11   S    
C27   C28   A    
C29   O10   S    
C24   H19   S    
C1    C7    S    
C27   S2    S    
O20   S1    D    
C3    C5    D    
C1    O1    A    
C6    C7    D    
C21   O10   S    
C12   C25   A    
C9    N2    D    
O8    S2    S    
C5    C10   S    
C19   H5    S    
N2    Zn2   S    
C18   O4    S    
C30   H1    S    
C13   O9    S    
C19   O5    S    
C24   O13   S    
C18   H3    S    
O7    S2    D    
C6    H12   S    
C2    C23   A    
C20   O9    S    
C9    H24   S    
