data_mof_unit_27938.cif
_audit_creation_date              2013-03-05T15:50:46-0500
_audit_creation_method            fapswitch 2.2
_symmetry_space_group_name_H-M    P1
_symmetry_Int_Tables_number       1
_space_group_crystal_system       triclinic
_cell_length_a                    14.340879
_cell_length_b                    14.81289
_cell_length_c                    32.984775
_cell_angle_alpha                 97.28681
_cell_angle_beta                  90.05372
_cell_angle_gamma                 118.992225
_cell_volume                      6063.62915474

loop_
_atom_site_label
_atom_site_type_symbol
_atom_site_description
_atom_site_fract_x
_atom_site_fract_y
_atom_site_fract_z
_atom_type_partial_charge
O1    O     O_R   0.318160 0.824460 0.443680 -0.497873
O2    O     O_R   0.525040 0.857250 0.449830 -0.505884
C1    C     C_R   0.617260 0.911010 0.436796 0.540785
O3    O     O_R   0.684760 0.998800 0.456360 -0.528710
O4    O     O_R   0.647540 0.166310 0.470260 -0.469285
C2    C     C_R   0.595032 0.206618 0.456714 0.564938
O5    O     O_R   0.500960 0.181750 0.467450 -0.519508
O6    O     O_R   0.331100 0.981120 0.457080 -0.474943
C3    C     C_R   0.293997 0.892848 0.434492 0.558284
O7    O     O_R   0.315560 0.821140 0.532010 -0.492195
O8    O     O_R   0.522630 0.854180 0.531710 -0.465045
C4    C     C_R   0.610843 0.905497 0.552892 0.559082
O9    O     O_R   0.682160 0.995480 0.544690 -0.503931
O10   O     O_R   0.645130 0.163230 0.552140 -0.475978
C5    C     C_R   0.591092 0.201930 0.570615 0.570711
O11   O     O_R   0.498360 0.178430 0.555780 -0.466698
O12   O     O_R   0.328690 0.978040 0.538950 -0.474511
C6    C     C_R   0.286713 0.885258 0.547942 0.579961
Cr1   Cr    Cr6+3 0.424820 0.846020 0.489780 1.008309
Cr2   Cr    Cr6+3 0.657880 0.078580 0.505700 1.019827
Cr3   Cr    Cr6+3 0.417280 0.075360 0.504550 1.031655
O13   O     O_3   0.499990 0.999990 0.500010 -0.257232
C7    C     C_R   0.738096 0.449355 0.106730 0.056346
C8    C     C_R   0.671448 0.460553 0.136355 0.084477
C9    C     C_R   0.690100 0.455574 0.177371 -0.149082
C10   C     C_R   0.775087 0.442011 0.190015 -0.023255
C11   C     C_R   0.833998 0.420282 0.160196 -0.098434
C12   C     C_R   0.814055 0.420870 0.118363 0.233457
C13   C     C_R   0.792165 0.353317 0.247423 0.130815
C14   C     C_R   0.787092 0.342596 0.289250 0.116208
C15   C     C_R   0.767836 0.411245 0.317172 0.050180
C16   C     C_R   0.775626 0.502308 0.304923 0.163802
C17   C     C_R   0.798513 0.521687 0.264263 0.130457
C18   C     C_R   0.792985 0.440891 0.234379 -0.001951
C19   C     C_R   0.614177 0.324277 0.360120 0.086953
C20   C     C_R   0.573395 0.275233 0.394573 -0.181149
C21   C     C_R   0.753708 0.336447 0.423333 0.123617
C22   C     C_R   0.795276 0.390915 0.389784 0.256279
C23   C     C_R   0.725646 0.378859 0.356910 0.038576
C24   C     C_R   0.641699 0.276077 0.425204 -0.031224
H1    H     H_    0.639002 0.464686 0.199840 0.125696
H2    H     H_    0.487500 0.230081 0.395869 0.150226
H3    H     H_    0.894114 0.401515 0.169483 0.137437
H4    H     H_    0.128284 0.690387 0.109525 0.142081
H5    H     H_    0.192409 0.740532 0.297978 0.123899
C25   C     C_R   0.242532 0.882513 0.393263 0.028924
C26   C     C_R   0.236968 0.969695 0.381727 0.139845
C27   C     C_R   0.232520 0.979881 0.339862 0.147916
C28   C     C_R   0.222690 0.899130 0.309747 -0.018673
C29   C     C_R   0.208185 0.805781 0.321302 -0.161560
C30   C     C_R   0.217305 0.796328 0.362717 0.080236
C31   C     C_R   0.181464 0.795002 0.165947 0.102563
C32   C     C_R   0.143317 0.765450 0.124703 -0.169449
C33   C     C_R   0.152362 0.932137 0.121795 0.266597
C34   C     C_R   0.191947 0.964059 0.163542 0.270182
C35   C     C_R   0.200324 0.892255 0.186010 0.007793
C36   C     C_1   0.216242 0.908769 0.230210 -0.000646
C37   C     C_1   0.221223 0.908153 0.266682 -0.038968
C38   C     C_R   0.120679 0.829578 0.103170 -0.045340
H6    H     H_    0.773701 0.036774 0.392466 0.133515
C39   C     C_R   0.637458 0.883962 0.394241 -0.073511
C40   C     C_R   0.566576 0.788370 0.370500 -0.143951
C41   C     C_R   0.566761 0.775871 0.327578 0.222081
C42   C     C_R   0.644566 0.858232 0.308668 0.045421
C43   C     C_R   0.722637 0.949282 0.332577 0.242157
C44   C     C_R   0.717786 0.962367 0.375023 -0.132104
C45   C     C_R   0.742176 0.933578 0.169140 0.153151
C46   C     C_R   0.761134 0.919866 0.127469 0.251727
C47   C     C_R   0.602009 0.748102 0.117928 0.093001
C48   C     C_R   0.584947 0.761968 0.159375 -0.158905
C49   C     C_R   0.657594 0.850914 0.185253 -0.040349
C50   C     C_1   0.649681 0.851951 0.228590 -0.023395
C51   C     C_1   0.645935 0.852577 0.264963 0.040502
C52   C     C_R   0.698602 0.821839 0.103003 0.006513
H7    H     H_    0.507019 0.725425 0.385057 0.131532
H8    H     H_    0.516356 0.701435 0.171739 0.108505
C53   C     C_R   0.628502 0.260445 0.613034 -0.033522
C54   C     C_R   0.555355 0.274904 0.638061 0.245396
C55   C     C_R   0.571589 0.288414 0.680669 0.111003
C56   C     C_R   0.671029 0.311552 0.698561 -0.028252
C57   C     C_R   0.755322 0.323884 0.673701 0.120062
C58   C     C_R   0.731243 0.289573 0.630894 0.205820
C59   C     C_R   0.768445 0.334697 0.847223 0.152275
C60   C     C_R   0.768449 0.353650 0.890182 0.251146
C61   C     C_R   0.597936 0.351264 0.883179 0.216247
C62   C     C_R   0.598509 0.332293 0.840601 -0.153075
C63   C     C_R   0.684912 0.328911 0.822639 -0.066610
C64   C     C_1   0.687154 0.324174 0.778973 -0.054661
C65   C     C_1   0.683533 0.319790 0.742355 -0.008736
C66   C     C_R   0.689028 0.373615 0.908097 -0.010328
H9    H     H_    0.533101 0.325140 0.821429 0.126977
C67   C     C_R   0.084451 0.762384 0.910331 -0.001743
C68   C     C_R   0.085075 0.841112 0.889701 0.120257
C69   C     C_R   0.108319 0.843170 0.848327 0.309593
C70   C     C_R   0.124233 0.763168 0.827225 -0.020223
C71   C     C_R   0.143555 0.699146 0.849570 -0.179269
C72   C     C_R   0.128965 0.701617 0.891371 0.090099
C73   C     C_R   0.193673 0.732038 0.760874 -0.196960
C74   C     C_R   0.196518 0.733183 0.718915 -0.164168
C75   C     C_R   0.122204 0.748560 0.697604 0.050903
C76   C     C_R   0.035530 0.749573 0.717507 0.167695
C77   C     C_R   0.028258 0.740726 0.759669 0.225682
C78   C     C_R   0.114214 0.742938 0.781924 0.030601
C79   C     C_R   0.212928 0.891132 0.656055 0.244074
C80   C     C_R   0.240099 0.927293 0.618082 0.077845
C81   C     C_R   0.145778 0.747926 0.583138 0.118711
C82   C     C_R   0.112133 0.711661 0.620764 0.088511
C83   C     C_R   0.148654 0.783372 0.657311 -0.007078
C84   C     C_R   0.218170 0.854666 0.582551 -0.014348
H10   H     H_    0.262521 0.731295 0.703597 0.102412
H11   H     H_    0.257475 0.729096 0.777151 0.113494
H12   H     H_    0.165063 0.643385 0.834250 0.125879
C85   C     C_R   0.657409 0.752789 0.913854 0.023056
C86   C     C_R   0.549268 0.680196 0.899301 0.082082
C87   C     C_R   0.505942 0.696257 0.864185 -0.109914
C88   C     C_R   0.570388 0.775453 0.841788 -0.043294
C89   C     C_R   0.674847 0.846674 0.856459 -0.127085
C90   C     C_R   0.717493 0.839540 0.892881 0.241728
C91   C     C_R   0.544141 0.869583 0.789521 0.138146
C92   C     C_R   0.562351 0.892548 0.749134 0.163232
C93   C     C_R   0.568037 0.819855 0.718571 0.018417
C94   C     C_R   0.544597 0.720341 0.727438 0.156330
C95   C     C_R   0.534315 0.700685 0.768088 0.147980
C96   C     C_R   0.539044 0.777398 0.799561 -0.027524
C97   C     C_R   0.499976 0.790392 0.647976 -0.195616
C98   C     C_R   0.511876 0.795868 0.606680 0.083990
C99   C     C_R   0.701859 0.920594 0.621590 0.214845
C100  C     C_R   0.689511 0.908275 0.663772 0.286477
C101  C     C_R   0.587131 0.842615 0.676234 -0.028057
C102  C     C_R   0.611212 0.869939 0.593243 -0.006539
H13   H     H_    0.424634 0.643076 0.852086 0.113960
H14   H     H_    0.421775 0.740986 0.658056 0.113778
H15   H     H_    0.725709 0.906586 0.838513 0.137932
O14   O     O_R   0.828710 0.851830 0.052170 -0.499565
O15   O     O_R   0.005980 0.823990 0.047210 -0.470170
C103  C     C_R   0.053896 0.781545 0.063552 0.549653
O16   O     O_R   0.031900 0.688850 0.050170 -0.543493
O17   O     O_R   0.830940 0.518420 0.048680 -0.473471
C104  C     C_R   0.743191 0.485727 0.066362 0.571342
O18   O     O_R   0.668160 0.499860 0.053480 -0.482399
O19   O     O_R   0.689170 0.693840 0.050110 -0.459350
C105  C     C_R   0.739489 0.789634 0.065524 0.549475
O20   O     O_R   0.803860 0.812940 0.962540 -0.454540
O21   O     O_R   0.982950 0.787950 0.964120 -0.459554
C106  C     C_R   0.025281 0.734349 0.947891 0.550838
O22   O     O_R   0.007050 0.649970 0.960540 -0.508773
O23   O     O_R   0.807910 0.482370 0.965590 -0.458016
C107  C     C_R   0.711997 0.436568 0.949425 0.561889
O24   O     O_R   0.643310 0.460980 0.963840 -0.473743
O25   O     O_R   0.666140 0.657800 0.967020 -0.502726
C108  C     C_R   0.710836 0.740243 0.949870 0.554473
Cr4   Cr    Cr6+3 0.903360 0.812540 0.006510 1.047152
Cr5   Cr    Cr6+3 0.914630 0.587050 0.006280 1.034217
Cr6   Cr    Cr6+3 0.673560 0.582680 0.008540 1.049416
O26   O     O_3   0.830520 0.660760 0.007110 -0.269149
N1    N     N_2   0.587200 0.479728 0.125577 -0.481589
H16   H     H_    0.575327 0.527767 0.147965 0.243079
C109  C     C_3   0.488412 0.386034 0.110752 -0.270330
H17   H     H_    0.428791 0.407406 0.100600 0.130670
H18   H     H_    0.455893 0.337053 0.135549 0.148418
H19   H     H_    0.501568 0.340270 0.084219 0.170802
N2    N     N_2   0.824405 0.343989 0.455578 -0.482412
H20   H     H_    0.875900 0.419669 0.468681 0.249299
C110  C     C_3   0.879344 0.284738 0.445732 -0.261514
H21   H     H_    0.939845 0.320421 0.423354 0.157015
H22   H     H_    0.821730 0.202947 0.432777 0.166205
H23   H     H_    0.920710 0.284062 0.474064 0.120083
N3    N     N_2   0.200560 0.728085 0.188352 -0.514929
H24   H     H_    0.277035 0.759535 0.201645 0.248662
C111  C     C_3   0.145013 0.616571 0.175631 -0.329432
H25   H     H_    0.155922 0.577541 0.200384 0.132283
H26   H     H_    0.178066 0.596460 0.147656 0.124359
H27   H     H_    0.058173 0.587947 0.170229 0.152681
N4    N     N_2   0.196106 0.698386 0.373339 -0.517163
H28   H     H_    0.126531 0.636748 0.358816 0.249361
C112  C     C_3   0.284328 0.676998 0.371076 -0.260114
H29   H     H_    0.270594 0.618407 0.343932 0.120858
H30   H     H_    0.290100 0.644501 0.398895 0.160576
H31   H     H_    0.360980 0.749073 0.369241 0.172032
N5    N     N_2   0.240026 0.049084 0.412185 -0.476716
H32   H     H_    0.267170 0.121657 0.403487 0.269489
C113  C     C_3   0.145848 0.016876 0.435232 -0.297771
H33   H     H_    0.158065 0.081785 0.459403 0.124029
H34   H     H_    0.130519 0.948592 0.450355 0.147060
H35   H     H_    0.074721 0.996035 0.414771 0.117705
O27   O     O_3   0.231904 0.067953 0.179916 -0.551528
C114  C     C_3   0.171241 0.078777 0.211962 -0.147906
H36   H     H_    0.092288 0.008111 0.213454 0.079250
H37   H     H_    0.156398 0.144092 0.208027 0.120398
H38   H     H_    0.218855 0.100719 0.241452 0.138201
O28   O     O_3   0.151959 0.002611 0.098073 -0.556067
C115  C     C_3   0.069112 0.024491 0.108725 -0.041365
H39   H     H_    0.996892 0.955910 0.117516 0.145972
H40   H     H_    0.044289 0.047380 0.081682 0.162819
H41   H     H_    0.098530 0.091735 0.133598 0.141190
O29   O     O_3   0.857165 0.381741 0.087851 -0.566242
C116  C     C_3   0.969589 0.435255 0.092786 -0.119520
H42   H     H_    0.001949 0.520914 0.098090 0.123752
H43   H     H_    0.000659 0.416753 0.063969 0.132728
H44   H     H_    0.998749 0.408969 0.117558 0.094611
N6    N     N_2   0.241144 0.073037 0.328488 -0.529668
H45   H     H_    0.288117 0.099023 0.304470 0.244958
C117  C     C_3   0.140223 0.070720 0.322866 -0.339543
H46   H     H_    0.154539 0.147218 0.315371 0.124691
H47   H     H_    0.097788 0.056339 0.351375 0.153478
H48   H     H_    0.089560 0.008681 0.297362 0.127713
O30   O     O_3   0.845122 0.000427 0.111798 -0.582695
C118  C     C_3   0.804718 0.055103 0.092419 -0.102948
H49   H     H_    0.767857 0.089505 0.114545 0.139057
H50   H     H_    0.746215 0.004183 0.066214 0.104430
H51   H     H_    0.872110 0.120340 0.080026 0.138996
N7    N     N_2   0.808751 0.030216 0.194511 -0.489766
H52   H     H_    0.771225 0.048531 0.218224 0.266948
C119  C     C_3   0.911140 0.044009 0.208103 -0.284871
H53   H     H_    0.959130 0.122639 0.226201 0.116317
H54   H     H_    0.955639 0.037908 0.181451 0.166147
H55   H     H_    0.900126 0.984057 0.227579 0.136672
O31   O     O_3   0.797994 0.029720 0.313867 -0.571368
C120  C     C_3   0.897625 0.035073 0.320523 -0.157168
H56   H     H_    0.893741 0.958592 0.310260 0.116356
H57   H     H_    0.927898 0.063077 0.353247 0.103419
H58   H     H_    0.956020 0.092102 0.302173 0.115838
N8    N     N_2   0.523700 0.657699 0.092030 -0.469246
H59   H     H_    0.473045 0.597467 0.107304 0.238926
C121  C     C_3   0.466095 0.678954 0.061961 -0.287794
H60   H     H_    0.411379 0.605335 0.041787 0.133515
H61   H     H_    0.522081 0.734745 0.042461 0.151281
H62   H     H_    0.418044 0.711740 0.077513 0.124221
O32   O     O_3   0.493905 0.680814 0.305327 -0.583274
C122  C     C_3   0.418526 0.692001 0.281832 -0.135553
H63   H     H_    0.444143 0.704822 0.250409 0.126012
H64   H     H_    0.402384 0.755161 0.295905 0.108570
H65   H     H_    0.341790 0.617709 0.278520 0.126185
O33   O     O_3   0.851249 0.360245 0.914186 -0.543474
C123  C     C_3   0.813924 0.265684 0.930154 -0.111875
H66   H     H_    0.784044 0.197904 0.905230 0.108235
H67   H     H_    0.750547 0.254485 0.951593 0.106264
H68   H     H_    0.881455 0.268387 0.947716 0.129208
O34   O     O_3   0.904661 0.447883 0.387580 -0.587097
C124  C     C_3   0.940963 0.552042 0.405688 -0.151224
H69   H     H_    0.892273 0.560972 0.430653 0.090724
H70   H     H_    0.944237 0.599573 0.381737 0.132897
H71   H     H_    0.023220 0.584201 0.419662 0.159951
N9    N     N_2   0.851728 0.320157 0.829408 -0.491272
H72   H     H_    0.830633 0.274138 0.801190 0.240482
C125  C     C_3   0.953560 0.414149 0.830245 -0.271655
H73   H     H_    0.014896 0.393383 0.819347 0.130101
H74   H     H_    0.979864 0.457249 0.861746 0.199545
H75   H     H_    0.947765 0.465297 0.809810 0.116803
N10   N     N_2   0.862184 0.366764 0.691461 -0.517658
H76   H     H_    0.915548 0.360100 0.672260 0.267644
C126  C     C_3   0.908281 0.471101 0.714107 -0.303604
H77   H     H_    0.889398 0.521760 0.697612 0.153414
H78   H     H_    0.996474 0.506090 0.718394 0.129390
H79   H     H_    0.878403 0.468764 0.744961 0.160625
O35   O     O_3   0.809642 0.291246 0.605998 -0.578378
C127  C     C_3   0.819721 0.201567 0.608142 -0.055524
H80   H     H_    0.743193 0.131899 0.613195 0.151303
H81   H     H_    0.881304 0.216981 0.632333 0.087771
H82   H     H_    0.847331 0.181778 0.578650 0.176386
O36   O     O_3   0.461873 0.265471 0.621599 -0.532656
C128  C     C_3   0.486535 0.359127 0.606596 -0.115702
H83   H     H_    0.532592 0.428801 0.630134 0.099688
H84   H     H_    0.410716 0.357107 0.597941 0.113461
H85   H     H_    0.531986 0.367593 0.578747 0.126532
O37   O     O_3   0.514554 0.361635 0.899765 -0.556210
C129  C     C_3   0.425030 0.261519 0.898524 -0.127184
H86   H     H_    0.443853 0.210629 0.915100 0.107179
H87   H     H_    0.393857 0.223899 0.866452 0.096625
H88   H     H_    0.360447 0.269652 0.914130 0.134594
N11   N     N_2   0.484408 0.272729 0.705062 -0.489084
H89   H     H_    0.475774 0.231212 0.728941 0.237580
C130  C     C_3   0.468552 0.361868 0.715651 -0.265135
H90   H     H_    0.390819 0.344284 0.700995 0.161627
H91   H     H_    0.533449 0.433496 0.705519 0.171554
H92   H     H_    0.466179 0.377295 0.749368 0.124489
N12   N     N_2   0.059441 0.916381 0.909938 -0.449081
H93   H     H_    0.024299 0.943683 0.891132 0.315207
C131  C     C_3   0.145248 0.999713 0.937249 -0.287551
H94   H     H_    0.116169 0.050311 0.953788 0.136421
H95   H     H_    0.213339 0.047817 0.919547 0.111851
H96   H     H_    0.173061 0.967729 0.960281 0.151946
N13   N     N_2   0.157727 0.640653 0.913130 -0.521132
H97   H     H_    0.094924 0.572684 0.920210 0.287054
C132  C     C_3   0.241854 0.699116 0.945521 -0.296295
H98   H     H_    0.257970 0.644802 0.960645 0.128413
H99   H     H_    0.218546 0.743300 0.969176 0.153325
H100  H     H_    0.316289 0.754334 0.932551 0.148773
N14   N     N_2   0.041738 0.603438 0.621266 -0.495427
H101  H     H_    0.978341 0.587797 0.639140 0.250833
C133  C     C_3   0.093796 0.543446 0.628320 -0.306478
H102  H     H_    0.120200 0.556927 0.661170 0.125697
H103  H     H_    0.164226 0.564420 0.609861 0.131592
H104  H     H_    0.036563 0.459200 0.619402 0.170896
N15   N     N_2   0.791209 0.256210 0.302041 -0.500477
H105  H     H_    0.735435 0.216259 0.321976 0.263342
C134  C     C_3   0.897861 0.274966 0.312609 -0.246604
H106  H     H_    0.901980 0.254590 0.343597 0.162696
H107  H     H_    0.959594 0.357904 0.312559 0.150306
H108  H     H_    0.917214 0.225738 0.289931 0.153504
O38   O     O_3   0.103810 0.917297 0.827904 -0.550635
C135  C     C_3   0.208269 0.990108 0.819714 -0.127233
H109  H     H_    0.238852 0.955536 0.794987 0.136308
H110  H     H_    0.264289 0.021614 0.847685 0.079144
H111  H     H_    0.205920 0.056806 0.808778 0.143407
N16   N     N_2   0.955839 0.759053 0.695512 -0.553422
H112  H     H_    0.937628 0.721997 0.665669 0.237911
C136  C     C_3   0.970667 0.863663 0.699053 -0.288394
H113  H     H_    0.033580 0.910460 0.679256 0.170737
H114  H     H_    0.993009 0.903404 0.731248 0.188638
H115  H     H_    0.894817 0.859421 0.688858 0.180933
N17   N     N_2   0.937837 0.734444 0.780189 -0.467697
H116  H     H_    0.891724 0.758933 0.766092 0.276652
C137  C     C_3   0.874320 0.640352 0.798049 -0.318972
H117  H     H_    0.813218 0.579303 0.774745 0.125891
H118  H     H_    0.833944 0.657824 0.824082 0.157078
H119  H     H_    0.923739 0.609732 0.810143 0.144496
O39   O     O_3   0.241741 0.961322 0.691901 -0.571996
C138  C     C_3   0.346737 0.989474 0.705936 -0.125305
H120  H     H_    0.406488 0.032053 0.684273 0.118557
H121  H     H_    0.353948 0.920784 0.711482 0.126238
H122  H     H_    0.367497 0.041908 0.735560 0.130342
N18   N     N_2   0.286036 0.035710 0.615336 -0.446605
H123  H     H_    0.327327 0.085146 0.641649 0.314146
C139  C     C_3   0.211398 0.063532 0.598779 -0.257590
H124  H     H_    0.146783 0.049547 0.619853 0.118961
H125  H     H_    0.175403 0.017326 0.568191 0.132709
H126  H     H_    0.253700 0.147374 0.595204 0.173604
N19   N     N_2   0.094676 0.682137 0.545360 -0.497842
H127  H     H_    0.013259 0.654135 0.542836 0.249410
C140  C     C_3   0.123729 0.603293 0.531003 -0.266908
H128  H     H_    0.067312 0.527973 0.541187 0.150020
H129  H     H_    0.206334 0.626802 0.542044 0.163747
H130  H     H_    0.118752 0.591574 0.496997 0.136579
N20   N     N_2   0.488818 0.588639 0.918159 -0.499242
H131  H     H_    0.524232 0.542505 0.917849 0.319031
C141  C     C_3   0.374296 0.527204 0.909113 -0.310018
H132  H     H_    0.339429 0.470770 0.931256 0.146037
H133  H     H_    0.355856 0.482654 0.877715 0.138073
H134  H     H_    0.337276 0.578007 0.912010 0.160981
N21   N     N_2   0.788740 0.272136 0.218117 -0.513436
H135  H     H_    0.838379 0.244096 0.226051 0.273167
C142  C     C_3   0.682134 0.189707 0.203847 -0.290579
H136  H     H_    0.643043 0.143221 0.228764 0.148786
H137  H     H_    0.686844 0.137243 0.177742 0.150000
H138  H     H_    0.632888 0.222472 0.193124 0.163746
O40   O     O_3   0.823652 0.910279 0.904667 -0.538359
C143  C     C_3   0.832438 0.007311 0.920577 -0.116827
H139  H     H_    0.778708 0.999743 0.945832 0.104544
H140  H     H_    0.816075 0.043892 0.896080 0.098365
H141  H     H_    0.915697 0.060502 0.933529 0.133672
O41   O     O_3   0.775856 0.951584 0.692724 -0.574710
C144  C     C_3   0.836801 0.060784 0.693969 -0.093676
H142  H     H_    0.789453 0.097117 0.684630 0.108568
H143  H     H_    0.905777 0.080348 0.674822 0.159275
H144  H     H_    0.869947 0.096294 0.725930 0.119754
N22   N     N_2   0.573724 0.988569 0.739510 -0.515196
H145  H     H_    0.559791 0.992253 0.709265 0.231575
C145  C     C_3   0.661386 0.083149 0.761268 -0.266197
H146  H     H_    0.704144 0.139132 0.739657 0.121513
H147  H     H_    0.719980 0.067683 0.776830 0.163303
H148  H     H_    0.629003 0.119174 0.784544 0.180216
N23   N     N_2   0.536685 0.942648 0.820209 -0.508167
H149  H     H_    0.568213 0.949525 0.849208 0.244094
C146  C     C_3   0.432764 0.935868 0.820803 -0.310688
H150  H     H_    0.438022 0.003220 0.841806 0.122840
H151  H     H_    0.374436 0.862782 0.832029 0.140096
H152  H     H_    0.404611 0.938090 0.789771 0.165487
N24   N     N_2   0.534887 0.639899 0.695951 -0.497927
H153  H     H_    0.577618 0.664121 0.670696 0.249654
C147  C     C_3   0.426578 0.555346 0.685639 -0.314225
H154  H     H_    0.426439 0.496671 0.661195 0.117738
H155  H     H_    0.374537 0.584135 0.674342 0.120333
H156  H     H_    0.391953 0.516406 0.712703 0.169634
N25   N     N_2   0.527363 0.605925 0.776894 -0.509318
H157  H     H_    0.473258 0.568386 0.797604 0.239600
C148  C     C_3   0.628964 0.609562 0.782860 -0.291726
H158  H     H_    0.615721 0.531773 0.788088 0.131265
H159  H     H_    0.675895 0.667119 0.809995 0.155695
H160  H     H_    0.674931 0.631080 0.755291 0.177508
N26   N     N_2   0.422158 0.725654 0.579044 -0.456442
H161  H     H_    0.349354 0.704791 0.591136 0.236991
C149  C     C_3   0.428752 0.636066 0.559428 -0.298104
H162  H     H_    0.359429 0.588288 0.536725 0.115916
H163  H     H_    0.427587 0.587260 0.582618 0.115813
H164  H     H_    0.503089 0.661266 0.543029 0.148457
O42   O     O_3   0.801616 0.982671 0.608413 -0.592375
C150  C     C_3   0.844443 0.918296 0.593141 -0.128846
H165  H     H_    0.796141 0.863481 0.565454 0.108106
H166  H     H_    0.851112 0.874378 0.616955 0.122711
H167  H     H_    0.926244 0.968395 0.584023 0.123936
N27   N     N_2   0.760220 0.574641 0.333193 -0.520558
H168  H     H_    0.770119 0.572792 0.363960 0.232803
C151  C     C_3   0.673538 0.593496 0.322736 -0.227502
H169  H     H_    0.612080 0.565564 0.345428 0.140636
H170  H     H_    0.633991 0.552933 0.291804 0.182614
H171  H     H_    0.705574 0.678561 0.323438 0.168790
N28   N     N_2   0.827013 0.622556 0.254123 -0.508363
H172  H     H_    0.812391 0.626060 0.223996 0.251572
C152  C     C_3   0.933401 0.703315 0.269735 -0.289132
H173  H     H_    0.946685 0.779863 0.262672 0.131115
H174  H     H_    0.994251 0.686617 0.255046 0.151036
H175  H     H_    0.943819 0.709039 0.303501 0.176282
N29   N     N_2   0.542231 0.315956 0.328248 -0.511168
H176  H     H_    0.477807 0.322027 0.339181 0.253437
C153  C     C_3   0.508501 0.225767 0.297198 -0.309446
H177  H     H_    0.450042 0.223357 0.274386 0.142554
H178  H     H_    0.471056 0.152909 0.311285 0.146313
H179  H     H_    0.577091 0.229919 0.280687 0.166098

loop_
_geom_bond_atom_site_label_1
_geom_bond_atom_site_label_2
_geom_bond_distance
_ccdc_geom_bond_type
N22   H145  1.030608 S    
N6    C117  1.442213 S    
C85   C108  1.491699 S    
C20   H2    1.084074 S    
N8    H59   1.031510 S    
C34   C35   1.420780 A    
C89   H15   1.084706 S    
C106  O22   1.272956 A    
O38   C135  1.410243 S    
C117  H47   1.107362 S    
C4    C102  1.493124 S    
C85   C86   1.429309 A    
O4    C2    1.275157 A    
O19   Cr6   1.926370 S    
C81   C82   1.407354 A    
N10   C126  1.448943 S    
N11   H89   1.031108 S    
C121  H62   1.111648 S    
N9    H72   1.030110 S    
C134  H107  1.113229 S    
C116  H43   1.109158 S    
C113  H33   1.110305 S    
C148  H160  1.110896 S    
H4    C32   1.076865 S    
C112  H31   1.109376 S    
C133  H102  1.108299 S    
C70   C78   1.478996 S    
C68   N12   1.425786 S    
C39   C40   1.404801 A    
C136  H115  1.108125 S    
O20   C108  1.267339 A    
C3    C25   1.501125 S    
Cr3   O13   1.979250 S    
C79   C80   1.405840 A    
C144  H143  1.109541 S    
N5    C113  1.448774 S    
C14   N15   1.424472 S    
C141  H132  1.110248 S    
N2    C110  1.447429 S    
C61   C66   1.414695 A    
O28   C115  1.408983 S    
C115  H41   1.108132 S    
C86   N20   1.432857 S    
N27   C151  1.449987 S    
C9    H1    1.084443 S    
N20   C141  1.447703 S    
O29   C116  1.407869 S    
C137  H117  1.109384 S    
C74   H10   1.083967 S    
C59   N9    1.427149 S    
C55   N11   1.425560 S    
C113  H35   1.109902 S    
C21   C22   1.411507 A    
N25   H157  1.028114 S    
C77   N17   1.431400 S    
O41   C144  1.412336 S    
Cr1   O13   1.974449 S    
C46   O30   1.380668 S    
N16   H112  1.030521 S    
O16   Cr5   2.044835 S    
C47   C52   1.423111 A    
C8    C9    1.396831 A    
C122  H64   1.115505 S    
Cr6   O26   1.974084 S    
N3    H24   1.031546 S    
C94   N24   1.429291 S    
N26   H161  1.031477 S    
C153  H178  1.111249 S    
C40   H7    1.082469 S    
C82   C83   1.410876 A    
C149  H162  1.109993 S    
C141  H134  1.107463 S    
O9    Cr2   2.026502 S    
O2    Cr1   1.912375 S    
C119  H53   1.110152 S    
C50   C51   1.200056 T    
C104  O18   1.273690 A    
C2    O5    1.278029 A    
O21   C106  1.282779 A    
C100  O41   1.388915 S    
N1    C109  1.446692 S    
C132  H99   1.109908 S    
C146  H150  1.110246 S    
C42   C43   1.399723 A    
H5    C29   1.084579 S    
O7    C6    1.266513 A    
C143  H139  1.114186 S    
C17   C18   1.420905 A    
C131  H95   1.111005 S    
C47   C48   1.396130 A    
O23   Cr5   1.927639 S    
C151  H169  1.111084 S    
N20   H131  1.029434 S    
O3    Cr2   2.036843 S    
C134  H106  1.111201 S    
C97   C101  1.380968 A    
N7    H52   1.031265 S    
C73   C74   1.386659 A    
C145  H146  1.108894 S    
C16   N27   1.429259 S    
N18   C139  1.448255 S    
O27   C114  1.412010 S    
C73   C78   1.399313 A    
C21   N2    1.424661 S    
C134  H108  1.107491 S    
C138  H121  1.108431 S    
O11   Cr3   2.039470 S    
O23   C107  1.280155 A    
C6    C84   1.475234 S    
C100  C101  1.410289 A    
C130  H92   1.110573 S    
C95   C96   1.414022 A    
N15   C134  1.449314 S    
O4    Cr2   1.910267 S    
C61   C62   1.397708 A    
C35   C36   1.446474 S    
C81   N19   1.427382 S    
C26   N5    1.429828 S    
C53   C58   1.421873 A    
C133  H103  1.110111 S    
C21   C24   1.416140 A    
C22   C23   1.407411 A    
C129  H88   1.109334 S    
C119  H54   1.106812 S    
C111  H25   1.110221 S    
C46   C52   1.415270 A    
O15   Cr4   1.921816 S    
C38   C103  1.494132 S    
C90   O40   1.384196 S    
N17   H116  1.029487 S    
C127  H80   1.115034 S    
C139  H125  1.110956 S    
N4    H28   1.031357 S    
C15   C16   1.409799 A    
C150  H165  1.112950 S    
C42   C51   1.434097 S    
C17   N28   1.430541 S    
C112  H30   1.109550 S    
N12   H93   1.030989 S    
C71   C72   1.393314 A    
N19   C140  1.446943 S    
C122  H63   1.108317 S    
C60   C66   1.420335 A    
C91   N23   1.428962 S    
O32   C122  1.414673 S    
C136  H114  1.111235 S    
C67   C72   1.422626 A    
N14   H101  1.029233 S    
C33   C38   1.409044 A    
N21   C142  1.446720 S    
C135  H110  1.113721 S    
C75   C83   1.470153 S    
N29   H176  1.031819 S    
C146  H152  1.110168 S    
C9    C10   1.399072 A    
C25   C30   1.414616 A    
C143  H141  1.109351 S    
C47   N8    1.426315 S    
C115  H40   1.109296 S    
C30   N4    1.421816 S    
C60   O33   1.382960 S    
C13   C14   1.406595 A    
C59   C60   1.409160 A    
N23   H149  1.029360 S    
C147  H156  1.109058 S    
O12   C6    1.281005 A    
C7    C12   1.413407 A    
C64   C65   1.201064 T    
C95   N25   1.425619 S    
C126  H79   1.102675 S    
C142  H137  1.109577 S    
C123  H68   1.109291 S    
N28   C152  1.448096 S    
C1    O3    1.268956 A    
C92   C93   1.411510 A    
C80   N18   1.425744 S    
C80   C84   1.407581 A    
C125  H73   1.110135 S    
C61   O37   1.382299 S    
C152  H173  1.110858 S    
C129  H86   1.114279 S    
N8    C121  1.447435 S    
C86   C87   1.412847 A    
C128  H83   1.113189 S    
C127  H82   1.109004 S    
C149  H164  1.111281 S    
C49   C50   1.432789 S    
N15   H105  1.031121 S    
C89   C90   1.386378 A    
C120  H58   1.107330 S    
C36   C37   1.206538 T    
C5    C53   1.495662 S    
C150  H167  1.109367 S    
C75   C76   1.411863 A    
C12   O29   1.389831 S    
N9    C125  1.446053 S    
C145  H148  1.107639 S    
C77   C78   1.418629 A    
C140  H130  1.109867 S    
C113  H34   1.110355 S    
C148  H159  1.109051 S    
C41   C42   1.413228 A    
C8    N1    1.422763 S    
C4    O9    1.290873 A    
C28   C29   1.398425 A    
N13   H97   1.029766 S    
O25   C108  1.280369 A    
C126  H77   1.110301 S    
N24   C147  1.449848 S    
C125  H75   1.107126 S    
C59   C63   1.407493 A    
C63   C64   1.434228 S    
C76   C77   1.412549 A    
O34   C124  1.412562 S    
C57   N10   1.433701 S    
C142  H136  1.110918 S    
C128  H85   1.111517 S    
C144  H142  1.114232 S    
O15   C103  1.289239 A    
C53   C54   1.415032 A    
C31   C32   1.398941 A    
O8    Cr1   1.919519 S    
C10   C11   1.403448 A    
C110  H21   1.110239 S    
C98   N26   1.424138 S    
C62   H9    1.084692 S    
C72   N13   1.423273 S    
C14   C15   1.411974 A    
C98   C102  1.427949 A    
C1    C39   1.478286 S    
C137  H118  1.108790 S    
C147  H154  1.107260 S    
N6    H45   1.027896 S    
C34   O27   1.386440 S    
C56   C65   1.437822 S    
C114  H38   1.105204 S    
C109  H19   1.111248 S    
C33   C34   1.419558 A    
C118  H49   1.113227 S    
N16   C136  1.447295 S    
C123  H66   1.113741 S    
C48   C49   1.390085 A    
Cr5   O26   1.979145 S    
C41   O32   1.386811 S    
C137  H119  1.106393 S    
N3    C111  1.444715 S    
O21   Cr4   1.915019 S    
H6    C44   1.081835 S    
N22   C145  1.447135 S    
C109  H18   1.111812 S    
C58   O35   1.385252 S    
C152  H175  1.110620 S    
C141  H133  1.111266 S    
C117  H48   1.111575 S    
C99   O42   1.381461 S    
O1    Cr1   2.037839 S    
C45   C46   1.409930 A    
O10   Cr2   1.920344 S    
O1    C3    1.286893 A    
C120  H56   1.114763 S    
C62   C63   1.393881 A    
C103  O16   1.267205 A    
N10   H76   1.027042 S    
O5    Cr3   2.019874 S    
C13   C18   1.412390 A    
C124  H71   1.108807 S    
N18   H123  1.028433 S    
C116  H44   1.109971 S    
C19   C23   1.410481 A    
O24   Cr6   2.044106 S    
C132  H98   1.109700 S    
O14   C105  1.281106 A    
Cr4   O26   1.970050 S    
O7    Cr1   2.026274 S    
O14   Cr4   2.034144 S    
C143  H140  1.111553 S    
C29   C30   1.403138 A    
C45   N7    1.425053 S    
C93   C94   1.414457 A    
C151  H170  1.112082 S    
O17   Cr5   1.900250 S    
C27   C28   1.404389 A    
Cr2   O13   1.976350 S    
C97   C98   1.380640 A    
O33   C123  1.409538 S    
C69   O38   1.385670 S    
C99   C100  1.426215 A    
C79   C83   1.410631 A    
C144  H144  1.109051 S    
N5    H32   1.030667 S    
C126  H78   1.110797 S    
N2    H20   1.030949 S    
C25   C26   1.429466 A    
C88   C96   1.471213 S    
C110  H23   1.110149 S    
C93   C101  1.472885 S    
N27   H168  1.030226 S    
C151  H171  1.109404 S    
N23   C146  1.444627 S    
C91   C92   1.409981 A    
C79   O39   1.385823 S    
C16   C17   1.412773 A    
C131  H94   1.110377 S    
C114  H36   1.115525 S    
C129  H87   1.112458 S    
O36   C128  1.411899 S    
O22   Cr5   2.016070 S    
C111  H26   1.110327 S    
C118  H51   1.109321 S    
C67   C68   1.419268 A    
N17   C137  1.448444 S    
C45   C49   1.407012 A    
C69   C70   1.412163 A    
N4    C112  1.445479 S    
O17   C104  1.280832 A    
C138  H120  1.110955 S    
C11   H3    1.080637 S    
C150  H166  1.113174 S    
N26   C149  1.446585 S    
O30   C118  1.409204 S    
C153  H177  1.110515 S    
C87   C88   1.395088 A    
C111  H27   1.109501 S    
O12   Cr3   1.903153 S    
C117  H46   1.110369 S    
C68   C69   1.405704 A    
N13   C132  1.448131 S    
N19   H127  1.031432 S    
C70   C71   1.396802 A    
C140  H128  1.110306 S    
C57   C58   1.420616 A    
C32   C38   1.407793 A    
C87   H13   1.080932 S    
C91   C96   1.413378 A    
C71   H12   1.083576 S    
C135  H111  1.109066 S    
C40   C41   1.404534 A    
C7    C104  1.487462 S    
N1    H16   1.032041 S    
N29   C153  1.446821 S    
C132  H100  1.111202 S    
C146  H151  1.110516 S    
C43   O31   1.381310 S    
C5    O11   1.279049 A    
C88   C89   1.388665 A    
C122  H65   1.108746 S    
C131  H96   1.111124 S    
C124  H69   1.116305 S    
C66   C107  1.488387 S    
C121  H61   1.110810 S    
C22   O34   1.382287 S    
C39   C44   1.403177 A    
C10   C18   1.488966 S    
O6    C3    1.275010 A    
C147  H155  1.107258 S    
C153  H179  1.103997 S    
C130  H91   1.112165 S    
C52   C105  1.490838 S    
C138  H122  1.108798 S    
C123  H67   1.112858 S    
C116  H42   1.108461 S    
O42   C150  1.409517 S    
C19   N29   1.423637 S    
N25   C148  1.444053 S    
C125  H74   1.107718 S    
C33   O28   1.383865 S    
C26   C27   1.412698 A    
C139  H124  1.111928 S    
C20   C24   1.401269 A    
C133  H104  1.109527 S    
C107  O24   1.276591 A    
C152  H174  1.112234 S    
C54   C55   1.397248 A    
C128  H84   1.109206 S    
C76   N16   1.425491 S    
C27   N6    1.423428 S    
C28   C37   1.444608 S    
C55   C56   1.404525 A    
C127  H81   1.107153 S    
C92   N22   1.428367 S    
C139  H126  1.109630 S    
C149  H163  1.112052 S    
O39   C138  1.412977 S    
C120  H57   1.112016 S    
C74   C75   1.398682 A    
C7    C8    1.417827 A    
O35   C127  1.414381 S    
C124  H70   1.109580 S    
C121  H60   1.110484 S    
C145  H147  1.112516 S    
C140  H129  1.106505 S    
C148  H158  1.109902 S    
C112  H29   1.109289 S    
N12   C131  1.446674 S    
C48   H8    1.084627 S    
C54   O36   1.381826 S    
C136  H113  1.109332 S    
N24   H153  1.030456 S    
N11   C130  1.446163 S    
C135  H109  1.110087 S    
O20   Cr4   2.036201 S    
C73   H11   1.082130 S    
C67   C106  1.489379 S    
O10   C5    1.281970 A    
N7    C119  1.443435 S    
C56   C57   1.411680 A    
C119  H55   1.111413 S    
O6    Cr3   1.922838 S    
O8    C4    1.264036 A    
C13   N21   1.425021 S    
C115  H39   1.115404 S    
C110  H22   1.109396 S    
O2    C1    1.278686 A    
C99   C102  1.414709 A    
O40   C143  1.410728 S    
O19   C105  1.271397 A    
C31   N3    1.432592 S    
C97   H14   1.081978 S    
O31   C120  1.407528 S    
C109  H17   1.110031 S    
N14   C133  1.447900 S    
C15   C23   1.481193 S    
C2    C24   1.480480 S    
C114  H37   1.108915 S    
O37   C129  1.410003 S    
C85   C90   1.423238 A    
C31   C35   1.402329 A    
C118  H50   1.113433 S    
C43   C44   1.395352 A    
O25   Cr6   1.904260 S    
C142  H138  1.111206 S    
C11   C12   1.410890 A    
N21   H135  1.030335 S    
N28   H172  1.028304 S    
C19   C20   1.400044 A    
C94   C95   1.400782 A    
C81   C84   1.412348 A    
C82   N14   1.423837 S    
O18   Cr6   2.019354 S    
C130  H90   1.108957 S    
