data_mof_unit_5314.cif
_audit_creation_date              2012-12-11T14:48:06-0500
_audit_creation_method            fapswitch 2.2
_symmetry_space_group_name_H-M    P1
_symmetry_Int_Tables_number       1
_space_group_crystal_system       triclinic
_cell_length_a                    11.488822
_cell_length_b                    11.469145
_cell_length_c                    19.456053
_cell_angle_alpha                 90.78194
_cell_angle_beta                  89.990735
_cell_angle_gamma                 60.207957
_cell_volume                      2224.55851054

loop_
_atom_site_label
_atom_site_type_symbol
_atom_type_description
_atom_site_fract_x
_atom_site_fract_y
_atom_site_fract_z
_atom_type_partial_charge
C1    C     C_R   0.641875 0.119337 0.598313 0.541875
C2    C     C_1   0.604079 0.770805 0.676618 -0.000987
C3    C     C_1   0.148757 0.187316 0.863600 0.004292
C4    C     C_1   0.230348 0.143821 0.735956 -0.027923
C5    C     C_1   0.190623 0.162827 0.805489 -0.026050
C6    C     C_1   0.261085 0.132277 0.676136 -0.002304
C7    C     C_1   0.716195 0.219309 0.852186 0.002939
C8    C     C_1   0.679395 0.186376 0.722616 -0.024652
C9    C     C_1   0.698285 0.206734 0.792275 -0.028222
C10   C     C_1   0.663154 0.161195 0.664393 0.007351
C11   C     C_R   0.490925 0.799158 0.279752 0.063153
C12   C     C_R   0.579539 0.805053 0.605645 0.535300
C13   C     C_R   0.512022 0.771998 0.209278 -0.013204
C14   C     C_R   0.644444 0.707190 0.183241 -0.006158
C15   C     C_R   0.748628 0.699894 0.223396 -0.165750
C16   C     C_R   0.725564 0.738273 0.291843 -0.173581
C17   C     C_R   0.599225 0.780275 0.321425 0.042155
C18   C     C_R   0.276623 0.186827 0.284400 -0.136644
C19   C     C_R   0.239991 0.210071 0.216292 -0.144150
C20   C     C_R   0.129236 0.201946 0.194496 0.026877
C21   C     C_R   0.054209 0.171098 0.240616 -0.131331
C22   C     C_R   0.088795 0.150738 0.309596 -0.048469
C23   C     C_R   0.299256 0.120013 0.605312 0.537166
C24   C     C_R   0.200555 0.158977 0.331273 0.023827
C25   C     C_R   0.743359 0.035692 0.288168 -0.125376
C26   C     C_R   0.743813 0.056143 0.218864 -0.137629
C27   C     C_R   0.668759 0.185909 0.192912 0.015233
C28   C     C_R   0.583619 0.293462 0.236389 -0.145474
C29   C     C_R   0.578944 0.271485 0.306133 -0.140653
C30   C     C_R   0.661203 0.142736 0.332283 0.041109
C31   C     C_R   0.085390 0.229315 0.929531 0.542299
C32   C     C_R   0.682616 0.607643 0.930303 0.537882
C33   C     C_R   0.741628 0.231866 0.923088 0.555053
C34   C     C_R   0.644609 0.111567 0.402034 0.557064
C35   C     C_R   0.081526 0.236770 0.125471 0.554248
C36   C     C_R   0.678765 0.620807 0.122454 0.547476
C37   C     C_R   0.706361 0.210851 0.126125 0.547963
C38   C     C_R   0.580831 0.803936 0.395418 0.587376
C39   C     C_R   0.243949 0.140608 0.401613 0.564265
C40   C     C_1   0.660322 0.668138 0.864317 0.005935
C41   C     C_1   0.622412 0.743300 0.736530 -0.027243
C42   C     C_1   0.642714 0.707180 0.806149 -0.025353
Cr1   Cr    Cr6+3 0.404720 0.198220 0.499960 1.026460
Cr2   Cr    Cr6+3 0.698290 0.897110 0.500380 1.040395
Cr3   Cr    Cr6+3 0.396970 0.904720 0.499610 1.058413
Cr4   Cr    Cr6+3 0.926180 0.152240 0.028110 1.048326
Cr5   Cr    Cr6+3 0.921340 0.452070 0.027460 1.031780
Cr6   Cr    Cr6+3 0.626260 0.447120 0.028700 1.047345
H1    H     H_    0.809702 0.971361 0.186157 0.141653
H2    H     H_    0.526143 0.394750 0.217270 0.141828
H3    H     H_    0.512318 0.354460 0.339554 0.136707
H4    H     H_    0.850387 0.654166 0.203694 0.147584
H5    H     H_    0.809814 0.724792 0.322560 0.143555
H6    H     H_    0.364356 0.191488 0.300891 0.137136
H7    H     H_    0.297272 0.234492 0.180881 0.127362
H8    H     H_    0.966352 0.167403 0.223210 0.141971
H9    H     H_    0.805844 0.934995 0.306877 0.137632
O1    O     O_R   0.267740 0.231990 0.575440 -0.483418
O2    O     O_R   0.685970 0.784630 0.430010 -0.505756
O3    O     O_R   0.502530 0.766960 0.423990 -0.461673
O4    O     O_R   0.288330 0.026310 0.429250 -0.480388
O5    O     O_3   0.499990 0.000020 0.499980 -0.329893
O6    O     O_R   0.821500 0.119550 0.952820 -0.497689
O7    O     O_R   0.037130 0.162750 0.957360 -0.505050
O8    O     O_R   0.056440 0.344950 0.951330 -0.501243
O9    O     O_R   0.797900 0.560570 0.957460 -0.496231
O10   O     O_R   0.596140 0.579600 0.952720 -0.505992
O11   O     O_R   0.639070 0.321380 0.958660 -0.487881
O12   O     O_R   0.527280 0.186680 0.570530 -0.507520
O13   O     O_R   0.821240 0.124490 0.104360 -0.516559
O14   O     O_R   0.036900 0.167320 0.097830 -0.488048
O15   O     O_R   0.056190 0.349890 0.102870 -0.512761
O16   O     O_R   0.797670 0.565150 0.097930 -0.503905
O17   O     O_R   0.595880 0.584540 0.104260 -0.500928
O18   O     O_R   0.638830 0.325960 0.099140 -0.496008
O19   O     O_3   0.824590 0.350480 0.028090 -0.278286
O20   O     O_R   0.728090 0.003480 0.576380 -0.499604
O21   O     O_R   0.682970 0.789220 0.570490 -0.473531
O22   O     O_R   0.499290 0.771920 0.575530 -0.492331
O23   O     O_R   0.285330 0.030900 0.569730 -0.493828
O24   O     O_R   0.270980 0.227040 0.423900 -0.512355
O25   O     O_R   0.530280 0.182090 0.430050 -0.511248
O26   O     O_R   0.731330 0.998530 0.424830 -0.507957
N1    N     N_3   0.363361 0.834361 0.309897 -0.585260
H10   H     H_    0.288335 0.911950 0.281947 0.234403
H11   H     H_    0.349204 0.751458 0.304271 0.236249
C43   C     C_1   0.398143 0.805955 0.165024 0.205835
N2    N     N_1   0.307107 0.833472 0.129857 -0.289869
C44   C     C_1   0.009684 0.122402 0.356961 0.204392
N3    N     N_1   0.946815 0.099553 0.395238 -0.273498

loop_
_geom_bond_atom_site_label_1
_geom_bond_atom_site_label_2
_ccdc_geom_bond_type
C23   O1    A    
C43   N2    T    
Cr3   O3    S    
C1    O20   A    
C41   C42   S    
Cr6   O19   S    
C19   C20   A    
Cr2   O26   S    
C2    C12   S    
Cr4   O19   S    
C26   C27   A    
C18   C24   A    
C28   C29   A    
N1    H11   S    
Cr5   O19   S    
C14   C36   S    
Cr2   O2    S    
C15   C16   A    
C12   O22   A    
Cr3   O5    S    
C24   C39   S    
C31   O8    A    
C18   C19   A    
C16   H5    S    
Cr1   O1    S    
C20   C35   S    
C28   H2    S    
C8    C9    S    
C12   O21   A    
C13   C14   A    
C23   O23   A    
Cr5   O9    S    
C40   C42   T    
C37   O18   A    
C35   O14   A    
Cr1   O12   S    
C37   O13   A    
C7    C33   S    
Cr6   O18   S    
C25   H9    S    
C39   O4    A    
C30   C34   S    
Cr6   O17   S    
N1    H10   S    
C39   O24   A    
C4    C6    T    
C26   H1    S    
C16   C17   A    
Cr2   O5    S    
C25   C26   A    
C1    O12   A    
Cr4   O7    S    
C29   C30   A    
C33   O6    A    
C13   C43   S    
Cr3   O22   S    
C15   H4    S    
Cr6   O11   S    
C3    C31   S    
Cr5   O16   S    
Cr4   O14   S    
C36   O17   A    
C32   O10   A    
C38   O3    A    
C35   O15   A    
Cr1   O24   S    
C22   C24   A    
C34   O26   A    
C32   O9    A    
C29   H3    S    
C19   H7    S    
C25   C30   A    
C7    C9    T    
C11   C17   A    
C31   O7    A    
C1    C10   S    
C4    C5    S    
C3    C5    T    
C21   H8    S    
C11   N1    S    
Cr2   O20   S    
Cr4   O6    S    
Cr2   O21   S    
C2    C41   T    
C11   C13   A    
C27   C37   S    
C6    C23   S    
Cr3   O4    S    
C22   C44   S    
Cr3   O23   S    
C17   C38   S    
C32   C40   S    
Cr6   O10   S    
Cr5   O15   S    
Cr4   O13   S    
C36   O16   A    
C18   H6    S    
C38   O2    A    
C20   C21   A    
Cr1   O5    S    
C8    C10   T    
C27   C28   A    
Cr1   O25   S    
C14   C15   A    
C34   O25   A    
C44   N3    T    
C21   C22   A    
Cr5   O8    S    
C33   O11   A    
