data_mof_unit_63493.cif
_audit_creation_date              2013-03-05T16:26:19-0500
_audit_creation_method            fapswitch 2.2
_symmetry_space_group_name_H-M    P1
_symmetry_Int_Tables_number       1
_space_group_crystal_system       triclinic
_cell_length_a                    30.544247
_cell_length_b                    30.639096
_cell_length_c                    22.113725
_cell_angle_alpha                 90.028006
_cell_angle_beta                  46.503459
_cell_angle_gamma                 89.97615
_cell_volume                      15012.5364699

loop_
_atom_site_label
_atom_site_type_symbol
_atom_site_description
_atom_site_fract_x
_atom_site_fract_y
_atom_site_fract_z
_atom_type_partial_charge
O1    O     O_R   0.178350 0.230070 0.500010 -0.618628
O2    O     O_R   0.821650 0.230070 0.499990 -0.624378
O3    O     O_R   0.678350 0.730070 0.500010 -0.618830
O4    O     O_R   0.321650 0.730070 0.499990 -0.624383
O5    O     O_R   0.230030 0.178320 0.500020 -0.621582
O6    O     O_R   0.769970 0.178320 0.499980 -0.618878
O7    O     O_R   0.730030 0.678320 0.500020 -0.619692
O8    O     O_R   0.269970 0.678320 0.499980 -0.619288
C1    C     C_R   0.189798 0.189998 0.500039 0.874136
C2    C     C_R   0.809568 0.189950 0.500944 0.877355
C3    C     C_R   0.689829 0.690003 0.499977 0.874690
C4    C     C_R   0.309574 0.689951 0.500935 0.877277
O9    O     O_R   0.285150 0.275890 0.378020 -0.616704
O10   O     O_R   0.714850 0.275890 0.621980 -0.612536
O11   O     O_R   0.785150 0.775890 0.378020 -0.616446
O12   O     O_R   0.214850 0.775890 0.621980 -0.613777
O13   O     O_R   0.336840 0.224130 0.378040 -0.610951
O14   O     O_R   0.663160 0.224130 0.621960 -0.616445
O15   O     O_R   0.836840 0.724130 0.378040 -0.611107
O16   O     O_R   0.163160 0.724130 0.621960 -0.615749
C5    C     C_R   0.330542 0.250027 0.338884 0.904070
C6    C     C_R   0.669460 0.250066 0.661109 0.905161
C7    C     C_R   0.830539 0.750024 0.338884 0.903991
C8    C     C_R   0.169460 0.750066 0.661108 0.904745
Zn1   Zn    Zn3+2 0.215490 0.284560 0.500000 0.967879
Zn2   Zn    Zn3+2 0.784510 0.284560 0.500000 0.966034
Zn3   Zn    Zn3+2 0.715490 0.784560 0.500000 0.968134
Zn4   Zn    Zn3+2 0.284510 0.784560 0.500000 0.964758
Zn5   Zn    Zn3+2 0.284510 0.215440 0.500020 0.974938
Zn6   Zn    Zn3+2 0.715490 0.215440 0.499980 0.974391
Zn7   Zn    Zn3+2 0.784510 0.715440 0.500020 0.978181
Zn8   Zn    Zn3+2 0.215490 0.715440 0.499980 0.973188
O17   O     O_R   0.269970 0.321680 0.499990 -0.621267
O18   O     O_R   0.730030 0.321680 0.500010 -0.621415
O19   O     O_R   0.769970 0.821680 0.499990 -0.621131
O20   O     O_R   0.230030 0.821680 0.500010 -0.620249
O21   O     O_R   0.321650 0.269930 0.500010 -0.622433
O22   O     O_R   0.678350 0.269930 0.499990 -0.622609
O23   O     O_R   0.821650 0.769930 0.500010 -0.623545
O24   O     O_R   0.178350 0.769930 0.499990 -0.625299
O25   O     O_R   0.163160 0.275870 0.621980 -0.614601
O26   O     O_R   0.836840 0.275870 0.378020 -0.617278
O27   O     O_R   0.663160 0.775870 0.621980 -0.615017
O28   O     O_R   0.336840 0.775870 0.378020 -0.617171
O29   O     O_R   0.214850 0.224110 0.621990 -0.616588
O30   O     O_R   0.785150 0.224110 0.378010 -0.612689
O31   O     O_R   0.714850 0.724110 0.621990 -0.615283
O32   O     O_R   0.285150 0.724110 0.378010 -0.612884
C9    C     C_R   0.309981 0.309919 0.500191 0.884701
C10   C     C_R   0.690233 0.309979 0.499172 0.885905
C11   C     C_R   0.809984 0.809934 0.500223 0.884575
C12   C     C_R   0.190172 0.809940 0.499429 0.885942
C13   C     C_R   0.169449 0.249966 0.661133 0.902599
C14   C     C_R   0.830540 0.249931 0.338880 0.902859
C15   C     C_R   0.669448 0.749965 0.661133 0.902536
C16   C     C_R   0.330542 0.749930 0.338880 0.904149
H1    H     H_    0.443727 0.182153 0.076458 0.141731
H2    H     H_    0.520578 0.182188 0.922893 0.142924
H3    H     H_    0.945768 0.681639 0.076461 0.142020
H4    H     H_    0.022620 0.681679 0.922897 0.142961
C17   C     C_R   0.511675 0.211923 0.956377 -0.177809
C18   C     C_R   0.468192 0.211904 0.043262 -0.179547
C19   C     C_R   0.012817 0.711635 0.956379 -0.177487
C20   C     C_R   0.969333 0.711613 0.043263 -0.179241
C21   C     C_R   0.543378 0.250257 0.913266 0.161171
C22   C     C_R   0.456562 0.250217 0.086744 0.161647
C23   C     C_R   0.043362 0.750257 0.913264 0.161117
C24   C     C_R   0.956544 0.750211 0.086742 0.161230
C25   C     C_R   0.531735 0.288578 0.956746 -0.167493
C26   C     C_R   0.488254 0.288557 0.043639 -0.165686
C27   C     C_R   0.030559 0.788863 0.956741 -0.166342
C28   C     C_R   0.987076 0.788839 0.043634 -0.165140
H5    H     H_    0.556203 0.318327 0.923546 0.153131
H6    H     H_    0.479356 0.318288 0.077132 0.154891
H7    H     H_    0.054128 0.818834 0.923539 0.153382
H8    H     H_    0.977280 0.818791 0.077124 0.155157
C29   C     C_1   0.587877 0.250252 0.824350 -0.061048
C30   C     C_1   0.412112 0.250170 0.175655 -0.060511
C31   C     C_1   0.087867 0.750255 0.824349 -0.060200
C32   C     C_1   0.912098 0.750161 0.175653 -0.060086
C33   C     C_1   0.374799 0.250105 0.250315 -0.172319
C34   C     C_1   0.625214 0.250191 0.749686 -0.170759
C35   C     C_1   0.874790 0.750097 0.250314 -0.171638
C36   C     C_1   0.125210 0.750194 0.749685 -0.170361
C37   C     C_R   0.134933 0.164601 0.463402 0.150396
C38   C     C_R   0.905115 0.156560 0.438932 0.114827
C39   C     C_R   0.635351 0.664525 0.462780 0.150417
C40   C     C_R   0.405125 0.656568 0.438927 0.113832
C41   C     C_R   0.154094 0.157624 0.504408 -0.101758
C42   C     C_R   0.842368 0.156467 0.500001 -0.088330
C43   C     C_R   0.654155 0.657647 0.504266 -0.106268
C44   C     C_R   0.342376 0.656475 0.499998 -0.087924
C45   C     C_R   0.135327 0.120254 0.553581 -0.201492
C46   C     C_R   0.811382 0.120658 0.553837 -0.205557
C47   C     C_R   0.634952 0.620449 0.553963 -0.195508
C48   C     C_R   0.311388 0.620681 0.553869 -0.206390
H9    H     H_    0.146745 0.115541 0.589913 0.173980
H10   H     H_    0.762585 0.118810 0.598222 0.157317
H11   H     H_    0.646063 0.615839 0.590681 0.180552
H12   H     H_    0.262591 0.618838 0.598270 0.157410
C49   C     C_R   0.103181 0.088095 0.553558 -0.200649
C50   C     C_R   0.843467 0.088448 0.553878 -0.216345
C51   C     C_R   0.602738 0.588331 0.554008 -0.189462
C52   C     C_R   0.343473 0.588478 0.553923 -0.217280
H13   H     H_    0.089982 0.058648 0.589785 0.182255
H14   H     H_    0.819389 0.061847 0.598165 0.159419
H15   H     H_    0.589169 0.559029 0.590669 0.202350
H16   H     H_    0.319393 0.561889 0.598236 0.159916
C53   C     C_R   0.091847 0.093012 0.502329 -0.092009
C54   C     C_R   0.906383 0.091688 0.498210 -0.088496
C55   C     C_R   0.591792 0.593083 0.502323 -0.101546
C56   C     C_R   0.406393 0.591706 0.498225 -0.089857
C57   C     C_R   0.104621 0.132347 0.461615 0.102690
C58   C     C_R   0.936894 0.124108 0.437414 0.178132
C59   C     C_R   0.604993 0.632286 0.461050 0.102507
C60   C     C_R   0.436906 0.624120 0.437416 0.174770
C61   C     C_3   0.137762 0.141029 0.372586 -0.475929
C62   C     C_3   0.984084 0.155124 0.414366 -0.522677
C63   C     C_3   0.638475 0.640696 0.371820 -0.473780
C64   C     C_3   0.484098 0.655137 0.414359 -0.520666
C65   C     C_3   0.171142 0.176795 0.374578 -0.492481
C66   C     C_3   0.948771 0.191022 0.416466 -0.468434
C67   C     C_3   0.671916 0.676443 0.373738 -0.491878
C68   C     C_3   0.448782 0.691032 0.416453 -0.467706
H17   H     H_    0.167356 0.113434 0.330629 0.219775
H18   H     H_    0.984725 0.158366 0.463862 0.199095
H19   H     H_    0.667961 0.612964 0.330263 0.219955
H20   H     H_    0.484744 0.658385 0.463850 0.199118
H21   H     H_    0.107519 0.153740 0.365335 0.200025
H22   H     H_    0.028724 0.148667 0.350786 0.211916
H23   H     H_    0.608486 0.653406 0.364109 0.199730
H24   H     H_    0.528739 0.648678 0.350781 0.211646
H25   H     H_    0.220157 0.170067 0.333681 0.198574
H26   H     H_    0.928674 0.215092 0.467419 0.218767
H27   H     H_    0.720857 0.669566 0.333200 0.198885
H28   H     H_    0.428686 0.715105 0.467401 0.218581
H29   H     H_    0.107926 0.238873 0.923670 0.144130
H30   H     H_    0.891991 0.260470 0.076348 0.144254
H31   H     H_    0.608680 0.746272 0.923690 0.144272
H32   H     H_    0.391264 0.753045 0.076327 0.144688
C69   C     C_R   0.017389 0.243551 0.043706 -0.174179
C70   C     C_R   0.982523 0.255763 0.956314 -0.173598
C71   C     C_R   0.517823 0.747710 0.043716 -0.174623
C72   C     C_R   0.482118 0.751576 0.956302 -0.173322
H33   H     H_    0.031102 0.238825 0.077246 0.143142
H34   H     H_    0.968812 0.260510 0.922777 0.145651
H35   H     H_    0.531861 0.746223 0.077265 0.143195
H36   H     H_    0.468081 0.753086 0.922755 0.145652
C73   C     C_R   0.956569 0.249641 0.086744 0.165718
C74   C     C_R   0.043346 0.249696 0.913274 0.164614
C75   C     C_R   0.456586 0.749628 0.086743 0.165403
C76   C     C_R   0.543357 0.749684 0.913273 0.164682
C77   C     C_R   0.939059 0.255737 0.043201 -0.175677
C78   C     C_R   0.060854 0.243579 0.956818 -0.175060
C79   C     C_R   0.438657 0.751550 0.043188 -0.175058
C80   C     C_R   0.561285 0.747739 0.956828 -0.174654
C81   C     C_1   0.912108 0.249707 0.175652 -0.063822
C82   C     C_1   0.087827 0.249786 0.824365 -0.063164
C83   C     C_1   0.412119 0.749697 0.175651 -0.063817
C84   C     C_1   0.587830 0.749779 0.824364 -0.062371
C85   C     C_1   0.125167 0.249871 0.749704 -0.172015
C86   C     C_1   0.874786 0.249797 0.250311 -0.173633
C87   C     C_1   0.625166 0.749868 0.749704 -0.170906
C88   C     C_1   0.374792 0.749791 0.250311 -0.173640
C89   C     C_R   0.360336 0.380453 0.456247 0.077283
C90   C     C_R   0.631997 0.377634 0.555154 0.043717
C91   C     C_R   0.857646 0.881496 0.459815 0.079084
C92   C     C_R   0.145243 0.882487 0.536290 0.057378
C93   C     C_R   0.342505 0.342338 0.501435 -0.068485
C94   C     C_R   0.655615 0.342230 0.501077 -0.079470
C95   C     C_R   0.842617 0.842365 0.501353 -0.071685
C96   C     C_R   0.157136 0.842344 0.498904 -0.074599
C97   C     C_R   0.358015 0.336097 0.547878 -0.205763
C98   C     C_R   0.640605 0.336023 0.454292 -0.203734
C99   C     C_R   0.861061 0.835140 0.544007 -0.204179
C100  C     C_R   0.134805 0.834005 0.461537 -0.201846
H37   H     H_    0.344707 0.306768 0.584384 0.161175
H38   H     H_    0.655900 0.307424 0.415292 0.161293
H39   H     H_    0.850028 0.805033 0.577644 0.163387
H40   H     H_    0.143077 0.803050 0.431463 0.165661
C101  C     C_R   0.390057 0.368591 0.548285 -0.197652
C102  C     C_R   0.609080 0.368426 0.453574 -0.200205
C103  C     C_R   0.893119 0.867619 0.544404 -0.199537
C104  C     C_R   0.102800 0.866554 0.461176 -0.202774
C105  C     C_R   0.407961 0.406485 0.500254 -0.089022
C106  C     C_R   0.591198 0.406043 0.501745 -0.132209
C107  C     C_R   0.908019 0.906557 0.500192 -0.086160
C108  C     C_R   0.091708 0.906673 0.500431 -0.077151
C109  C     C_R   0.392804 0.410846 0.454448 0.047170
C110  C     C_R   0.599025 0.408946 0.556628 0.120729
C111  C     C_R   0.890027 0.911955 0.458060 0.045790
C112  C     C_R   0.112239 0.912875 0.539229 0.058532
C113  C     C_3   0.395498 0.440385 0.398427 0.128159
C114  C     C_3   0.626633 0.445131 0.566664 0.105464
C115  C     C_3   0.888933 0.942862 0.407103 0.123890
C116  C     C_3   0.120201 0.945841 0.580865 0.115001
C117  C     C_3   0.358922 0.405069 0.399420 -0.530479
C118  C     C_3   0.662949 0.410324 0.565113 -0.501916
C119  C     C_3   0.852471 0.907511 0.407938 -0.525721
C120  C     C_3   0.157454 0.910528 0.578419 -0.497321
H41   H     H_    0.371004 0.471723 0.428593 0.099333
H42   H     H_    0.654248 0.468230 0.513216 0.084822
H43   H     H_    0.863359 0.973376 0.440967 0.099062
H44   H     H_    0.146309 0.975016 0.541609 0.081729
H45   H     H_    0.383905 0.387905 0.339093 0.233319
H46   H     H_    0.650657 0.406160 0.625213 0.231517
H47   H     H_    0.876510 0.891899 0.346590 0.233830
H48   H     H_    0.136082 0.897404 0.640436 0.226905
O33   O     O_R   0.580260 0.454160 0.431100 -0.627070
O34   O     O_R   0.419740 0.454160 0.568900 -0.632229
O35   O     O_R   0.080260 0.954160 0.431100 -0.630860
O36   O     O_R   0.919740 0.954160 0.568900 -0.630419
O37   O     O_R   0.511410 0.454120 0.568820 -0.581942
O38   O     O_R   0.488590 0.454120 0.431180 -0.579812
O39   O     O_R   0.011410 0.954120 0.568820 -0.573673
O40   O     O_R   0.988590 0.954120 0.431180 -0.580551
C121  C     C_R   0.560326 0.440045 0.500146 0.872269
C122  C     C_R   0.439969 0.439878 0.500001 0.870125
C123  C     C_R   0.060219 0.940150 0.500051 0.868324
C124  C     C_R   0.939961 0.939922 0.499998 0.869610
O41   O     O_R   0.080260 0.045800 0.431140 -0.631227
O42   O     O_R   0.919740 0.045800 0.568860 -0.628386
O43   O     O_R   0.580260 0.545800 0.431140 -0.631068
O44   O     O_R   0.419740 0.545800 0.568860 -0.627859
O45   O     O_R   0.011410 0.045760 0.568860 -0.608088
O46   O     O_R   0.988590 0.045760 0.431140 -0.599674
O47   O     O_R   0.511410 0.545760 0.568860 -0.604119
O48   O     O_R   0.488590 0.545760 0.431140 -0.601546
C125  C     C_R   0.060448 0.059717 0.500272 0.865109
C126  C     C_R   0.939952 0.060222 0.499791 0.871116
C127  C     C_R   0.560419 0.559752 0.500270 0.870180
C128  C     C_R   0.439960 0.560231 0.499794 0.869929
Zn9   Zn    Zn3+2 0.045990 1.000000 0.408050 1.021684
Zn10  Zn    Zn3+2 0.954010 0.000000 0.591950 1.022996
Zn11  Zn    Zn3+2 0.545990 0.500000 0.408050 1.023665
Zn12  Zn    Zn3+2 0.454010 0.500000 0.591950 1.018427
H49   H     H_    0.401300 0.364024 0.584858 0.157981
H50   H     H_    0.599854 0.364663 0.414504 0.164715
H51   H     H_    0.906648 0.862271 0.578043 0.157381
H52   H     H_    0.086662 0.860462 0.431038 0.156023
N1    N     N_R   0.456964 0.445670 0.316995 0.250445
O49   O     O_R   0.477419 0.484589 0.286254 -0.374576
O50   O     O_R   0.492235 0.412089 0.275850 -0.369307
N2    N     N_R   0.583442 0.467129 0.647490 0.226453
O51   O     O_R   0.603175 0.493479 0.670388 -0.391387
O52   O     O_R   0.525558 0.463666 0.693691 -0.366386
N3    N     N_R   0.949011 0.950268 0.324573 0.250126
O53   O     O_R   0.967220 0.989951 0.297258 -0.374829
O54   O     O_R   0.985362 0.917796 0.278977 -0.368487
N4    N     N_R   0.064407 0.956535 0.666132 0.234962
O55   O     O_R   0.066655 0.982315 0.710669 -0.382338
O56   O     O_R   0.012549 0.940884 0.698308 -0.358234
H53   H     H_    0.312506 0.415735 0.431479 0.189756
H54   H     H_    0.712227 0.412439 0.509217 0.194707
H55   H     H_    0.805099 0.917325 0.443533 0.189095
H56   H     H_    0.206056 0.918923 0.536435 0.189970
H57   H     H_    0.160010 0.210115 0.368687 0.212063
H58   H     H_    0.973142 0.205386 0.354149 0.205765
H59   H     H_    0.661086 0.709754 0.367327 0.211934
H60   H     H_    0.473153 0.705392 0.354134 0.205599

loop_
_geom_bond_atom_site_label_1
_geom_bond_atom_site_label_2
_geom_bond_distance
_ccdc_geom_bond_type
O12   Zn4   1.993516 S    
O47   C127  1.265212 A    
O3    Zn3   2.018775 S    
C76   C84   1.426264 S    
C3    C43   1.427503 S    
C24   C32   1.426289 S    
C39   C43   1.393346 A    
C118  H46   1.112135 S    
C55   C127  1.422651 S    
C70   H34   1.083611 S    
O23   C11   1.275388 A    
O38   Zn11  2.019845 S    
C56   C60   1.392825 A    
C70   C74   1.399007 A    
C40   C68   1.493165 S    
O15   Zn7   1.991877 S    
C98   C102  1.390480 A    
O33   Zn11  2.015467 S    
C69   C73   1.399014 A    
C72   H36   1.083612 S    
H31   C80   1.083608 S    
Zn1   O25   1.991875 S    
C21   C25   1.399056 A    
O7    C3    1.279490 A    
O47   Zn12  2.017593 S    
C39   C67   1.493816 S    
C103  C107  1.405479 A    
Zn2   O26   1.991347 S    
H3    C20   1.083611 S    
O46   Zn9   2.016229 S    
C7    C35   1.420820 S    
H4    C19   1.083620 S    
O45   Zn10  2.017593 S    
C6    C34   1.420931 S    
C99   C103  1.400637 A    
Zn7   O31   1.992794 S    
C37   C41   1.393289 A    
C89   C117  1.491838 S    
O44   C128  1.269627 A    
C70   C77   1.393807 A    
C62   C66   1.518351 S    
C31   C36   1.197740 T    
C12   C96   1.421007 S    
C47   H11   1.083459 S    
C69   C78   1.393836 A    
C115  H43   1.112857 S    
C46   H10   1.083648 S    
O17   C9    1.276921 A    
C114  H42   1.112756 S    
C44   C48   1.402766 A    
C113  H41   1.112833 S    
N2    O51   1.300618 A    
Zn6   O22   2.017991 S    
O48   C128  1.265776 A    
C51   C55   1.401955 A    
N1    O49   1.300425 A    
C102  C106  1.399549 A    
C114  C118  1.521679 S    
C116  N4    1.463673 S    
C73   C77   1.398989 A    
C66   H26   1.112169 S    
O48   Zn11  2.016229 S    
C61   C65   1.518242 S    
C54   C126  1.424993 S    
C82   C85   1.197692 T    
C103  H51   1.083582 S    
C114  N2    1.463356 S    
O35   Zn9   2.015467 S    
C53   C125  1.422464 S    
Zn2   O18   2.015066 S    
O1    C1    1.276580 A    
O16   C8    1.283260 A    
O43   C127  1.269154 A    
C26   H6    1.083627 S    
C63   H23   1.111095 S    
C74   C78   1.399011 A    
C25   H5    1.083604 S    
O14   Zn6   1.991347 S    
O34   Zn12  2.015724 S    
O4    C4    1.279545 A    
O37   Zn12  2.018481 S    
C61   H21   1.111029 S    
C117  H53   1.111349 S    
C54   C58   1.392827 A    
C39   C59   1.373528 A    
O32   C16   1.283322 A    
O16   Zn8   1.991347 S    
C116  C120  1.543518 S    
C118  H54   1.112004 S    
H2    C17   1.083610 S    
O11   C7    1.282885 A    
O5    Zn5   2.015973 S    
C97   C101  1.400756 A    
O12   C8    1.283361 A    
O14   C6    1.283264 A    
C49   C53   1.402125 A    
O1    Zn1   2.018775 S    
O40   Zn9   2.019845 S    
Zn8   O32   1.993382 S    
O9    Zn1   1.992929 S    
C17   C18   1.393788 A    
O39   Zn10  2.018481 S    
C113  N1    1.462939 S    
C32   C35   1.197690 T    
C92   C96   1.383293 A    
C9    C93   1.418664 S    
C47   C51   1.391387 A    
C42   C46   1.402810 A    
C110  C114  1.499223 S    
C115  C119  1.544845 S    
C107  C124  1.411378 S    
N3    O54   1.302385 A    
C89   C93   1.382537 A    
C22   C30   1.426288 S    
C106  C121  1.421558 S    
C19   C23   1.399007 A    
O18   C10   1.279771 A    
C49   H13   1.083853 S    
O7    Zn7   2.015973 S    
C105  C122  1.412787 S    
C18   C22   1.398972 A    
O8    Zn8   2.015191 S    
C84   C87   1.197690 T    
C76   C80   1.399010 A    
H1    C18   1.083620 S    
C23   C31   1.426349 S    
O2    Zn2   2.017991 S    
C117  H45   1.111822 S    
C38   C42   1.390667 A    
C2    C42   1.423700 S    
C1    C41   1.427735 S    
C11   C95   1.420047 S    
C52   C56   1.400711 A    
O37   C121  1.264858 A    
C68   H28   1.112168 S    
C99   H39   1.083349 S    
O36   C124  1.263726 A    
C67   H59   1.111594 S    
N4    O55   1.300375 A    
O46   C126  1.265743 A    
C95   C99   1.409868 A    
Zn4   O28   1.991347 S    
O45   C125  1.265146 A    
C60   C64   1.493590 S    
C67   H27   1.112392 S    
C24   C28   1.399055 A    
N1    O50   1.302239 A    
C75   C83   1.426236 S    
C40   C60   1.373429 A    
O15   C7    1.283038 A    
C90   C118  1.494225 S    
C38   C66   1.493140 S    
C62   H22   1.111537 S    
O39   C123  1.263429 A    
C21   C29   1.426364 S    
O21   C9    1.275115 A    
O28   C16   1.283155 A    
C45   H9    1.083442 S    
O11   Zn3   1.992929 S    
C97   H37   1.083389 S    
O8    C4    1.275236 A    
C68   H60   1.111560 S    
O25   C13   1.282938 A    
O30   C14   1.283321 A    
Zn1   O17   2.015844 S    
C119  H47   1.111838 S    
C104  C108  1.404639 A    
O19   C11   1.277354 A    
O9    C5    1.282887 A    
C28   H8    1.083632 S    
C10   C94   1.426192 S    
C40   C44   1.390705 A    
O10   Zn2   1.993516 S    
C37   C65   1.493800 S    
C53   C57   1.390365 A    
C15   C87   1.420843 S    
Zn4   O20   2.015066 S    
C58   C62   1.493562 S    
C120  H48   1.112182 S    
O43   Zn11  2.015410 S    
C120  H56   1.111366 S    
C57   C61   1.492903 S    
H30   C77   1.083612 S    
O27   C15   1.282940 A    
O6    Zn6   2.015191 S    
C5    C33   1.420807 S    
C90   C94   1.391981 A    
N4    O56   1.301782 A    
C59   C63   1.492850 S    
C89   C109  1.341171 A    
C48   C52   1.390939 A    
O38   C122  1.265653 A    
Zn5   O21   2.018773 S    
C66   H58   1.111560 S    
C50   C54   1.400695 A    
C116  H44   1.112178 S    
C45   C49   1.391542 A    
O2    C2    1.279597 A    
C20   C24   1.398975 A    
C112  C116  1.494875 S    
C71   H35   1.083625 S    
C52   H16   1.083511 S    
O35   C123  1.264844 A    
C102  H50   1.083613 S    
O31   C15   1.282917 A    
C94   C98   1.403422 A    
C108  C123  1.409793 S    
C101  H49   1.083526 S    
C100  C104  1.400072 A    
Zn3   O27   1.991875 S    
C98   H38   1.083572 S    
O42   Zn10  2.015147 S    
C101  C105  1.406166 A    
C74   C82   1.426267 S    
O41   Zn9   2.015410 S    
C64   H24   1.111539 S    
C107  C111  1.379270 A    
Zn6   O30   1.993382 S    
C91   C119  1.492241 S    
C92   C120  1.490972 S    
O40   C124  1.265244 A    
O5    C1    1.279451 A    
C108  C112  1.380611 A    
C56   C128  1.424986 S    
O6    C2    1.275196 A    
O36   Zn10  2.015724 S    
N3    O53   1.300516 A    
C64   H20   1.112489 S    
C105  C109  1.379823 A    
O22   C10   1.276374 A    
C63   C67   1.518317 S    
C14   C86   1.420793 S    
C91   C111  1.341133 A    
O20   C12   1.278133 A    
C16   C88   1.420799 S    
C75   C79   1.398990 A    
C92   C112  1.340253 A    
C91   C95   1.383116 A    
C38   C58   1.373410 A    
Zn3   O19   2.015844 S    
O10   C6    1.283359 A    
C72   C79   1.393809 A    
C37   C57   1.373476 A    
C8    C36   1.420925 S    
O33   C121  1.268910 A    
C27   C28   1.393914 A    
C72   C76   1.399004 A    
O24   C12   1.275742 A    
O13   Zn5   1.991877 S    
O26   C14   1.283154 A    
C27   H7    1.083600 S    
C13   C85   1.420847 S    
C30   C33   1.197686 T    
C119  H55   1.111371 S    
C71   C80   1.393829 A    
C22   C26   1.399061 A    
C61   H17   1.112128 S    
C29   C34   1.197746 T    
C63   H19   1.112125 S    
C113  C117  1.544871 S    
C48   H12   1.083650 S    
C71   C75   1.399010 A    
C69   H33   1.083623 S    
N2    O52   1.301783 A    
H29   C78   1.083610 S    
C50   H14   1.083512 S    
C23   C27   1.399052 A    
Zn8   O24   2.017991 S    
C17   C21   1.399015 A    
C41   C45   1.402031 A    
C25   C26   1.393933 A    
C90   C110  1.374653 A    
C111  C115  1.490125 S    
O3    C3    1.276439 A    
C64   C68   1.518368 S    
O44   Zn12  2.015147 S    
H32   C79   1.083611 S    
O29   C13   1.282921 A    
C19   C20   1.393774 A    
C109  C113  1.490441 S    
C100  H40   1.083298 S    
C4    C44   1.423679 S    
C115  N3    1.462891 S    
O42   C126  1.269659 A    
C43   C47   1.401836 A    
C55   C59   1.390397 A    
O4    Zn4   2.017991 S    
O41   C125  1.269147 A    
Zn7   O23   2.018773 S    
C93   C97   1.409147 A    
C83   C88   1.197669 T    
C51   H15   1.083283 S    
C106  C110  1.391917 A    
C62   H18   1.112488 S    
C65   H25   1.112393 S    
C73   C81   1.426235 S    
C81   C86   1.197667 T    
C104  H52   1.083609 S    
Zn5   O29   1.992794 S    
O34   C122  1.264035 A    
C96   C100  1.410366 A    
C46   C50   1.390970 A    
C65   H57   1.111595 S    
O13   C5    1.283032 A    
