data_mof_unit_49440.cif
_audit_creation_date              2012-12-10T20:48:47-0500
_audit_creation_method            fapswitch 2.2
_symmetry_space_group_name_H-M    P1
_symmetry_Int_Tables_number       1
_space_group_crystal_system       triclinic
_cell_length_a                    15.706613
_cell_length_b                    9.108179
_cell_length_c                    8.281681
_cell_angle_alpha                 92.106837
_cell_angle_beta                  87.18366
_cell_angle_gamma                 90.761877
_cell_volume                      1182.45675983

loop_
_atom_site_label
_atom_site_type_symbol
_atom_type_description
_atom_site_fract_x
_atom_site_fract_y
_atom_site_fract_z
_atom_type_partial_charge
Br1   Br    Br    0.100506 0.372741 0.166081 -0.439294
Br2   Br    Br    0.082455 0.591351 0.832273 -0.443210
Br3   Br    Br    0.903369 0.329022 0.179263 -0.502729
Br4   Br    Br    0.884170 0.584650 0.822938 -0.545054
C1    C     C_R   0.500141 0.218307 0.498137 0.900577
C2    C     C_3   0.056761 0.313717 0.385859 0.496889
C3    C     C_3   0.937152 0.419770 0.692749 0.586019
C4    C     C_3   0.952761 0.304589 0.391779 0.592744
C5    C     C_1   0.750648 0.478749 0.488764 -0.157301
C6    C     C_1   0.249647 0.475962 0.514436 -0.153582
C7    C     C_3   0.083336 0.436055 0.519990 -0.099725
C8    C     C_3   0.916262 0.436165 0.506956 -0.061412
C9    C     C_3   0.956494 0.581845 0.447298 -0.541306
C10   C     C_3   0.052772 0.584399 0.460134 -0.525333
C11   C     C_3   0.819830 0.237508 0.752396 0.157208
C12   C     C_1   0.825107 0.457405 0.492573 0.089897
C13   C     C_3   0.751519 0.313238 0.864073 -0.343714
C14   C     C_3   0.669474 0.221383 0.872358 -0.891057
C15   C     C_3   0.936422 0.030281 0.398166 0.140043
C16   C     C_3   0.961527 0.005873 0.219821 -0.360743
C17   C     C_3   0.996449 0.851902 0.187843 -0.930858
C18   C     C_3   0.063161 0.164123 0.733104 0.154712
C19   C     C_3   0.028174 0.067356 0.864228 -0.326019
C20   C     C_3   0.984674 0.930977 0.791880 -0.926001
C21   C     C_3   0.180728 0.151207 0.383615 0.087698
C22   C     C_3   0.196595 0.988750 0.341393 -0.355181
C23   C     C_1   0.174890 0.454030 0.521894 0.088337
C24   C     C_3   0.291172 0.952458 0.340106 -0.907306
C25   C     C_R   0.338145 0.497617 0.504009 0.876038
C26   C     C_R   0.661995 0.498463 0.496297 0.879690
C27   C     C_1   0.500668 0.935153 0.502576 -0.179615
C28   C     C_1   0.500595 0.064890 0.497448 -0.189529
C29   C     C_R   0.500282 0.781687 0.501843 0.916316
C30   C     C_3   0.040384 0.422226 0.699373 0.639090
H1    H     H_    0.071404 0.679717 0.537617 0.220383
H2    H     H_    0.619870 0.280586 0.948109 0.277920
H3    H     H_    0.680803 0.114474 0.927560 0.260721
H4    H     H_    0.880399 0.957995 0.425321 0.149634
H5    H     H_    0.987070 0.987998 0.470558 0.172472
H6    H     H_    0.905064 0.019938 0.146444 0.247930
H7    H     H_    0.012702 0.083758 0.186050 0.286085
H8    H     H_    0.030631 0.818274 0.292402 0.255884
H9    H     H_    0.044900 0.847033 0.086839 0.300017
H10   H     H_    0.943498 0.775163 0.159700 0.305692
H11   H     H_    0.125216 0.118443 0.690154 0.154938
H12   H     H_    0.084696 0.611026 0.342701 0.261516
H13   H     H_    0.016912 0.158612 0.642094 0.218989
H14   H     H_    0.081621 0.036795 0.938515 0.223658
H15   H     H_    0.980132 0.129880 0.938277 0.309725
H16   H     H_    0.929394 0.961421 0.723128 0.255643
H17   H     H_    0.958407 0.860440 0.887073 0.330755
H18   H     H_    0.030669 0.868823 0.711423 0.276491
H19   H     H_    0.213435 0.179496 0.496149 0.141571
H20   H     H_    0.212085 0.215801 0.286843 0.196851
H21   H     H_    0.161563 0.920153 0.431658 0.221275
H22   H     H_    0.172451 0.961202 0.220034 0.244204
H23   H     H_    0.929008 0.679673 0.514323 0.235192
H24   H     H_    0.328027 0.019820 0.251324 0.273119
H25   H     H_    0.300292 0.834445 0.305988 0.277691
H26   H     H_    0.315657 0.973879 0.462364 0.254730
H27   H     H_    0.941979 0.594087 0.319594 0.275637
H28   H     H_    0.820267 0.121221 0.787504 0.167364
H29   H     H_    0.798734 0.229051 0.628039 0.166692
H30   H     H_    0.773123 0.329000 0.987799 0.296783
H31   H     H_    0.736483 0.422070 0.819202 0.260956
H32   H     H_    0.646075 0.200667 0.749214 0.267933
N1    N     N_1   0.500000 0.500030 0.073640 -0.034154
N2    N     N_1   0.500000 0.500030 0.926360 -0.031208
O1    O     O_R   0.500000 0.285340 0.636850 -0.619101
O2    O     O_3   0.913847 0.174537 0.455181 -0.693735
O3    O     O_3   0.074306 0.308828 0.792045 -0.557251
O4    O     O_3   0.091164 0.171709 0.408515 -0.714534
O5    O     O_R   0.500000 0.285340 0.363150 -0.613731
O6    O     O_R   0.377140 0.500000 0.636930 -0.592590
O7    O     O_R   0.377140 0.500000 0.363070 -0.609457
O8    O     O_R   0.622860 0.500000 0.636930 -0.620560
O9    O     O_R   0.622860 0.500000 0.363070 -0.601539
O10   O     O_R   0.500000 0.714650 0.636900 -0.607660
O11   O     O_R   0.500000 0.714650 0.363100 -0.609051
O12   O     O_3   0.905204 0.289895 0.769985 -0.615589
Zn1   Zn    Zn3+2 0.500000 0.499990 0.682780 1.002223
Zn2   Zn    Zn3+2 0.500000 0.499990 0.317220 1.003195

loop_
_geom_bond_atom_site_label_1
_geom_bond_atom_site_label_2
_ccdc_geom_bond_type
C6    C23   T    
C20   H18   S    
C18   O3    S    
C15   C16   S    
O10   Zn1   S    
C11   O12   S    
C22   H21   S    
C16   H7    S    
C10   H12   S    
C2    O4    S    
N2    Zn1   S    
C14   H3    S    
C21   H19   S    
C13   H30   S    
C16   H6    S    
C7    C10   S    
C29   O10   A    
C19   H15   S    
C9    H23   S    
C1    O1    A    
C17   H9    S    
C26   O9    A    
C8    C12   S    
C19   C20   S    
C27   C29   S    
C1    C28   S    
Br2   C30   S    
C20   H17   S    
C18   H13   S    
C9    C10   S    
Br4   C3    S    
C22   C24   S    
C24   H26   S    
C20   H16   S    
C3    C8    S    
N1    N2    T    
C21   H20   S    
Br3   C4    S    
C10   H1    S    
C29   O11   A    
C2    C4    S    
C25   O6    A    
C21   C22   S    
Br1   C2    S    
C15   H4    S    
C17   H10   S    
C26   O8    A    
C27   C28   T    
C7    C23   S    
C4    C8    S    
C13   C14   S    
C21   O4    S    
C16   C17   S    
C15   H5    S    
C5    C26   S    
C3    C30   S    
O6    Zn1   S    
O5    Zn2   S    
C2    C7    S    
C24   H25   S    
C11   C13   S    
C19   H14   S    
C13   H31   S    
C5    C12   T    
C7    C30   S    
C22   H22   S    
O8    Zn1   S    
O11   Zn2   S    
O7    Zn2   S    
C25   O7    A    
C24   H24   S    
C14   H32   S    
C4    O2    S    
C6    C25   S    
O9    Zn2   S    
C11   H28   S    
C1    O5    A    
O1    Zn1   S    
C17   H8    S    
C18   H11   S    
C9    H27   S    
C8    C9    S    
N1    Zn2   S    
C11   H29   S    
C18   C19   S    
C15   O2    S    
C14   H2    S    
C30   O3    S    
C3    O12   S    
