data_mof_unit_67044.cif
_audit_creation_date              2013-03-05T15:58:15-0500
_audit_creation_method            fapswitch 2.2
_symmetry_space_group_name_H-M    P1
_symmetry_Int_Tables_number       1
_space_group_crystal_system       triclinic
_cell_length_a                    8.279306
_cell_length_b                    13.02656
_cell_length_c                    14.389101
_cell_angle_alpha                 94.006609
_cell_angle_beta                  91.317744
_cell_angle_gamma                 97.661917
_cell_volume                      1533.44343479

loop_
_atom_site_label
_atom_site_type_symbol
_atom_site_description
_atom_site_fract_x
_atom_site_fract_y
_atom_site_fract_z
_atom_type_partial_charge
P1    P     P_3+3 0.054400 0.427280 0.286870 0.453268
O1    O     O_2   0.887370 0.460630 0.272300 -0.406731
O2    O     O_3   0.129410 0.451380 0.388510 -0.378002
O3    O     O_3   0.670210 0.653170 0.329170 -0.388738
O4    O     O_2   0.802163 0.589746 0.171589 -0.379924
O5    O     O_3   0.048815 0.293992 0.261622 -0.620841
O6    O     O_3   0.688344 0.763621 0.166539 -0.502208
H1    H     H_    0.656636 0.850203 0.288382 0.123876
C1    C     C_3   0.590421 0.927514 0.167815 -0.919633
H2    H     H_    0.533227 0.984756 0.212343 0.229923
H3    H     H_    0.714818 0.962608 0.151176 0.269952
P2    P     P_3+3 0.668300 0.742890 0.573060 0.467268
P3    P     P_3+3 0.140025 0.839486 0.378648 0.547393
O7    O     O_2   0.845380 0.761330 0.544970 -0.393079
O8    O     O_3   0.088930 0.704860 0.376040 -0.376072
O9    O     O_2   0.030463 0.883744 0.452357 -0.314356
O10   O     O_3   0.665451 0.756785 0.694867 -0.550756
O11   O     O_3   0.059081 0.875195 0.274579 -0.424142
C2    C     C_3   0.150986 0.841512 0.200557 0.425719
H4    H     H_    0.181647 0.761502 0.207062 0.060690
H5    H     H_    0.264032 0.897005 0.198610 0.059257
C3    C     C_3   0.054895 0.841639 0.108793 -0.683257
H6    H     H_    0.998432 0.761529 0.085421 0.263637
H7    H     H_    0.956633 0.891228 0.115779 0.239117
C4    C     C_3   0.249522 0.768950 0.691363 0.319906
H8    H     H_    0.368118 0.739532 0.685335 0.142030
H9    H     H_    0.196435 0.776913 0.621022 0.068463
C5    C     C_3   0.266264 0.872209 0.750825 0.087258
H10   H     H_    0.321331 0.865366 0.820361 0.185977
H11   H     H_    0.144804 0.897443 0.760754 0.086646
Ba1   Ba    Ba6+2 0.855630 0.555280 0.454520 1.590958
C6    C     C_3   0.901380 0.234453 0.276749 1.063675
H12   H     H_    0.834787 0.268407 0.334681 -0.035966
C7    C     C_3   0.800551 0.218462 0.185450 -1.139400
H13   H     H_    0.749239 0.290308 0.173022 0.233066
H14   H     H_    0.699484 0.153961 0.187877 0.285692
H15   H     H_    0.877057 0.201102 0.125489 0.243190
C8    C     C_3   0.740271 0.679962 0.734747 0.375850
H16   H     H_    0.842509 0.657350 0.693544 0.124140
H17   H     H_    0.649499 0.610097 0.740397 0.100357
C9    C     C_3   0.805271 0.724219 0.831073 -0.881860
H18   H     H_    0.905758 0.787868 0.823212 0.276264
H19   H     H_    0.846970 0.662688 0.871179 0.242643
H20   H     H_    0.711693 0.759443 0.871289 0.278089
P4    P     P_3+3 0.135310 0.572810 0.713130 0.518898
O12   O     O_2   0.302330 0.539400 0.727760 -0.349598
O13   O     O_3   0.060300 0.548700 0.611500 -0.402270
O14   O     O_3   0.519500 0.346920 0.670840 -0.330976
O15   O     O_3   0.140332 0.704890 0.739390 -0.554355
P5    P     P_3+3 0.063930 0.164517 0.625791 0.571865
O16   O     O_3   0.614310 0.373510 0.452640 -0.418515
O17   O     O_3   0.100780 0.295230 0.623970 -0.392444
O18   O     O_2   0.206758 0.123945 0.574276 -0.229881
O19   O     O_3   0.095414 0.141016 0.742780 -0.481819
Ba2   Ba    Ba6+2 0.334200 0.444810 0.545490 1.638607
P6    P     P_3+3 0.655473 0.639949 0.208172 0.482531
C10   C     C_3   0.597152 0.829119 0.218433 0.561005
H21   H     H_    0.470469 0.791535 0.226936 -0.042966
H22   H     H_    0.518097 0.909974 0.101561 0.276639
O20   O     O_3   0.575400 0.626570 0.547370 -0.406194
C11   C     C_3   0.452714 0.306593 0.263811 0.485111
H23   H     H_    0.352597 0.335378 0.303315 0.135551
H24   H     H_    0.557199 0.369795 0.264606 0.062540
C12   C     C_3   0.392144 0.276875 0.163490 -1.016742
H25   H     H_    0.283032 0.217280 0.161411 0.310533
H26   H     H_    0.360774 0.345266 0.129423 0.216110
H27   H     H_    0.487860 0.245197 0.122704 0.254477
P7    P     P_3+3 0.525762 0.241438 0.422413 0.464135
O21   O     O_2   0.344320 0.238700 0.455090 -0.301378
O22   O     O_3   0.502171 0.218899 0.301471 -0.577061
H28   H     H_    0.137127 0.872754 0.054653 0.239387
C13   C     C_3   0.021571 0.211578 0.800366 0.508878
H29   H     H_    0.085423 0.291625 0.796082 0.076474
H30   H     H_    0.891221 0.209401 0.779595 -0.074019
C14   C     C_3   0.035713 0.185206 0.902109 -0.408083
H31   H     H_    0.967005 0.236625 0.946084 0.153055
H32   H     H_    0.165465 0.200662 0.926507 0.241057
P8    P     P_3+3 0.544465 0.357288 0.793975 0.470459
C15   C     C_3   0.578857 0.186994 0.875364 0.456433
H33   H     H_    0.675576 0.236337 0.917127 0.013126
O23   O     O_2   0.428180 0.432613 0.830544 -0.423146
O24   O     O_3   0.457752 0.242483 0.841109 -0.459244
H34   H     H_    0.634737 0.146635 0.816585 0.113309
H35   H     H_    0.599625 0.075701 0.979492 0.222002
C16   C     C_3   0.502630 0.107346 0.940258 -0.945331
H36   H     H_    0.425512 0.041819 0.901291 0.278476
H37   H     H_    0.424584 0.144078 0.990454 0.258593
C17   C     C_R   0.985814 0.453342 0.062201 -0.149122
C18   C     C_R   0.184543 0.493632 0.198723 0.308701
C19   C     C_R   0.341511 0.538048 0.229513 -0.536693
C20   C     C_R   0.459848 0.568859 0.166011 0.232343
C21   C     C_R   0.421779 0.559662 0.071308 -0.175615
C22   C     C_R   0.259488 0.531685 0.038945 -0.082664
C23   C     C_R   0.141801 0.490370 0.100715 -0.050234
H38   H     H_    0.374016 0.545048 0.303187 0.170349
C24   C     C_R   0.060976 0.510197 0.906153 -0.152999
C25   C     C_R   0.946089 0.461043 0.966954 0.036692
C26   C     C_R   0.015773 0.505933 0.806674 0.301438
C27   C     C_R   0.863926 0.452835 0.775757 -0.537206
C28   C     C_R   0.749242 0.414915 0.838232 0.198354
C29   C     C_R   0.787787 0.423750 0.933536 -0.311686
C30   C     C_R   0.210370 0.560314 0.950533 0.489635
H39   H     H_    0.515362 0.586402 0.023772 0.163052
H40   H     H_    0.695048 0.397509 0.981786 0.142337
H41   H     H_    0.829855 0.446824 0.702293 0.165278
H42   H     H_    0.893277 0.418072 0.105348 0.168687
C31   C     C_R   0.772887 0.174756 0.525662 -0.400441
C32   C     C_R   0.443749 0.815523 0.457560 -0.462547
C33   C     C_R   0.424452 0.990086 0.416261 -0.145836
C34   C     C_R   0.357982 0.884908 0.414002 0.149665
C35   C     C_R   0.587030 0.848405 0.511527 0.344960
C36   C     C_R   0.656895 0.957792 0.518092 0.074905
C37   C     C_R   0.570863 0.028901 0.468266 0.020193
C38   C     C_R   0.627171 0.138498 0.476968 0.239292
C39   C     C_R   0.862724 0.108644 0.569775 0.192741
C40   C     C_R   0.802797 0.002678 0.572994 0.205184
H43   H     H_    0.354278 0.042217 0.382903 0.203761
H44   H     H_    0.819474 0.256622 0.527988 0.151748
H45   H     H_    0.389864 0.734983 0.455984 0.155473
S1    S     S_3+6 0.390752 0.969213 0.699820 -0.095120
O25   O     O_2   0.344199 0.959532 0.599132 -0.327489
O26   O     O_2   0.362913 0.073795 0.738589 -0.207975
O27   O     O_3   0.585428 0.954303 0.719611 -0.575859
H46   H     H_    0.596456 0.947636 0.787509 0.339781
S2    S     S_3+6 0.956849 0.113536 0.306941 -0.035662
O28   O     O_2   0.052967 0.129544 0.397296 -0.263251
O29   O     O_2   0.810011 0.035159 0.317028 -0.374758
O30   O     O_3   0.076719 0.070626 0.224311 -0.511133
H47   H     H_    0.011328 0.065531 0.165462 0.318790
C41   C     C_3   0.970379 0.072040 0.915592 -0.843485
H48   H     H_    0.050593 0.019435 0.882155 0.283859
H49   H     H_    0.967780 0.059839 0.991133 0.234954
H50   H     H_    0.845027 0.051761 0.885101 0.235533
S3    S     S_3+6 0.281589 0.691965 0.934285 -0.086826
O31   O     O_2   0.139978 0.746642 0.911180 -0.337287
O32   O     O_2   0.363492 0.748204 0.021007 -0.350568
O33   O     O_3   0.418559 0.697033 0.851034 -0.537820
H51   H     H_    0.482077 0.640087 0.863518 0.338264
C42   C     C_3   0.899232 0.952770 0.644336 -0.683073
H52   H     H_    0.899723 0.998623 0.711736 0.209150
H53   H     H_    0.857724 0.880246 0.669278 0.259151
H54   H     H_    0.025015 0.948772 0.621507 0.256508

loop_
_geom_bond_atom_site_label_1
_geom_bond_atom_site_label_2
_geom_bond_distance
_ccdc_geom_bond_type
C11   O22   1.402619 S    
C6    S2    1.777648 S    
O14   Ba2   2.819348 S    
O5    C6    1.386462 S    
C22   C23   1.412755 A    
C24   C30   1.433161 A    
C7    H15   1.110326 S    
C9    H18   1.107197 S    
O4    P6    1.540403 D    
C35   C36   1.460422 A    
C36   C40   1.458896 A    
O7    Ba1   2.912603 S    
O30   H47   0.987951 S    
S3    O33   1.667006 S    
C19   C20   1.394087 A    
C33   H43   1.080301 S    
C19   H38   1.082298 S    
P4    O12   1.518481 D    
C4    C5    1.531206 S    
P5    O19   1.751717 S    
P3    O11   1.744186 S    
C5    H10   1.104197 S    
C2    H5    1.105871 S    
P5    C39   1.867461 S    
P4    C26   1.882921 S    
C8    H16   1.104500 S    
C7    H13   1.101950 S    
C42   H54   1.105865 S    
C39   C40   1.407522 A    
P1    Ba1   3.414678 S    
P1    O1    1.518115 D    
O14   P8    1.772707 S    
C18   C23   1.442393 A    
C11   H24   1.111134 S    
C28   C29   1.394162 A    
C21   H39   1.084078 S    
O2    Ba2   2.806039 S    
P6    C20   1.823520 S    
C2    H4    1.114711 S    
P7    O21   1.580996 D    
C24   C26   1.466561 A    
O12   Ba2   2.851907 S    
S2    O30   1.679387 S    
P5    O17   1.691497 S    
C1    H2    1.110002 S    
C31   H44   1.082549 S    
C7    H14   1.106948 S    
C17   C25   1.415566 A    
S1    O27   1.669358 S    
C33   C37   1.423719 A    
O10   C8    1.394170 S    
C40   C42   1.519181 S    
C16   H37   1.106245 S    
C8    H17   1.109255 S    
Ba1   O13   2.805474 S    
Ba2   O20   2.884859 S    
O3    P6    1.737393 S    
C9    H19   1.106317 S    
C32   H45   1.082431 S    
O6    P6    1.747511 S    
C13   C14   1.532347 S    
C36   C37   1.457621 A    
S1    O26   1.484497 D    
P4    O13   1.569989 S    
C27   H41   1.082564 S    
C17   C23   1.404024 A    
P5    O18   1.542513 D    
P1    O5    1.743115 S    
C12   H27   1.103381 S    
O27   H46   0.990070 S    
C2    C3    1.526008 S    
H35   C16   1.110617 S    
C8    C9    1.521318 S    
C13   H30   1.109345 S    
C5    S1    1.736317 S    
C20   C21   1.384906 A    
O11   C2    1.402484 S    
S3    O32   1.501501 D    
O16   Ba2   2.927354 S    
C4    H8    1.103673 S    
C16   H36   1.105431 S    
O1    Ba1   2.851381 S    
C1    H22   1.107443 S    
C6    C7    1.526781 S    
Ba1   O20   2.928143 S    
P2    O10   1.750410 S    
C11   C12   1.523795 S    
C41   H49   1.109739 S    
C14   H31   1.109761 S    
C30   S3    1.770923 S    
C31   C38   1.390111 A    
P3    C34   1.869822 S    
H1    C10   1.110643 S    
C17   H42   1.073035 S    
P8    O24   1.757787 S    
C27   C28   1.389217 A    
P4    O15   1.730357 S    
C24   C25   1.426286 A    
O2    Ba1   2.934183 S    
C14   H32   1.110367 S    
C31   C39   1.386822 A    
Ba2   O21   2.912850 S    
P2    O7    1.522312 D    
C29   H40   1.084482 S    
C1    H3    1.108207 S    
P2    Ba1   3.440559 S    
P8    C28   1.840558 S    
S2    O28   1.495794 D    
C9    H20   1.106332 S    
C3    H7    1.106376 S    
C41   H50   1.108656 S    
C3    H28   1.108890 S    
C15   C16   1.527933 S    
S1    O25   1.483013 D    
O13   Ba2   2.934949 S    
C37   C38   1.437411 A    
P1    C18   1.866681 S    
Ba1   O16   2.885532 S    
C13   H29   1.110878 S    
C14   C41   1.528251 S    
C22   C30   1.416274 A    
C15   O24   1.411057 S    
C42   H52   1.102523 S    
O17   Ba2   2.865386 S    
O8    Ba1   2.864797 S    
S3    O31   1.493413 D    
C4    H9    1.111191 S    
O33   H51   0.988646 S    
C32   C35   1.403349 A    
Ba1   Ba2   4.585696 S    
C12   H25   1.108215 S    
P3    O8    1.745892 S    
C41   H48   1.109995 S    
C33   C34   1.404640 A    
C6    H12   1.108665 S    
C15   H34   1.107477 S    
C42   H53   1.051625 S    
P8    O23   1.539361 D    
C10   H21   1.109999 S    
C5    H11   1.108104 S    
C21   C22   1.404283 A    
C32   C34   1.394207 A    
C1    C10   1.524506 S    
O16   P7    1.797500 S    
C11   H23   1.107044 S    
C4    O15   1.378158 S    
O3    Ba1   2.819935 S    
C15   H33   1.096422 S    
P2    O20   1.619287 S    
O19   C13   1.404269 S    
P4    Ba2   3.415140 S    
P7    O22   1.746564 S    
C26   C27   1.398670 A    
P3    O9    1.542195 D    
P7    C38   1.880494 S    
S2    O29   1.496428 D    
C3    H6    1.110981 S    
P1    O2    1.570109 S    
C18   C19   1.398987 A    
O6    C10   1.401525 S    
P2    C35   1.874888 S    
C25   C29   1.397697 A    
C12   H26   1.103786 S    
