data_mof_unit_23589.cif
_audit_creation_date              2012-12-10T18:46:12-0500
_audit_creation_method            fapswitch 2.2
_symmetry_space_group_name_H-M    P1
_symmetry_Int_Tables_number       1
_space_group_crystal_system       triclinic
_cell_length_a                    9.854592
_cell_length_b                    10.684806
_cell_length_c                    13.239403
_cell_angle_alpha                 90.219583
_cell_angle_beta                  70.306392
_cell_angle_gamma                 89.657303
_cell_volume                      1312.44655383

loop_
_atom_site_label
_atom_site_type_symbol
_atom_type_description
_atom_site_fract_x
_atom_site_fract_y
_atom_site_fract_z
_atom_type_partial_charge
C1    C     C_R   0.499570 0.740034 0.500465 0.849965
C2    C     C_R   0.454272 0.453153 0.972668 -0.045275
C3    C     C_R   0.467190 0.514790 0.875829 0.039827
C4    C     C_R   0.558306 0.482297 0.022147 0.086086
C5    C     C_R   0.684926 0.549203 0.965698 0.189247
C6    C     C_R   0.693556 0.609036 0.871319 -0.258344
C7    C     C_R   0.580568 0.600632 0.832179 -0.141040
C8    C     C_R   0.529358 0.465211 0.131248 -0.275126
C9    C     C_R   0.764723 0.542402 0.119183 -0.211691
C10   C     C_R   0.369808 0.487696 0.821866 -0.206053
C11   C     C_R   0.599164 0.935501 0.536041 -0.186283
C12   C     C_R   0.419732 0.501612 0.704465 0.858468
C13   C     C_R   0.599767 0.063731 0.535614 -0.182628
C14   C     C_R   0.499714 0.127561 0.500915 -0.013970
C15   C     C_R   0.398668 0.064509 0.467120 -0.209171
C16   C     C_R   0.398365 0.936379 0.467243 -0.178058
C17   C     C_R   0.498805 0.872483 0.501444 -0.027600
C18   C     C_R   0.946332 0.399506 0.461426 -0.069831
C19   C     C_R   0.090036 0.399630 0.461244 -0.148401
C20   C     C_R   0.053755 0.601011 0.539079 0.529764
C21   C     C_R   0.909644 0.600592 0.538414 -0.183364
C22   C     C_R   0.500073 0.259976 0.500235 0.852503
C23   C     C_R   0.579666 0.498207 0.296352 0.886284
C24   C     C_R   0.792059 0.569995 0.011630 -0.192185
C25   C     C_R   0.628934 0.497772 0.180219 -0.057208
C26   C     C_R   0.241026 0.423292 0.875201 0.336081
C27   C     C_R   0.222412 0.366329 0.974770 -0.100446
C28   C     C_R   0.337571 0.367730 0.016392 -0.102999
H1    H     H_    0.843635 0.566678 0.156335 0.167458
H2    H     H_    0.677103 0.112619 0.563022 0.150178
H3    H     H_    0.321564 0.113897 0.439436 0.163234
H4    H     H_    0.321088 0.887625 0.439721 0.194573
H5    H     H_    0.906896 0.319054 0.430266 0.165358
H6    H     H_    0.158870 0.319346 0.429841 0.178670
H7    H     H_    0.840977 0.681633 0.566931 0.136467
H8    H     H_    0.781249 0.671494 0.833457 0.125778
H9    H     H_    0.891661 0.616054 0.967004 0.157173
H10   H     H_    0.422351 0.440362 0.181685 0.190585
H11   H     H_    0.584154 0.660987 0.765840 0.145884
H12   H     H_    0.676111 0.885989 0.563818 0.146376
N1    N     N_R   0.142790 0.500030 0.500030 -0.118544
N2    N     N_R   0.857180 0.499940 0.500010 -0.098113
O1    O     O_R   0.385370 0.683250 0.500010 -0.563983
O2    O     O_R   0.614700 0.683220 0.500010 -0.631363
O3    O     O_R   0.328400 0.499990 0.653620 -0.573763
O4    O     O_R   0.557730 0.499960 0.653620 -0.617310
O5    O     O_R   0.385300 0.316780 0.499990 -0.644575
O6    O     O_R   0.614630 0.316750 0.499990 -0.622919
O7    O     O_R   0.442270 0.500040 0.346380 -0.607942
O8    O     O_R   0.671600 0.500010 0.346380 -0.605707
Zn1   Zn    Zn3+2 0.346870 0.500020 0.500000 0.986064
Zn2   Zn    Zn3+2 0.653130 0.499980 0.500000 0.949271
O9    O     O_3   0.110233 0.707722 0.568129 -0.626143
C29   C     C_3   0.043558 0.732101 0.678600 0.050226
H13   H     H_    0.032871 0.645040 0.727035 0.161263
H14   H     H_    0.936091 0.775751 0.692423 0.117154
C30   C     C_3   0.135757 0.824751 0.714897 -0.294239
H15   H     H_    0.244685 0.783835 0.700196 0.226163
H16   H     H_    0.147605 0.912145 0.667584 0.226271
C31   C     C_3   0.068804 0.856419 0.833938 -0.964330
H17   H     H_    0.956775 0.891852 0.852467 0.262907
H18   H     H_    0.133523 0.929933 0.855619 0.277112
H19   H     H_    0.068173 0.772136 0.882841 0.270913
O10   O     O_3   0.131134 0.420581 0.831692 -0.656458
C32   C     C_3   0.128328 0.302911 0.782870 0.086952
H20   H     H_    0.118896 0.223840 0.839038 0.134090
H21   H     H_    0.228103 0.287928 0.712824 0.165711
C33   C     C_3   0.997745 0.300470 0.745343 -0.292769
H22   H     H_    0.897481 0.308994 0.816094 0.218449
H23   H     H_    0.001963 0.381692 0.692441 0.224440
C34   C     C_3   0.992757 0.179920 0.684628 -0.978009
H24   H     H_    0.092524 0.168892 0.613991 0.267167
H25   H     H_    0.898876 0.183085 0.656208 0.263297
H26   H     H_    0.981170 0.098110 0.738193 0.271188
C35   C     C_2   0.344926 0.270943 0.094807 0.461655
H27   H     H_    0.444555 0.218937 0.081017 0.051611
O11   O     O_2   0.244914 0.255042 0.178289 -0.545624
C36   C     C_2   0.083312 0.302784 0.029902 0.462758
H28   H     H_    0.983427 0.346726 0.030739 0.085810
O12   O     O_2   0.078842 0.197971 0.067108 -0.538972

loop_
_geom_bond_atom_site_label_1
_geom_bond_atom_site_label_2
_ccdc_geom_bond_type
C22   O6    A    
C4    C8    A    
C27   C36   S    
C20   N1    A    
C9    C25   A    
O9    C29   S    
C26   C27   A    
C31   H19   S    
C3    C7    A    
C18   N2    A    
C5    C6    A    
C36   O12   D    
C23   O7    A    
O3    Zn1   S    
C15   C16   A    
O4    Zn2   S    
C31   H18   S    
C18   C19   A    
C26   O10   S    
C1    O1    A    
C33   H22   S    
C32   H21   S    
O8    Zn2   S    
C9    H1    S    
O2    Zn2   S    
C22   O5    A    
C13   C14   A    
C8    C25   A    
C8    H10   S    
C24   H9    S    
C29   H14   S    
C13   H2    S    
C12   O4    A    
C34   H25   S    
C36   H28   S    
C12   O3    A    
C23   O8    A    
O5    Zn1   S    
O7    Zn1   S    
C31   H17   S    
C2    C4    A    
C35   H27   S    
C1    O2    A    
C32   C33   S    
C10   C26   A    
C35   O11   D    
C10   C12   S    
C29   H13   S    
C11   C17   A    
C20   O9    S    
C30   C31   S    
C19   H6    S    
C34   H26   S    
C9    C24   A    
C15   H3    S    
C6    C7    A    
C21   H7    S    
C16   H4    S    
C1    C17   S    
O10   C32   S    
C14   C22   S    
C2    C3    A    
C34   H24   S    
C3    C10   A    
C11   C13   A    
O1    Zn1   S    
C30   H15   S    
C16   C17   A    
C5    C24   A    
C33   C34   S    
C4    C5    A    
C6    H8    S    
C23   C25   S    
C11   H12   S    
C18   H5    S    
C30   H16   S    
C21   N2    A    
O6    Zn2   S    
C20   C21   A    
C33   H23   S    
C32   H20   S    
C27   C28   A    
C7    H11   S    
C14   C15   A    
C2    C28   A    
C28   C35   S    
N1    Zn1   S    
C19   N1    A    
N2    Zn2   S    
C29   C30   S    
