data_mof_unit_44892.cif
_audit_creation_date              2012-12-11T14:01:46-0500
_audit_creation_method            fapswitch 2.2
_symmetry_space_group_name_H-M    P1
_symmetry_Int_Tables_number       1
_space_group_crystal_system       triclinic
_cell_length_a                    18.967795
_cell_length_b                    11.007526
_cell_length_c                    18.740493
_cell_angle_alpha                 89.929519
_cell_angle_beta                  90.234072
_cell_angle_gamma                 89.832132
_cell_volume                      3912.74689543

loop_
_atom_site_label
_atom_site_type_symbol
_atom_type_description
_atom_site_fract_x
_atom_site_fract_y
_atom_site_fract_z
_atom_type_partial_charge
C1    C     C_R   0.272313 0.042088 0.853450 0.601402
C2    C     C_R   0.727667 0.042207 0.146526 0.606413
C3    C     C_R   0.772317 0.542076 0.853454 0.607954
C4    C     C_R   0.227663 0.542197 0.146520 0.607191
C5    C     C_R   0.476486 0.051696 0.070414 0.282360
C6    C     C_R   0.524325 0.050347 0.928284 0.282520
C7    C     C_R   0.976488 0.551690 0.070418 0.281963
C8    C     C_R   0.024324 0.550362 0.928282 0.278979
C9    C     C_R   0.988605 0.660952 0.034723 0.261291
C10   C     C_R   0.011575 0.660211 0.962956 0.258994
C11   C     C_R   0.488596 0.160955 0.034711 0.261076
C12   C     C_R   0.511568 0.160202 0.962946 0.259703
C13   C     C_2   0.246643 0.573880 0.918243 -0.037917
C14   C     C_2   0.753563 0.574314 0.081738 -0.040141
C15   C     C_2   0.746658 0.073923 0.918261 -0.040297
C16   C     C_2   0.253550 0.074356 0.081720 -0.040993
C17   C     C_2   0.252180 0.586825 0.077941 0.209573
C18   C     C_2   0.747693 0.586712 0.921995 0.209792
C19   C     C_2   0.752192 0.086857 0.077956 0.210036
C20   C     C_2   0.247678 0.086748 0.921979 0.212665
C21   C     C_2   0.286046 0.506698 0.034925 -0.161671
C22   C     C_2   0.714297 0.506535 0.965252 -0.162222
C23   C     C_2   0.786070 0.006746 0.034940 -0.161584
C24   C     C_2   0.214275 0.006583 0.965238 -0.161539
C25   C     C_2   0.298907 0.527796 0.958677 0.204277
C26   C     C_2   0.701494 0.527693 0.041513 0.204991
C27   C     C_2   0.798928 0.027853 0.958693 0.204866
C28   C     C_2   0.201475 0.027746 0.041497 0.204848
C29   C     C_2   0.512442 0.843660 0.584890 -0.063548
C30   C     C_2   0.513334 0.825371 0.427836 -0.024323
C31   C     C_2   0.958057 0.324147 0.568035 -0.038780
C32   C     C_2   0.006908 0.336544 0.424025 -0.044750
C33   C     C_2   0.561472 0.778987 0.473839 0.185600
C34   C     C_2   0.540799 0.753284 0.547682 0.190444
C35   C     C_2   0.043545 0.281575 0.476349 0.184664
C36   C     C_2   0.025805 0.307403 0.551065 0.214122
C37   C     C_2   0.244709 0.570012 0.581037 -0.031963
C38   C     C_2   0.756899 0.564982 0.416735 -0.030190
C39   C     C_2   0.739363 0.072550 0.582820 -0.056481
C40   C     C_2   0.251304 0.087013 0.424469 -0.032506
C41   C     C_2   0.210768 0.489931 0.436625 -0.141974
C42   C     C_2   0.788913 0.494469 0.563291 -0.170447
C43   C     C_2   0.718233 0.012239 0.433691 -0.112961
C44   C     C_2   0.247976 0.093062 0.580739 -0.140804
C45   C     C_R   0.472373 0.821479 0.853246 0.533535
C46   C     C_R   0.527663 0.821797 0.146707 0.532297
C47   C     C_R   0.972382 0.321482 0.853236 0.555132
C48   C     C_R   0.027663 0.321797 0.146706 0.533636
C49   C     C_2   0.163555 0.543157 0.480613 -0.076473
C50   C     C_2   0.836637 0.548069 0.519873 -0.088760
C51   C     C_2   0.668032 0.059111 0.475522 -0.058011
C52   C     C_2   0.291686 0.160937 0.541368 -0.063213
C53   C     C_2   0.177987 0.553787 0.558244 0.191309
C54   C     C_2   0.823497 0.559014 0.441722 0.191741
C55   C     C_2   0.690901 0.123244 0.538686 0.200050
C56   C     C_2   0.303573 0.133189 0.465175 0.191672
C57   C     C_R   0.260407 0.634306 0.850586 0.570729
C58   C     C_R   0.739641 0.634540 0.149403 0.564763
C59   C     C_R   0.760412 0.134323 0.850594 0.566951
C60   C     C_R   0.239636 0.134554 0.149396 0.563522
C61   C     C_R   0.270849 0.048711 0.649624 0.559446
C62   C     C_R   0.707077 0.993864 0.358816 0.588257
C63   C     C_R   0.793666 0.493088 0.641275 0.541539
C64   C     C_R   0.206081 0.491799 0.358551 0.573693
C65   C     C_R   0.471931 0.824814 0.649169 0.573704
C66   C     C_R   0.530278 0.823129 0.352748 0.589138
C67   C     C_R   0.936567 0.319053 0.640788 0.560840
C68   C     C_R   0.029998 0.324132 0.351895 0.590624
C69   C     C_R   0.259597 0.634193 0.647114 0.592072
C70   C     C_R   0.740869 0.632891 0.352063 0.612900
C71   C     C_R   0.760003 0.138226 0.645876 0.559250
C72   C     C_R   0.240354 0.135563 0.353499 0.582927
C73   C     C_R   0.494551 0.828165 0.074727 -0.039111
C74   C     C_R   0.505568 0.827400 0.925169 -0.038847
C75   C     C_R   0.994558 0.328163 0.074722 -0.038886
C76   C     C_R   0.005577 0.327409 0.925161 -0.041714
C77   C     C_R   0.492796 0.939583 0.036752 -0.101916
C78   C     C_R   0.507879 0.939019 0.962649 -0.101622
C79   C     C_R   0.992798 0.439583 0.036749 -0.101843
C80   C     C_R   0.007881 0.439028 0.962644 -0.104824
C81   C     C_R   0.507862 0.718076 0.964057 -0.028453
C82   C     C_R   0.491690 0.718554 0.036269 -0.027727
C83   C     C_R   0.007881 0.218085 0.964048 -0.029667
C84   C     C_R   0.991708 0.218554 0.036260 -0.027816
Cr1   Cr    Cr6+3 0.230530 0.836340 0.748870 1.115014
Cr2   Cr    Cr6+3 0.769470 0.836340 0.251130 1.112941
Cr3   Cr    Cr6+3 0.730530 0.336340 0.748870 1.111384
Cr4   Cr    Cr6+3 0.269470 0.336340 0.251130 1.107911
Cr5   Cr    Cr6+3 0.387420 0.989430 0.750820 1.112763
Cr6   Cr    Cr6+3 0.612580 0.989430 0.249180 1.123418
Cr7   Cr    Cr6+3 0.887420 0.489430 0.750820 1.127661
Cr8   Cr    Cr6+3 0.112580 0.489430 0.249180 1.120351
Cr9   Cr    Cr6+3 0.385640 0.677860 0.749230 1.135925
Cr10  Cr    Cr6+3 0.614360 0.677860 0.250770 1.114670
Cr11  Cr    Cr6+3 0.885640 0.177860 0.749230 1.102511
Cr12  Cr    Cr6+3 0.114360 0.177860 0.250770 1.119967
H1    H     H_    0.254744 0.438993 0.458966 0.106365
H2    H     H_    0.745116 0.444204 0.540954 0.133609
H3    H     H_    0.772185 0.002514 0.452823 0.100120
H4    H     H_    0.208662 0.035200 0.556598 0.092815
H5    H     H_    0.289482 0.556740 0.546066 0.070284
H6    H     H_    0.711759 0.541114 0.448928 0.064576
H7    H     H_    0.762152 0.983476 0.573022 0.063719
H8    H     H_    0.205083 0.044896 0.446835 0.083038
H9    H     H_    0.302215 0.418218 0.055109 0.157462
H10   H     H_    0.698516 0.417971 0.945256 0.156027
H11   H     H_    0.802245 0.918267 0.055120 0.157196
H12   H     H_    0.198494 0.918015 0.945247 0.155934
H13   H     H_    0.194478 0.586422 0.941077 0.117394
H14   H     H_    0.805595 0.587250 0.058755 0.117731
H15   H     H_    0.694495 0.086463 0.941098 0.117709
H16   H     H_    0.305579 0.087296 0.058733 0.117909
H17   H     H_    0.460554 0.850814 0.444615 0.053513
H18   H     H_    0.512263 0.935141 0.562717 0.075137
H19   H     H_    0.968141 0.405581 0.435530 0.048747
H20   H     H_    0.916140 0.320140 0.528542 -0.000743
O1    O     O_R   0.215090 0.709860 0.828130 -0.487422
O2    O     O_R   0.784910 0.709860 0.171870 -0.491069
O3    O     O_R   0.715090 0.209860 0.828130 -0.492539
O4    O     O_R   0.284910 0.209860 0.171870 -0.493391
O5    O     O_R   0.445660 0.919250 0.676780 -0.510295
O6    O     O_R   0.554340 0.919250 0.323220 -0.487079
O7    O     O_R   0.945660 0.419250 0.676780 -0.464345
O8    O     O_R   0.054340 0.419250 0.323220 -0.509827
O9    O     O_R   0.456260 0.718170 0.670000 -0.433783
O10   O     O_R   0.543740 0.718170 0.330000 -0.475227
O11   O     O_R   0.956260 0.218170 0.670000 -0.448278
O12   O     O_R   0.043740 0.218170 0.330000 -0.451523
O13   O     O_R   0.320940 0.626760 0.674370 -0.502451
O14   O     O_R   0.679060 0.626760 0.325630 -0.482527
O15   O     O_R   0.820940 0.126760 0.674370 -0.536320
O16   O     O_R   0.179060 0.126760 0.325630 -0.484316
O17   O     O_3   0.334530 0.834540 0.749640 -0.309380
O18   O     O_3   0.665470 0.834540 0.250360 -0.319977
O19   O     O_3   0.834530 0.334540 0.749640 -0.356408
O20   O     O_3   0.165470 0.334540 0.250360 -0.328249
O21   O     O_R   0.236990 0.958390 0.823710 -0.526390
O22   O     O_R   0.763010 0.958390 0.176290 -0.524291
O23   O     O_R   0.736990 0.458390 0.823710 -0.519554
O24   O     O_R   0.263010 0.458390 0.176290 -0.523512
O25   O     O_R   0.332380 0.074750 0.830850 -0.454576
O26   O     O_R   0.667620 0.074750 0.169150 -0.453959
O27   O     O_R   0.832380 0.574750 0.830850 -0.453752
O28   O     O_R   0.167620 0.574750 0.169150 -0.452286
O29   O     O_R   0.445800 0.917770 0.825070 -0.469115
O30   O     O_R   0.554200 0.917770 0.174930 -0.470375
O31   O     O_R   0.945800 0.417770 0.825070 -0.460694
O32   O     O_R   0.054200 0.417770 0.174930 -0.468193
O33   O     O_R   0.456410 0.716580 0.829970 -0.480206
O34   O     O_R   0.543590 0.716580 0.170030 -0.483061
O35   O     O_R   0.956410 0.216580 0.829970 -0.472990
O36   O     O_R   0.043590 0.216580 0.170030 -0.483119
O37   O     O_R   0.321080 0.625290 0.822650 -0.432778
O38   O     O_R   0.678920 0.625290 0.177350 -0.435520
O39   O     O_R   0.821080 0.125290 0.822650 -0.430477
O40   O     O_R   0.178920 0.125290 0.177350 -0.433340
O41   O     O_R   0.214930 0.711450 0.668160 -0.441073
O42   O     O_R   0.785070 0.711450 0.331840 -0.444283
O43   O     O_R   0.714930 0.211450 0.668160 -0.432835
O44   O     O_R   0.285070 0.211450 0.331840 -0.442848
O45   O     O_R   0.236850 0.959870 0.675420 -0.494905
O46   O     O_R   0.763150 0.959870 0.324580 -0.493156
O47   O     O_R   0.736850 0.459870 0.675420 -0.458688
O48   O     O_R   0.263150 0.459870 0.324580 -0.485670
O49   O     O_R   0.332230 0.076350 0.670880 -0.489408
O50   O     O_R   0.667770 0.076350 0.329120 -0.493741
O51   O     O_R   0.832230 0.576350 0.670880 -0.485193
O52   O     O_R   0.167770 0.576350 0.329120 -0.483461
C85   C     C_1   0.530626 0.606584 0.930080 0.236258
N1    N     N_1   0.549676 0.519287 0.901755 -0.245504
C86   C     C_1   0.468717 0.607693 0.070761 0.234220
N2    N     N_1   0.449577 0.520939 0.099531 -0.249883
C87   C     C_1   0.030652 0.106601 0.930067 0.237464
N3    N     N_1   0.049707 0.019311 0.901737 -0.246583
C88   C     C_1   0.968741 0.107688 0.070749 0.234405
N4    N     N_1   0.949605 0.020929 0.099518 -0.248998
C89   C     C_1   0.102036 0.607006 0.453619 0.253296
N5    N     N_1   0.053316 0.659104 0.432156 -0.260827
C90   C     C_1   0.898675 0.608451 0.548266 0.236494
N6    N     N_1   0.947999 0.657102 0.570721 -0.242427
C91   C     C_1   0.595462 0.078440 0.453150 0.242853
N7    N     N_1   0.537741 0.097099 0.436068 -0.272411
C92   C     C_1   0.331925 0.258590 0.573960 0.233168
N8    N     N_1   0.364015 0.336310 0.599857 -0.254879
O53   O     O_3   0.123297 0.567171 0.606438 -0.616505
H21   H     H_    0.078373 0.546922 0.582292 0.355745
O54   O     O_3   0.877992 0.582079 0.394478 -0.655788
H22   H     H_    0.923040 0.587761 0.420538 0.343347
O55   O     O_3   0.666952 0.241314 0.549593 -0.666433
H23   H     H_    0.643227 0.272124 0.505944 0.328692
O56   O     O_3   0.366611 0.165506 0.433108 -0.640660
H24   H     H_    0.402294 0.182267 0.470471 0.346801
O57   O     O_3   0.445514 0.058576 0.136930 -0.609688
H25   H     H_    0.420670 0.981303 0.146662 0.306946
O58   O     O_3   0.555507 0.055842 0.861821 -0.612653
H26   H     H_    0.580332 0.978119 0.852692 0.306795
O59   O     O_3   0.945518 0.558563 0.136937 -0.605358
H27   H     H_    0.920677 0.481289 0.146672 0.309048
O60   O     O_3   0.055496 0.555870 0.861813 -0.598935
H28   H     H_    0.080321 0.478151 0.852673 0.316312
O61   O     O_3   0.978940 0.766952 0.072373 -0.619470
H29   H     H_    0.011804 0.828301 0.053195 0.333656
O62   O     O_3   0.020386 0.765337 0.924257 -0.619092
H30   H     H_    0.985170 0.824992 0.941196 0.335439
O63   O     O_3   0.478920 0.266963 0.072353 -0.620273
H31   H     H_    0.511759 0.328333 0.053153 0.333588
O64   O     O_3   0.520370 0.265319 0.924238 -0.619436
H32   H     H_    0.485128 0.324950 0.941153 0.335688
O65   O     O_3   0.363375 0.498594 0.929126 -0.633438
H33   H     H_    0.393552 0.463614 0.967219 0.332416
O66   O     O_3   0.637324 0.497806 0.071323 -0.631723
H34   H     H_    0.607334 0.462145 0.033447 0.333682
O67   O     O_3   0.863396 0.998660 0.929140 -0.634014
H35   H     H_    0.893572 0.963664 0.967228 0.332370
O68   O     O_3   0.137308 0.997856 0.071311 -0.631303
H36   H     H_    0.107318 0.962190 0.033439 0.333636
O69   O     O_3   0.233792 0.703700 0.057719 -0.688991
H37   H     H_    0.267271 0.732003 0.020852 0.311248
O70   O     O_3   0.765552 0.703704 0.941935 -0.689282
H38   H     H_    0.731981 0.731963 0.978777 0.311935
O71   O     O_3   0.733800 0.203732 0.057740 -0.688841
H39   H     H_    0.767281 0.232047 0.020878 0.311566
O72   O     O_3   0.265536 0.203744 0.941910 -0.687847
H40   H     H_    0.231964 0.232009 0.978750 0.312087
O73   O     O_3   0.628614 0.750527 0.450842 -0.714080
H41   H     H_    0.657246 0.727574 0.493187 0.316827
O74   O     O_3   0.547875 0.638140 0.576455 -0.644287
H42   H     H_    0.567283 0.583970 0.539069 0.342200
O75   O     O_3   0.098170 0.203136 0.459905 -0.697377
H43   H     H_    0.109642 0.154910 0.503077 0.324636
O76   O     O_3   0.076748 0.304795 0.604254 -0.643055
H44   H     H_    0.123831 0.305287 0.581540 0.330544

loop_
_geom_bond_atom_site_label_1
_geom_bond_atom_site_label_2
_ccdc_geom_bond_type
C16   C28   D    
Cr3   O47   S    
O62   H30   S    
C38   C70   S    
C37   C69   S    
Cr8   O32   S    
Cr1   O45   S    
O61   H29   S    
C31   H20   S    
Cr9   O33   S    
C35   C36   S    
C19   O71   S    
C52   C92   S    
C58   O2    A    
C86   N2    T    
Cr11  O39   S    
C68   O8    A    
Cr7   O31   S    
C81   C82   A    
C17   O69   S    
Cr12  O20   S    
Cr12  O40   S    
C87   N3    T    
O66   H34   S    
C63   O47   A    
C50   C54   S    
C21   C25   S    
C83   C84   A    
C45   O29   A    
C55   O55   S    
C7    C79   A    
C43   H3    S    
C47   C76   S    
C5    C11   A    
Cr9   O17   S    
C42   H2    S    
C27   O67   S    
C6    C12   A    
Cr6   O18   S    
Cr5   O25   S    
C75   C84   A    
C6    C78   A    
C13   C57   S    
Cr12  O36   S    
C70   O14   A    
Cr4   O48   S    
Cr12  O12   S    
C3    C18   S    
C7    C9    A    
C16   C60   S    
C61   O45   A    
C53   O53   S    
Cr4   O24   S    
C13   H13   S    
C58   O38   A    
C29   H18   S    
Cr2   O18   S    
C39   C55   D    
O72   H40   S    
Cr3   O43   S    
C40   C56   D    
C69   O41   A    
C76   C80   A    
C66   O6    A    
C60   O4    A    
C26   O66   S    
Cr2   O46   S    
C65   O5    A    
Cr4   O4    S    
C84   C88   S    
C10   O62   S    
C68   O12   A    
C31   C36   D    
C49   C89   S    
C30   H17   S    
C64   O48   A    
Cr12  O16   S    
C37   C53   D    
C62   O46   A    
C44   C52   D    
C28   O68   S    
C63   O51   A    
Cr5   O29   S    
C56   O56   S    
O60   H28   S    
C4    O24   A    
Cr7   O7    S    
Cr6   O50   S    
Cr11  O15   S    
Cr6   O6    S    
C48   C75   S    
C13   C25   D    
Cr8   O20   S    
Cr1   O41   S    
Cr9   O13   S    
C18   O70   S    
C76   C83   A    
C41   C49   D    
C6    O58   S    
C83   C87   S    
C72   O16   A    
Cr7   O27   S    
Cr10  O10   S    
C14   C58   S    
C44   C61   S    
C47   O31   A    
Cr5   O17   S    
Cr8   O28   S    
O64   H32   S    
C2    O22   A    
C12   O64   S    
C15   H15   S    
C3    O27   A    
C79   C80   A    
Cr4   O20   S    
C45   O33   A    
O65   H33   S    
O70   H38   S    
C59   O39   A    
C19   C23   D    
C51   C55   S    
O69   H37   S    
C91   N7    T    
C57   O37   A    
C29   C34   D    
C17   C21   D    
C66   O10   A    
C45   C74   S    
C70   O42   A    
C65   O9    A    
C7    O59   S    
C31   C67   S    
O68   H36   S    
C32   C35   D    
C92   N8    T    
Cr3   O3    S    
O75   H43   S    
C67   O11   A    
C40   H8    S    
O71   H39   S    
Cr8   O52   S    
C15   C27   D    
O74   H42   S    
C38   C54   D    
O67   H35   S    
Cr10  O38   S    
C23   H11   S    
Cr11  O19   S    
O73   H41   S    
Cr7   O19   S    
Cr2   O2    S    
C85   N1    T    
Cr10  O14   S    
C14   C26   D    
C25   O65   S    
Cr2   O42   S    
Cr5   O49   S    
C30   C66   S    
C9    O61   S    
C42   C50   D    
C29   C65   S    
C4    C17   S    
C69   O13   A    
C62   O50   A    
C47   O35   A    
C89   N5    T    
C23   C27   S    
C54   O54   S    
C48   O36   A    
C22   C26   S    
C2    O26   A    
C41   H1    S    
Cr1   O1    S    
Cr11  O35   S    
C74   C81   A    
C5    C77   A    
Cr1   O21   S    
C73   C82   A    
Cr6   O30   S    
C1    O21   A    
C16   H16   S    
Cr3   O19   S    
C5    O57   S    
C9    C10   A    
Cr7   O51   S    
O55   H23   S    
C14   H14   S    
O63   H31   S    
C82   C86   S    
C1    C20   S    
C59   O3    A    
C40   C72   S    
C30   C33   D    
C46   O34   A    
C2    C19   S    
C18   C22   D    
C15   C59   S    
C24   C28   S    
Cr3   O23   S    
C51   C91   S    
C67   O7    A    
C4    O28   A    
C11   C12   A    
C39   H7    S    
C90   N6    T    
Cr6   O26   S    
C71   O43   A    
C33   O73   S    
C81   C85   S    
C72   O44   A    
C32   C68   S    
Cr8   O8    S    
C34   O74   S    
O54   H22   S    
C64   O52   A    
C88   N4    T    
C22   H10   S    
C37   H5    S    
C44   H4    S    
C43   C51   D    
O53   H21   S    
C46   O30   A    
Cr5   O5    S    
C36   O76   S    
C49   C53   S    
C48   O32   A    
Cr9   O37   S    
Cr10  O18   S    
C20   O72   S    
C33   C34   S    
C50   C90   S    
C61   O49   A    
C60   O40   A    
Cr4   O44   S    
C32   H19   S    
C38   H6    S    
O59   H27   S    
O56   H24   S    
Cr9   O9    S    
C57   O1    A    
C1    O25   A    
Cr2   O22   S    
C71   O15   A    
O58   H26   S    
Cr11  O11   S    
Cr10  O34   S    
C3    O23   A    
C8    C10   A    
O57   H25   S    
C74   C78   A    
O76   H44   S    
C8    C80   A    
C73   C77   A    
C77   C78   A    
C8    O60   S    
C11   O63   S    
C41   C64   S    
C35   O75   S    
C75   C79   A    
C42   C63   S    
C20   C24   D    
C46   C73   S    
C21   H9    S    
C24   H12   S    
C52   C56   S    
C43   C62   S    
Cr1   O17   S    
C39   C71   S    
