data_mof_unit_52754.cif
_audit_creation_date              2012-12-11T16:08:50-0500
_audit_creation_method            fapswitch 2.2
_symmetry_space_group_name_H-M    P1
_symmetry_Int_Tables_number       1
_space_group_crystal_system       triclinic
_cell_length_a                    12.93429
_cell_length_b                    13.322213
_cell_length_c                    27.700553
_cell_angle_alpha                 94.632238
_cell_angle_beta                  90.117271
_cell_angle_gamma                 119.392929
_cell_volume                      4140.38375211

loop_
_atom_site_label
_atom_site_type_symbol
_atom_type_description
_atom_site_fract_x
_atom_site_fract_y
_atom_site_fract_z
_atom_type_partial_charge
C1    C     C_R   0.601203 0.930057 0.423058 0.553915
C2    C     C_R   0.598607 0.228547 0.218009 0.261175
C3    C     C_R   0.588872 0.215536 0.267758 -0.029597
C4    C     C_R   0.665744 0.305488 0.301953 0.019130
C5    C     C_R   0.687499 0.334825 0.202555 0.020014
C6    C     C_1   0.694473 0.360440 0.152640 -0.072146
C7    C     C_1   0.651145 0.289754 0.352766 -0.031965
C8    C     C_1   0.702378 0.390766 0.112320 -0.015491
C9    C     C_R   0.165627 0.747369 0.352851 -0.120840
C10   C     C_R   0.146536 0.736485 0.303030 0.017173
C11   C     C_R   0.131361 0.722447 0.202255 0.007178
C12   C     C_R   0.601368 0.222243 0.440541 0.532379
C13   C     C_R   0.116817 0.627220 0.225592 -0.137365
C14   C     C_R   0.121965 0.633471 0.275854 -0.109962
C15   C     C_R   0.120995 0.714439 0.152302 -0.119614
C16   C     C_R   0.117270 0.802249 0.128733 0.000490
C17   C     C_R   0.209167 0.947573 0.357019 -0.130237
C18   C     C_R   0.186665 0.936962 0.307065 0.006255
C19   C     C_R   0.160247 0.832510 0.279799 0.057978
C20   C     C_R   0.197132 0.030731 0.283525 -0.121905
C21   C     C_R   0.182031 0.021087 0.233072 -0.106290
C22   C     C_R   0.159388 0.918643 0.205601 0.028437
C23   C     C_R   0.268522 0.876342 0.425984 0.532725
C24   C     C_R   0.150460 0.824708 0.229204 0.062815
C25   C     C_R   0.140528 0.906065 0.155188 -0.118236
C26   C     C_R   0.205835 0.854939 0.379282 -0.005878
C27   C     C_R   0.692161 0.007594 0.343944 0.235731
C28   C     C_R   0.692199 0.992722 0.293037 0.087768
C29   C     C_R   0.708813 0.949031 0.193432 -0.016143
C30   C     C_R   0.780663 0.059655 0.216469 -0.119773
C31   C     C_R   0.774227 0.082787 0.266226 0.282252
C32   C     C_R   0.729184 0.923586 0.146087 -0.166075
C33   C     C_R   0.669116 0.809841 0.124328 0.037706
C34   C     C_R   0.627183 0.898732 0.564990 0.563175
C35   C     C_R   0.515409 0.817659 0.343495 -0.137201
C36   C     C_R   0.519785 0.797686 0.293475 0.043809
C37   C     C_R   0.609652 0.884656 0.268288 -0.064021
C38   C     C_R   0.437680 0.690821 0.268561 0.254083
C39   C     C_R   0.451503 0.668324 0.219282 -0.116667
C40   C     C_R   0.547018 0.750210 0.194789 -0.005257
C41   C     C_R   0.620591 0.861714 0.218662 0.009017
C42   C     C_R   0.573933 0.722839 0.147598 0.227607
C43   C     C_R   0.603988 0.918579 0.369509 -0.056241
C44   C     C_R   0.742637 0.298800 0.651128 -0.141426
C45   C     C_R   0.603476 0.227418 0.578355 0.555561
C46   C     C_R   0.759838 0.324933 0.701755 -0.027123
C47   C     C_R   0.771708 0.351975 0.804042 -0.020599
C48   C     C_R   0.862823 0.346336 0.779013 -0.099569
C49   C     C_R   0.858676 0.332939 0.728017 0.010951
C50   C     C_R   0.779022 0.370249 0.854719 -0.135961
C51   C     C_R   0.688995 0.380005 0.879177 -0.002425
C52   C     C_R   0.564102 0.315674 0.652027 -0.105183
C53   C     C_R   0.573950 0.333344 0.702085 0.000896
C54   C     C_R   0.670256 0.335536 0.727289 0.042019
C55   C     C_R   0.484349 0.341632 0.727266 -0.133718
C56   C     C_R   0.271690 0.879172 0.563345 0.553808
C57   C     C_R   0.487395 0.348353 0.777494 -0.134192
C58   C     C_R   0.581787 0.350083 0.802976 0.007783
C59   C     C_R   0.674685 0.345660 0.778073 0.052904
C60   C     C_R   0.587264 0.362080 0.853174 -0.126754
C61   C     C_R   0.642122 0.288747 0.626836 0.006979
C62   C     C_1   0.225343 0.862575 0.610636 0.039942
C63   C     C_R   0.247704 0.801435 0.731726 0.030544
C64   C     C_R   0.232228 0.798266 0.781842 -0.132743
C65   C     C_R   0.095514 0.872359 0.776083 -0.108132
C66   C     C_R   0.110015 0.876603 0.726254 -0.130320
C67   C     C_1   0.632525 0.266670 0.394157 -0.016904
C68   C     C_R   0.185172 0.841183 0.703684 0.046995
C69   C     C_R   0.156806 0.833523 0.803908 0.026737
C70   C     C_1   0.133423 0.819268 0.854274 -0.050142
C71   C     C_1   0.201348 0.851645 0.652539 0.014144
C72   C     C_1   0.105230 0.800039 0.895311 -0.009173
C73   C     C_1   0.642166 0.865427 0.611250 0.052179
C74   C     C_R   0.638588 0.904478 0.736512 -0.130853
C75   C     C_R   0.639746 0.893297 0.786103 -0.121422
C76   C     C_R   0.665723 0.725923 0.769529 -0.139742
C77   C     C_R   0.664692 0.735811 0.719394 0.027585
C78   C     C_R   0.755526 0.408626 0.286494 -0.105080
C79   C     C_R   0.651347 0.827015 0.702903 0.057858
C80   C     C_R   0.653562 0.804257 0.802700 0.021743
C81   C     C_1   0.665173 0.797666 0.853830 -0.051482
C82   C     C_1   0.648583 0.844567 0.652323 0.053960
C83   C     C_1   0.682897 0.790012 0.895730 -0.008988
C84   C     C_R   0.063596 0.771313 0.079556 0.545439
C85   C     C_R   0.716650 0.440640 0.067138 0.546727
C86   C     C_R   0.718870 0.782489 0.080694 0.568379
C87   C     C_R   0.057077 0.766553 0.941469 0.547323
C88   C     C_R   0.710217 0.434312 0.928921 0.541960
C89   C     C_R   0.766121 0.423220 0.237046 -0.148507
C90   C     C_R   0.715967 0.776327 0.943096 0.543319
Cr1   Cr    Cr6+3 0.416430 0.829200 0.492370 1.064503
Cr2   Cr    Cr6+3 0.674630 0.087020 0.504170 1.043228
Cr3   Cr    Cr6+3 0.408920 0.083740 0.503490 1.034677
Cr4   Cr    Cr6+3 0.914010 0.832750 0.013970 1.026170
Cr5   Cr    Cr6+3 0.922310 0.578600 0.003000 1.026130
Cr6   Cr    Cr6+3 0.656280 0.574630 0.003870 1.068334
H1    H     H_    0.816135 0.478279 0.312607 0.130828
H2    H     H_    0.189026 0.093859 0.215541 0.118137
H3    H     H_    0.217525 0.111515 0.304091 0.126082
H4    H     H_    0.238609 0.030475 0.377645 0.140376
H5    H     H_    0.799703 0.991304 0.127598 0.136483
H6    H     H_    0.845710 0.127148 0.196096 0.090534
H7    H     H_    0.387997 0.585663 0.200762 0.105801
H8    H     H_    0.834283 0.504929 0.225701 0.128419
H9    H     H_    0.445652 0.751443 0.362736 0.207075
H10   H     H_    0.857583 0.383694 0.874753 0.129390
H11   H     H_    0.800974 0.276909 0.630713 0.120291
H12   H     H_    0.938306 0.353924 0.799461 0.160003
H13   H     H_    0.516472 0.368177 0.871696 0.139093
H14   H     H_    0.416634 0.353461 0.796432 0.126028
H15   H     H_    0.410287 0.339862 0.708060 0.136802
H16   H     H_    0.487838 0.310744 0.633247 0.150060
H17   H     H_    0.277739 0.766576 0.803752 0.100736
H18   H     H_    0.035354 0.898027 0.792820 0.126655
H19   H     H_    0.062337 0.907484 0.705240 0.127546
H20   H     H_    0.628042 0.974356 0.724275 0.126448
H21   H     H_    0.631560 0.955021 0.811478 0.122209
H22   H     H_    0.677662 0.657783 0.782930 0.104951
H23   H     H_    0.520204 0.134884 0.279774 0.133324
H24   H     H_    0.104145 0.634044 0.132297 0.142355
H25   H     H_    0.160632 0.675101 0.370238 0.150176
H26   H     H_    0.099928 0.547511 0.204994 0.105806
H27   H     H_    0.110381 0.559067 0.293430 0.142494
H28   H     H_    0.138279 0.974076 0.136990 0.123263
O1    O     O_R   0.296680 0.802170 0.437540 -0.528192
O2    O     O_R   0.662610 0.183990 0.557860 -0.500867
O3    O     O_R   0.500730 0.201280 0.562180 -0.509799
O4    O     O_R   0.312500 0.978850 0.548170 -0.499605
O5    O     O_3   0.499990 0.999990 0.500010 -0.281831
O6    O     O_R   0.820790 0.857990 0.068830 -0.538358
O7    O     O_R   0.016700 0.827330 0.062850 -0.500391
O8    O     O_R   0.041970 0.673520 0.060040 -0.519140
O9    O     O_R   0.817980 0.483660 0.048840 -0.500249
O10   O     O_R   0.637200 0.461990 0.052510 -0.485051
O11   O     O_R   0.664790 0.681920 0.057970 -0.432726
O12   O     O_R   0.525380 0.838530 0.443500 -0.498506
O13   O     O_R   0.815840 0.852920 0.961840 -0.507597
O14   O     O_R   0.012100 0.822630 0.963670 -0.493680
O15   O     O_R   0.037010 0.668460 0.953040 -0.505894
O16   O     O_R   0.813390 0.478970 0.949660 -0.501697
O17   O     O_R   0.632250 0.456930 0.945520 -0.521791
O18   O     O_R   0.660200 0.677230 0.958780 -0.496917
O19   O     O_3   0.830870 0.661990 0.006950 -0.254879
O20   O     O_R   0.702130 0.995190 0.446810 -0.470624
O21   O     O_R   0.661770 0.181390 0.458760 -0.532483
O22   O     O_R   0.499820 0.198480 0.455280 -0.498292
O23   O     O_R   0.311660 0.976250 0.449080 -0.505571
O24   O     O_R   0.297580 0.804960 0.544440 -0.477143
O25   O     O_R   0.526220 0.841130 0.542590 -0.467418
O26   O     O_R   0.703030 0.997990 0.553710 -0.510832
O27   O     O_3   0.784110 0.105449 0.368013 -0.605229
H29   H     H_    0.748671 0.138090 0.391264 0.345522
O28   O     O_3   0.846905 0.192486 0.288849 -0.640791
H30   H     H_    0.895994 0.244801 0.264581 0.309480
O29   O     O_3   0.513947 0.611928 0.124747 -0.679458
H31   H     H_    0.497625 0.556474 0.149257 0.317005
O30   O     O_3   0.348010 0.607766 0.293447 -0.721487
H32   H     H_    0.299675 0.537626 0.270946 0.317851
C91   C     C_2   0.960347 0.331493 0.703551 0.225523
H33   H     H_    0.975072 0.347105 0.665773 0.113949
O31   O     O_2   0.031167 0.314661 0.725834 -0.510372
C92   C     C_2   0.329036 0.761571 0.711125 0.220864
H34   H     H_    0.373824 0.732691 0.734994 0.113136
O32   O     O_2   0.347257 0.759621 0.667951 -0.498273
O33   O     O_3   0.518741 0.136684 0.186503 -0.703611
H35   H     H_    0.538720 0.154052 0.152624 0.330352
C93   C     C_2   0.679329 0.650230 0.686546 0.222417
H36   H     H_    0.694736 0.585988 0.701863 0.110512
O34   O     O_2   0.674403 0.649488 0.642510 -0.497470

loop_
_geom_bond_atom_site_label_1
_geom_bond_atom_site_label_2
_ccdc_geom_bond_type
C63   C92   S    
C66   C68   A    
Cr5   O19   S    
O33   H35   S    
C21   H2    S    
C65   H18   S    
C88   O17   A    
C35   C36   A    
C75   H21   S    
Cr5   O9    S    
C72   C87   S    
C34   O26   A    
C93   O34   D    
C53   C54   A    
C46   C49   A    
Cr5   O16   S    
Cr4   O6    S    
C5    C6    S    
C33   C42   A    
C36   C37   A    
C8    C85   S    
C29   C32   A    
C52   C61   A    
C38   C39   A    
C52   H16   S    
C58   C60   A    
C15   C16   A    
C11   C24   A    
C16   C84   S    
C15   H24   S    
C18   C19   A    
C23   C26   S    
C12   O22   A    
C88   O16   A    
C60   H13   S    
C81   C83   T    
Cr6   O17   S    
C11   C15   A    
C1    C43   S    
O30   H32   S    
Cr1   O12   S    
C91   H33   S    
C22   C25   A    
C9    H25   S    
O27   H29   S    
C91   O31   D    
Cr3   O23   S    
C14   H27   S    
Cr6   O11   S    
C1    O12   A    
C35   C43   A    
C75   C80   A    
C45   O2    A    
C18   C20   A    
C85   O10   A    
C23   O1    A    
C29   C41   A    
C40   C42   A    
C17   H4    S    
C21   C22   A    
C46   C54   A    
C42   O29   S    
C4    C7    S    
Cr3   O5    S    
Cr1   O24   S    
C31   O28   S    
C34   O25   A    
C44   C46   A    
C9    C26   A    
C50   C51   A    
C47   C50   A    
C92   O32   D    
C54   C59   A    
C53   C55   A    
C78   C89   A    
C12   C67   S    
C47   C59   A    
C66   H19   S    
C47   C48   A    
C76   C77   A    
C10   C14   A    
C93   H36   S    
Cr1   O25   S    
C86   O6    A    
Cr6   O10   S    
C58   C59   A    
C7    C67   T    
C84   O8    A    
C76   H22   S    
C12   O21   A    
C56   O24   A    
C33   C86   S    
Cr3   O3    S    
C4    C78   A    
C29   C30   A    
C35   H9    S    
C57   H14   S    
C10   C19   A    
C74   H20   S    
C30   H6    S    
C78   H1    S    
C17   C18   A    
C77   C79   A    
Cr3   O22   S    
C64   C69   A    
C20   C21   A    
C2    O33   S    
C90   O18   A    
C3    H23   S    
C48   C49   A    
C74   C79   A    
C55   C57   A    
C89   H8    S    
Cr2   O26   S    
Cr5   O8    S    
Cr4   O14   S    
C56   C62   S    
C2    C5    A    
Cr4   O19   S    
C87   O14   A    
C3    C4    A    
C73   C82   T    
C39   C40   A    
C90   O13   A    
C52   C53   A    
C92   H34   S    
C9    C10   A    
C44   H11   S    
C16   C25   A    
C83   C90   S    
C63   C68   A    
C40   C41   A    
C27   O27   S    
C64   H17   S    
Cr1   O1    S    
C55   H15   S    
Cr2   O21   S    
C19   C24   A    
C28   C31   A    
C76   C80   A    
C38   O30   S    
C87   O15   A    
C80   C81   S    
Cr2   O2    S    
C51   C88   S    
C79   C82   S    
C6    C8    T    
C39   H7    S    
Cr1   O5    S    
C44   C61   A    
C77   C93   S    
C84   O7    A    
Cr5   O15   S    
Cr4   O7    S    
C32   C33   A    
C36   C38   A    
C2    C3    A    
Cr3   O4    S    
C1    O20   A    
Cr6   O19   S    
C13   H26   S    
C11   C13   A    
C30   C31   A    
C57   C58   A    
C48   H12   S    
C20   H3    S    
C23   O23   A    
C28   C37   A    
C45   O3    A    
C68   C71   S    
C65   C69   A    
C45   C61   S    
C17   C26   A    
C62   C71   T    
Cr2   O5    S    
C22   C24   A    
C56   O4    A    
C37   C41   A    
C69   C70   S    
Cr2   O20   S    
C25   H28   S    
C34   C73   S    
Cr6   O18   S    
C63   C64   A    
C27   C43   A    
C86   O11   A    
C74   C75   A    
C65   C66   A    
O29   H31   S    
C50   H10   S    
Cr4   O13   S    
C32   H5    S    
C49   C91   S    
C70   C72   T    
C51   C60   A    
O28   H30   S    
C13   C14   A    
C5    C89   A    
C85   O9    A    
C27   C28   A    
