data_mof_unit_44806.cif
_audit_creation_date              2012-12-10T20:34:10-0500
_audit_creation_method            fapswitch 2.2
_symmetry_space_group_name_H-M    P1
_symmetry_Int_Tables_number       1
_space_group_crystal_system       triclinic
_cell_length_a                    9.895148
_cell_length_b                    10.792106
_cell_length_c                    13.594546
_cell_angle_alpha                 89.280298
_cell_angle_beta                  81.78177
_cell_angle_gamma                 89.978487
_cell_volume                      1436.73139061

loop_
_atom_site_label
_atom_site_type_symbol
_atom_type_description
_atom_site_fract_x
_atom_site_fract_y
_atom_site_fract_z
_atom_type_partial_charge
C1    C     C_R   0.501513 0.740297 0.500123 0.857997
C2    C     C_1   0.454607 0.493575 0.790144 -0.161838
C3    C     C_R   0.403245 0.938793 0.460858 -0.004927
C4    C     C_R   0.510661 0.873012 0.493112 -0.147336
C5    C     C_R   0.630700 0.939999 0.509742 0.082330
C6    C     C_R   0.624133 0.068512 0.510762 -0.214804
C7    C     C_R   0.505166 0.130020 0.494369 -0.173139
C8    C     C_R   0.400163 0.064703 0.462555 0.069495
C9    C     C_3   0.248749 0.071920 0.487615 0.215179
C10   C     C_3   0.250162 0.929859 0.480463 -0.185693
C11   C     C_R   0.915010 0.436285 0.570904 0.200011
C12   C     C_R   0.474450 0.498793 0.685889 0.897932
C13   C     C_R   0.945496 0.553293 0.422813 0.108952
C14   C     C_R   0.088971 0.547058 0.421714 -0.129011
C15   C     C_R   0.057003 0.438033 0.571555 0.202372
C16   C     C_3   0.042009 0.456567 0.680842 -0.570075
C17   C     C_3   0.888212 0.453507 0.680825 0.178354
C18   C     C_R   0.500208 0.260689 0.500545 0.923627
C19   C     C_R   0.525280 0.501609 0.314056 0.908527
C20   C     C_1   0.543402 0.517755 0.210335 -0.200507
C21   C     C_2   0.545064 0.553743 0.020364 0.141541
C22   C     C_2   0.451989 0.487157 0.981544 -0.175867
C23   C     C_1   0.446947 0.489480 0.878105 0.022351
C24   C     C_1   0.549433 0.534966 0.123287 -0.033971
H1    H     H_    0.383534 0.423897 0.027483 0.151645
H2    H     H_    0.157245 0.584421 0.359320 0.154071
H3    H     H_    0.082527 0.376644 0.719889 0.244369
H4    H     H_    0.080222 0.548665 0.700331 0.185532
H5    H     H_    0.836050 0.541959 0.703242 0.133405
H6    H     H_    0.710472 0.120488 0.529590 0.202899
H7    H     H_    0.216594 0.105012 0.564569 0.106524
H8    H     H_    0.213181 0.884515 0.553320 0.135843
N1    N     N_R   0.857130 0.500860 0.500650 -0.147066
N2    N     N_R   0.142770 0.500820 0.500650 -0.111250
O1    O     O_R   0.385310 0.683210 0.499990 -0.619432
O2    O     O_R   0.614650 0.683240 0.500000 -0.650077
O3    O     O_R   0.368820 0.499950 0.640340 -0.620391
O4    O     O_R   0.598170 0.499990 0.640350 -0.596302
O5    O     O_R   0.385350 0.316760 0.500000 -0.578544
O6    O     O_R   0.614690 0.316790 0.500010 -0.601659
O7    O     O_R   0.401830 0.500010 0.359650 -0.597596
O8    O     O_R   0.631180 0.500050 0.359660 -0.628077
Zn1   Zn    Zn3+2 0.346870 0.499980 0.499990 0.970787
Zn2   Zn    Zn3+2 0.653130 0.500020 0.500010 0.953131
Cl1   Cl    Cl    0.808902 0.319682 0.742498 -0.614621
C25   C     C_3   0.642712 0.646287 0.962890 -0.374744
C26   C     C_3   0.610537 0.778352 0.999725 -0.379131
C27   C     C_3   0.712490 0.871577 0.946636 -0.838419
H9    H     H_    0.817880 0.847705 0.959398 0.262653
H10   H     H_    0.707204 0.872299 0.865717 0.261414
H11   H     H_    0.687619 0.965792 0.975726 0.265486
H12   H     H_    0.505975 0.804349 0.986126 0.228034
H13   H     H_    0.614186 0.783320 0.080918 0.225223
H14   H     H_    0.748563 0.621198 0.973151 0.204917
H15   H     H_    0.638951 0.644181 0.881708 0.205165
C28   C     C_3   0.765493 0.884784 0.531305 -0.363845
C29   C     C_3   0.758292 0.841918 0.639896 -0.308394
C30   C     C_3   0.898941 0.802315 0.662475 -0.921230
H16   H     H_    0.890454 0.765537 0.739750 0.248870
H17   H     H_    0.942030 0.729108 0.610468 0.252952
H18   H     H_    0.969619 0.882894 0.655049 0.270141
H19   H     H_    0.721155 0.919577 0.689485 0.227859
H20   H     H_    0.686100 0.763269 0.656459 0.231388
H21   H     H_    0.802492 0.811013 0.478703 0.205645
H22   H     H_    0.847857 0.955737 0.516891 0.199076
Cl2   Cl    Cl    0.173275 0.158646 0.396213 -0.634725
C31   C     C_3   0.185105 0.874196 0.393827 -0.296930
C32   C     C_3   0.274374 0.881503 0.290905 -0.268254
C33   C     C_3   0.199231 0.832725 0.209031 -0.924609
H23   H     H_    0.176915 0.732573 0.221111 0.259007
H24   H     H_    0.102589 0.884560 0.207342 0.275980
H25   H     H_    0.264434 0.844682 0.135962 0.255307
H26   H     H_    0.305628 0.978675 0.272215 0.267307
H27   H     H_    0.368243 0.825074 0.291892 0.204845
H28   H     H_    0.165091 0.776175 0.413077 0.183191
H29   H     H_    0.083808 0.917367 0.390848 0.221585
C34   C     C_3   0.897478 0.626972 0.339638 -0.413870
C35   C     C_3   0.922826 0.556501 0.241345 -0.298114
C36   C     C_3   0.888824 0.636469 0.155024 -0.893366
H30   H     H_    0.781764 0.669264 0.169810 0.267594
H31   H     H_    0.957479 0.718159 0.143538 0.263811
H32   H     H_    0.903003 0.581031 0.086169 0.255682
H33   H     H_    0.031713 0.528472 0.224840 0.215855
H34   H     H_    0.859800 0.470912 0.246844 0.253333
H35   H     H_    0.790103 0.654712 0.357189 0.249804
H36   H     H_    0.954662 0.715928 0.331075 0.168813

loop_
_geom_bond_atom_site_label_1
_geom_bond_atom_site_label_2
_ccdc_geom_bond_type
C16   H4    S    
C17   H5    S    
C5    C28   S    
C19   C20   S    
C2    C12   S    
C7    C8    A    
C10   C31   S    
O4    Zn2   S    
C17   Cl1   S    
C5    C6    A    
C30   H17   S    
C15   C16   S    
C28   C29   S    
C12   O3    A    
C33   H24   S    
C18   O6    A    
C9    Cl2   S    
C11   C15   A    
C35   H33   S    
C27   H11   S    
C20   C24   T    
C8    C9    S    
C22   H1    S    
C25   H15   S    
C28   H21   S    
O1    Zn1   S    
C9    C10   S    
C15   N2    A    
C19   O8    A    
C26   H13   S    
C30   H18   S    
C27   H10   S    
C34   H35   S    
C21   C22   D    
O7    Zn1   S    
O8    Zn2   S    
C29   H20   S    
C13   C34   S    
C31   C32   S    
C11   N1    A    
C3    C8    A    
C36   H31   S    
C35   C36   S    
C32   C33   S    
O5    Zn1   S    
C29   H19   S    
C30   H16   S    
C34   C35   S    
O3    Zn1   S    
C33   H25   S    
C18   O5    A    
C13   N1    A    
C10   H8    S    
C26   C27   S    
C7    C18   S    
C25   H14   S    
C19   O7    A    
C14   H2    S    
C26   H12   S    
C27   H9    S    
C6    H6    S    
C34   H36   S    
O2    Zn2   S    
C31   H28   S    
C3    C4    A    
C1    O1    A    
C21   C25   S    
C25   C26   S    
C11   C17   S    
N1    Zn2   S    
N2    Zn1   S    
C4    C5    A    
C14   N2    A    
C36   H32   S    
C6    C7    A    
C1    C4    S    
C32   H26   S    
C3    C10   S    
C29   C30   S    
C16   C17   S    
C16   H3    S    
C12   O4    A    
C33   H23   S    
C9    H7    S    
C36   H30   S    
C35   H34   S    
O6    Zn2   S    
C21   C24   S    
C2    C23   T    
C22   C23   S    
C31   H29   S    
C13   C14   A    
C32   H27   S    
C28   H22   S    
C1    O2    A    
