data_mof_unit_7824.cif
_audit_creation_date              2012-12-10T17:33:04-0500
_audit_creation_method            fapswitch 2.2
_symmetry_space_group_name_H-M    P1
_symmetry_Int_Tables_number       1
_space_group_crystal_system       triclinic
_cell_length_a                    12.370068
_cell_length_b                    13.260902
_cell_length_c                    14.262363
_cell_angle_alpha                 93.248764
_cell_angle_beta                  107.504149
_cell_angle_gamma                 117.022203
_cell_volume                      1935.51198111

loop_
_atom_site_label
_atom_site_type_symbol
_atom_type_description
_atom_site_fract_x
_atom_site_fract_y
_atom_site_fract_z
_atom_type_partial_charge
C1    C     C_R   0.650912 0.714100 0.508718 0.777060
C2    C     C_R   0.842887 0.491085 0.917276 0.090207
C3    C     C_R   0.787649 0.499761 0.989190 0.163961
C4    C     C_R   0.950355 0.470383 0.944649 0.065306
C5    C     C_R   0.009761 0.470963 0.047053 0.059108
C6    C     C_R   0.950258 0.477907 0.116150 -0.203225
C7    C     C_R   0.840867 0.491292 0.087266 -0.234046
C8    C     C_R   0.998406 0.446422 0.872693 -0.220851
C9    C     C_R   0.106325 0.430879 0.901240 -0.230456
C10   C     C_R   0.171905 0.440787 0.002353 0.167510
C11   C     C_R   0.125459 0.462495 0.076464 0.087428
C12   C     C_R   0.617959 0.516281 0.686590 0.792987
C13   C     C_R   0.284287 0.429818 0.030276 -0.198253
C14   C     C_R   0.352918 0.442402 0.131473 -0.201578
C15   C     C_R   0.198913 0.478652 0.178052 -0.226897
C16   C     C_R   0.139989 0.966857 0.363121 -0.185143
C17   C     C_R   0.249262 0.162396 0.463519 -0.049158
C18   C     C_R   0.731344 0.921089 0.575156 -0.184911
C19   C     C_R   0.822058 0.037903 0.594603 -0.147291
C20   C     C_R   0.922934 0.072575 0.558357 -0.164105
C21   C     C_R   0.932371 0.990329 0.498097 0.085241
C22   C     C_R   0.830572 0.873058 0.468373 0.079715
C23   C     C_R   0.345340 0.285306 0.485075 0.809293
C24   C     C_R   0.038791 0.020800 0.465513 0.081299
C25   C     C_R   0.035494 0.937485 0.395938 0.165751
C26   C     C_R   0.926807 0.826697 0.358164 -0.235630
C27   C     C_R   0.825040 0.795298 0.392729 -0.195377
C28   C     C_R   0.149414 0.131535 0.500967 -0.227185
C29   C     C_R   0.246177 0.079264 0.396214 -0.190840
C30   C     C_R   0.736243 0.837402 0.514407 -0.103929
C31   C     C_R   0.251845 0.684236 0.660148 -0.298089
C32   C     C_R   0.653155 0.342862 0.363231 -0.042497
C33   C     C_R   0.728743 0.307850 0.331104 -0.309123
C34   C     C_R   0.380918 0.482166 0.313255 0.800336
C35   C     C_R   0.863850 0.365245 0.380571 0.580003
C36   C     C_R   0.926632 0.460614 0.464765 -0.135028
C37   C     C_R   0.843450 0.493605 0.494205 0.217392
C38   C     C_R   0.066611 0.525072 0.520991 -0.018756
C39   C     C_R   0.117523 0.619448 0.603423 0.171256
C40   C     C_R   0.034734 0.649542 0.629431 -0.283308
C41   C     C_R   0.901519 0.588471 0.576187 -0.159904
C42   C     C_R   0.160130 0.501651 0.500738 0.040029
C43   C     C_R   0.337116 0.656473 0.635906 0.060299
C44   C     C_R   0.678722 0.517510 0.792493 -0.051894
C45   C     C_R   0.310866 0.467795 0.205879 -0.052539
C46   C     C_R   0.678896 0.516211 0.961999 -0.199764
C47   C     C_R   0.623793 0.523788 0.863813 -0.194054
C48   C     C_R   0.789573 0.505074 0.820515 -0.253650
Cu1   Cu    Cu3+1 0.416420 0.526630 0.522910 0.942375
Cu2   Cu    Cu3+1 0.583580 0.473370 0.477090 0.924365
H1    H     H_    0.798179 0.495835 0.142484 0.144490
H2    H     H_    0.319488 0.412154 0.973813 0.131227
H3    H     H_    0.322902 0.102293 0.366191 0.149678
H4    H     H_    0.920436 0.763788 0.301740 0.143964
H5    H     H_    0.137824 0.903779 0.309761 0.137443
H6    H     H_    0.160367 0.196587 0.557381 0.143115
H7    H     H_    0.658807 0.896049 0.609780 0.153301
H8    H     H_    0.989900 0.164691 0.576949 0.133546
H9    H     H_    0.816558 0.101845 0.640740 0.144398
H10   H     H_    0.740772 0.710175 0.357087 0.173205
H11   H     H_    0.440728 0.706311 0.679502 0.123766
H12   H     H_    0.172865 0.503087 0.237513 0.160701
H13   H     H_    0.073528 0.721782 0.692224 0.152442
H14   H     H_    0.290772 0.756252 0.723106 0.140883
H15   H     H_    0.133219 0.432362 0.440913 0.217107
H16   H     H_    0.548514 0.297295 0.323788 0.154051
H17   H     H_    0.682021 0.235365 0.266956 0.178144
H18   H     H_    0.847299 0.619133 0.602274 0.204122
H19   H     H_    0.439387 0.433577 0.151446 0.150480
H20   H     H_    0.139758 0.412577 0.843706 0.143293
H21   H     H_    0.635528 0.521777 0.016408 0.130241
H22   H     H_    0.537807 0.533368 0.843579 0.152763
H23   H     H_    0.833612 0.508007 0.765450 0.152528
H24   H     H_    0.983160 0.469537 0.192795 0.179447
H25   H     H_    0.952573 0.435483 0.792754 0.149511
N1    N     N_R   0.290690 0.566960 0.557640 -0.198470
N2    N     N_R   0.709100 0.433710 0.442970 -0.195198
O1    O     O_R   0.545970 0.684450 0.528810 -0.577917
O2    O     O_R   0.687130 0.639470 0.490120 -0.601422
O3    O     O_R   0.519670 0.535100 0.660030 -0.585612
O4    O     O_R   0.660830 0.490120 0.621340 -0.597077
O5    O     O_R   0.312870 0.360530 0.509880 -0.581627
O6    O     O_R   0.454030 0.315550 0.471190 -0.583146
O7    O     O_R   0.339170 0.509880 0.378660 -0.582671
O8    O     O_R   0.480330 0.464900 0.339970 -0.595428
F1    F     F_    0.928684 0.324907 0.343189 -0.708721

loop_
_geom_bond_atom_site_label_1
_geom_bond_atom_site_label_2
_ccdc_geom_bond_type
C23   O5    A    
C17   C29   A    
C35   C36   A    
C4    C8    A    
Cu2   O2    S    
C28   H6    S    
C43   H11   S    
C26   C27   A    
C17   C23   S    
C40   H13   S    
C31   C43   A    
Cu1   O7    S    
C36   C37   A    
C5    C11   A    
C3    C7    A    
C27   H10   S    
C5    C6    A    
C35   F1    S    
C16   C25   A    
Cu1   O1    S    
C18   C19   A    
Cu2   O8    S    
C32   N2    A    
C11   C15   A    
C19   C20   A    
C8    C9    A    
C42   H15   S    
C18   C30   A    
C41   H18   S    
C9    C10   A    
C44   C47   A    
C21   C22   A    
C1    O1    A    
C34   O7    A    
C26   H4    S    
Cu2   O6    S    
C6    H24   S    
C14   C45   A    
C24   C25   A    
C39   C40   A    
C2    C48   A    
C25   C26   A    
C37   N2    A    
C8    H25   S    
C34   O8    A    
Cu1   O5    S    
C2    C4    A    
C13   H2    S    
C18   H7    S    
Cu1   N1    S    
C34   C45   S    
C9    H20   S    
C46   H21   S    
C23   O6    A    
C40   C41   A    
C22   C27   A    
C1    O2    A    
C14   H19   S    
C15   C45   A    
C20   H8    S    
Cu2   N2    S    
C33   H17   S    
C32   H16   S    
C43   N1    A    
C46   C47   A    
C22   C30   A    
C17   C28   A    
C31   H14   S    
C24   C28   A    
C48   H23   S    
C4    C5    A    
C10   C13   A    
C38   C42   A    
C6    C7    A    
C3    C46   A    
C42   N1    A    
Cu1   O3    S    
C19   H9    S    
C32   C33   A    
C36   C38   A    
C2    C3    A    
C16   C29   A    
C16   H5    S    
C7    H1    S    
C12   C44   S    
C38   C39   A    
C29   H3    S    
C12   O3    A    
C1    C30   S    
C33   C35   A    
C15   H12   S    
C31   C39   A    
C12   O4    A    
C37   C41   A    
C47   H22   S    
C10   C11   A    
C20   C21   A    
Cu1   Cu2   S    
C21   C24   A    
C13   C14   A    
C44   C48   A    
Cu2   O4    S    
