data_mof_unit_68072.cif
_audit_creation_date              2012-12-11T14:45:30-0500
_audit_creation_method            fapswitch 2.2
_symmetry_space_group_name_H-M    P1
_symmetry_Int_Tables_number       1
_space_group_crystal_system       triclinic
_cell_length_a                    25.133022
_cell_length_b                    7.380672
_cell_length_c                    14.305787
_cell_angle_alpha                 89.999443
_cell_angle_beta                  104.399079
_cell_angle_gamma                 90.007795
_cell_volume                      2570.34295549

loop_
_atom_site_label
_atom_site_type_symbol
_atom_type_description
_atom_site_fract_x
_atom_site_fract_y
_atom_site_fract_z
_atom_type_partial_charge
O1    O     O_R   0.319150 0.364170 0.330530 -0.536100
O2    O     O_R   0.680850 0.635830 0.669470 -0.529595
O3    O     O_R   0.180850 0.864170 0.169470 -0.536090
O4    O     O_R   0.819150 0.135830 0.830530 -0.529601
O5    O     O_R   0.210330 0.696850 0.354180 -0.543633
O6    O     O_R   0.789670 0.303150 0.645820 -0.505308
O7    O     O_R   0.289670 0.196850 0.145820 -0.543757
O8    O     O_R   0.710330 0.803150 0.854180 -0.505395
C1    C     C_R   0.196870 0.524932 0.378781 0.694474
C2    C     C_R   0.805635 0.473440 0.626043 0.713274
C3    C     C_R   0.303122 0.024950 0.121222 0.694615
C4    C     C_R   0.694389 0.973425 0.873983 0.713491
O9    O     O_R   0.320550 0.694110 0.341970 -0.530976
O10   O     O_R   0.679450 0.305890 0.658030 -0.541140
O11   O     O_R   0.179450 0.194110 0.158030 -0.530980
O12   O     O_R   0.820550 0.805890 0.841970 -0.541218
O13   O     O_R   0.291860 0.861000 0.157170 -0.500570
O14   O     O_R   0.708140 0.139000 0.842830 -0.542548
O15   O     O_R   0.208140 0.361000 0.342830 -0.500532
O16   O     O_R   0.791860 0.639000 0.657170 -0.542563
C5    C     C_R   0.339388 0.526270 0.369827 0.695523
C6    C     C_R   0.658809 0.474901 0.635097 0.701086
C7    C     C_R   0.160614 0.026249 0.130172 0.695600
C8    C     C_R   0.841193 0.974921 0.864885 0.701277
O17   O     O_3   0.240460 0.529330 0.189380 -0.386755
O18   O     O_3   0.759540 0.470670 0.810620 -0.387475
O19   O     O_3   0.259540 0.029330 0.310620 -0.386708
O20   O     O_3   0.740460 0.970670 0.689380 -0.387302
V1    V     V_3+5 0.251770 0.805510 0.261240 1.450143
V2    V     V_3+5 0.748230 0.194490 0.738760 1.457546
V3    V     V_3+5 0.248230 0.305510 0.238760 1.449996
V4    V     V_3+5 0.751770 0.694490 0.761240 1.457297
C9    C     C_R   0.104814 0.026497 0.060938 -0.082450
C10   C     C_R   0.897776 0.987989 0.930130 -0.078122
C11   C     C_R   0.395192 0.526579 0.439056 -0.082530
C12   C     C_R   0.602225 0.487925 0.569836 -0.078231
C13   C     C_R   0.964631 0.959450 0.086380 0.029920
C14   C     C_R   0.039298 0.010420 0.899167 0.035573
C15   C     C_R   0.535355 0.459378 0.413585 0.030062
C16   C     C_R   0.460719 0.510544 0.600813 0.035519
C17   C     C_R   0.911487 0.926106 0.026194 -0.232274
C18   C     C_R   0.094185 0.006049 0.959165 -0.201718
C19   C     C_R   0.588494 0.425945 0.473783 -0.232594
C20   C     C_R   0.405827 0.506170 0.540832 -0.201775
C21   C     C_R   0.940223 0.056213 0.893117 -0.233227
C22   C     C_R   0.060348 0.050617 0.100328 -0.199156
C23   C     C_R   0.559793 0.556273 0.606825 -0.232983
C24   C     C_R   0.439656 0.550720 0.399660 -0.199017
C25   C     C_R   0.995486 0.036556 0.944427 0.072653
C26   C     C_R   0.006325 0.024583 0.044691 0.078183
C27   C     C_R   0.504527 0.536609 0.555535 0.072674
C28   C     C_R   0.493677 0.524591 0.455277 0.078354
H1    H     H_    0.068474 0.069659 0.177316 0.202921
H2    H     H_    0.930623 0.102582 0.820380 0.207833
H3    H     H_    0.431524 0.569843 0.322680 0.203004
H4    H     H_    0.569406 0.602721 0.679542 0.207941
H5    H     H_    0.128058 0.988465 0.926797 0.095600
H6    H     H_    0.881731 0.849880 0.052066 0.140586
H7    H     H_    0.371958 0.488612 0.573214 0.095630
H8    H     H_    0.618230 0.349604 0.447936 0.140601
C29   C     C_R   0.658232 0.980607 0.943302 -0.104544
C30   C     C_R   0.335983 0.014059 0.045114 -0.128944
C31   C     C_R   0.841841 0.480658 0.556777 -0.105072
C32   C     C_R   0.163996 0.513963 0.454894 -0.128878
C33   C     C_R   0.647277 0.077511 0.100133 0.000179
C34   C     C_R   0.341510 0.067946 0.877243 0.016284
C35   C     C_R   0.852870 0.577758 0.400007 0.000073
C36   C     C_R   0.158452 0.567770 0.622778 0.016253
C37   C     C_R   0.675539 0.081286 0.027280 -0.269937
C38   C     C_R   0.317192 0.098981 0.955653 -0.273727
C39   C     C_R   0.824714 0.582070 0.473020 -0.270168
C40   C     C_R   0.182753 0.598969 0.544349 -0.273731
C41   C     C_R   0.606741 0.892216 0.926978 0.288363
C42   C     C_R   0.385782 0.917111 0.060299 0.283054
C43   C     C_R   0.893233 0.391689 0.572948 0.288597
C44   C     C_R   0.114241 0.416710 0.439762 0.282909
C45   C     C_R   0.570667 0.925126 0.988161 -0.003355
C46   C     C_R   0.420485 0.935894 0.995154 0.000084
C47   C     C_R   0.929331 0.424525 0.511796 -0.003223
C48   C     C_R   0.079524 0.435367 0.504897 0.000125
C49   C     C_R   0.594925 0.988256 0.082893 -0.002276
C50   C     C_R   0.395241 0.981803 0.896430 -0.002673
C51   C     C_R   0.905113 0.487853 0.417086 -0.002151
C52   C     C_R   0.104743 0.481409 0.603608 -0.002629
C53   C     C_R   0.511529 0.908589 0.957936 0.059195
C54   C     C_R   0.479606 0.921434 0.026308 0.048067
C55   C     C_R   0.988465 0.407912 0.542062 0.059251
C56   C     C_R   0.020405 0.420759 0.473726 0.048000
C57   C     C_R   0.508139 0.934149 0.124219 -0.206074
C58   C     C_R   0.483322 0.901819 0.860340 -0.173244
C59   C     C_R   0.991892 0.433398 0.375817 -0.206440
C60   C     C_R   0.016656 0.401156 0.639665 -0.173388
C61   C     C_R   0.565385 0.958793 0.154863 -0.016252
C62   C     C_R   0.426595 0.941095 0.826605 -0.021981
C63   C     C_R   0.934654 0.458254 0.345108 -0.016011
C64   C     C_R   0.073380 0.440614 0.673420 -0.021876
H9    H     H_    0.279694 0.176098 0.943661 0.127679
H10   H     H_    0.713232 0.154612 0.038050 0.126111
H11   H     H_    0.220220 0.676280 0.556332 0.127749
H12   H     H_    0.787260 0.656560 0.462580 0.126766
H13   H     H_    0.485630 0.932936 0.177897 0.188443
H14   H     H_    0.506519 0.878564 0.807851 0.177909
H15   H     H_    0.014442 0.432043 0.322217 0.188330
H16   H     H_    0.993445 0.377770 0.692129 0.177779
C65   C     C_R   0.982081 0.893086 0.186891 0.091493
C66   C     C_R   0.972509 0.998486 0.262200 -0.122833
C67   C     C_R   0.003361 0.972596 0.356828 -0.077564
C68   C     C_R   0.047236 0.850986 0.375872 -0.028949
C69   C     C_R   0.058703 0.752209 0.300410 -0.090442
C70   C     C_R   0.025050 0.766258 0.208017 -0.179906
H17   H     H_    0.943398 0.106836 0.247474 0.120121
H18   H     H_    0.995429 0.055492 0.414089 0.134500
H19   H     H_    0.073528 0.837919 0.447840 0.109811
H20   H     H_    0.094427 0.668320 0.311197 0.132362
H21   H     H_    0.036641 0.693666 0.150174 0.114589
C71   C     C_R   0.026878 0.957309 0.793882 0.099317
C72   C     C_R   0.061710 0.004405 0.734900 -0.129715
C73   C     C_R   0.048827 0.959110 0.636912 -0.117462
C74   C     C_R   0.000923 0.863203 0.596278 -0.059621
C75   C     C_R   0.966561 0.810405 0.653554 -0.022650
C76   C     C_R   0.980044 0.851900 0.751386 -0.122733
H22   H     H_    0.100341 0.067256 0.764789 0.102542
H23   H     H_    0.076326 0.997386 0.593012 0.111916
H24   H     H_    0.990791 0.823842 0.521457 0.097077
H25   H     H_    0.929556 0.735558 0.622625 0.117162
H26   H     H_    0.954325 0.793909 0.793945 0.106419
C77   C     C_R   0.517906 0.393287 0.313016 0.091126
C78   C     C_R   0.527606 0.498776 0.237837 -0.122658
C79   C     C_R   0.496776 0.473305 0.143160 -0.077747
C80   C     C_R   0.452806 0.352024 0.123941 -0.028920
C81   C     C_R   0.441219 0.253170 0.199270 -0.089950
C82   C     C_R   0.474843 0.266765 0.291702 -0.180544
H27   H     H_    0.556789 0.606919 0.252714 0.120218
H28   H     H_    0.504803 0.556281 0.086005 0.134470
H29   H     H_    0.426526 0.339278 0.051950 0.109702
H30   H     H_    0.405412 0.169632 0.188351 0.132417
H31   H     H_    0.463166 0.194081 0.349436 0.114825
C83   C     C_R   0.473149 0.457546 0.706109 0.099454
C84   C     C_R   0.438329 0.504753 0.765083 -0.129584
C85   C     C_R   0.451227 0.459652 0.863091 -0.117355
C86   C     C_R   0.499131 0.363806 0.903753 -0.059520
C87   C     C_R   0.533481 0.310892 0.846486 -0.022611
C88   C     C_R   0.519982 0.352194 0.748633 -0.122784
H32   H     H_    0.399702 0.567566 0.735175 0.102511
H33   H     H_    0.423738 0.498067 0.906977 0.111799
H34   H     H_    0.509279 0.324581 0.978589 0.097044
H35   H     H_    0.570492 0.236121 0.877442 0.117022
H36   H     H_    0.545690 0.294114 0.706086 0.106400
C89   C     C_R   0.593661 0.930079 0.259992 0.108751
C90   C     C_R   0.646418 0.854118 0.285488 -0.131712
C91   C     C_R   0.675436 0.842140 0.381844 -0.134897
C92   C     C_R   0.650441 0.885206 0.455353 -0.090894
C93   C     C_R   0.595581 0.936372 0.432194 -0.114488
C94   C     C_R   0.567241 0.955455 0.335583 -0.127518
H37   H     H_    0.666128 0.808129 0.230690 0.121652
H38   H     H_    0.717279 0.799763 0.398472 0.110417
H39   H     H_    0.672989 0.873501 0.529791 0.147315
H40   H     H_    0.574789 0.959996 0.488905 0.121701
H41   H     H_    0.524411 0.981404 0.322323 0.119779
C95   C     C_R   0.405140 0.935975 0.718284 0.099598
C96   C     C_R   0.355165 0.851799 0.672399 -0.137721
C97   C     C_R   0.335685 0.857627 0.571710 -0.107644
C98   C     C_R   0.365655 0.947400 0.515746 -0.069000
C99   C     C_R   0.416783 0.019341 0.558871 -0.129933
C100  C     C_R   0.436693 0.010241 0.658536 -0.124318
H42   H     H_    0.330691 0.786989 0.714752 0.117533
H43   H     H_    0.296832 0.797148 0.536878 0.100159
H44   H     H_    0.349790 0.961231 0.438933 0.152978
H45   H     H_    0.441027 0.083055 0.515173 0.113939
H46   H     H_    0.477029 0.062037 0.688139 0.107768
C101  C     C_R   0.906431 0.429935 0.239892 0.108537
C102  C     C_R   0.853536 0.354944 0.214124 -0.131560
C103  C     C_R   0.824572 0.343762 0.117680 -0.134565
C104  C     C_R   0.849769 0.386265 0.044350 -0.091110
C105  C     C_R   0.904745 0.436158 0.067762 -0.114595
C106  C     C_R   0.933019 0.454683 0.164448 -0.127589
H47   H     H_    0.833667 0.309296 0.268778 0.121654
H48   H     H_    0.782554 0.303030 0.100807 0.110698
H49   H     H_    0.827265 0.375219 0.969846 0.147455
H50   H     H_    0.925670 0.459327 0.011182 0.121658
H51   H     H_    0.975918 0.479698 0.177844 0.119742
C107  C     C_R   0.094815 0.435621 0.781743 0.099575
C108  C     C_R   0.144803 0.351617 0.827679 -0.137781
C109  C     C_R   0.164266 0.357599 0.928369 -0.107587
C110  C     C_R   0.134263 0.447328 0.984283 -0.069003
C111  C     C_R   0.083122 0.519079 0.941107 -0.129973
C112  C     C_R   0.063230 0.509839 0.841440 -0.124343
H52   H     H_    0.169305 0.286858 0.785365 0.117550
H53   H     H_    0.203134 0.297290 0.963238 0.100232
H54   H     H_    0.150113 0.461268 0.061097 0.152879
H55   H     H_    0.058854 0.582757 0.984766 0.113840
H56   H     H_    0.022883 0.561498 0.811791 0.107732
Cl1   Cl    Cl    0.399839 0.753299 0.152890 -0.753548
Cl2   Cl    Cl    0.596299 0.701227 0.853112 -0.744455
Cl3   Cl    Cl    0.100267 0.252621 0.347300 -0.753593
Cl4   Cl    Cl    0.903560 0.200484 0.646661 -0.744281
C113  C     C_R   0.671722 0.182195 0.189116 0.122889
C114  C     C_R   0.722578 0.132627 0.250470 -0.180139
C115  C     C_R   0.739976 0.205637 0.343091 -0.110280
C116  C     C_R   0.708157 0.337450 0.372767 -0.098996
C117  C     C_R   0.661366 0.403255 0.307382 -0.171593
C118  C     C_R   0.642894 0.325705 0.216108 -0.103198
H57   H     H_    0.745996 0.025321 0.231110 0.149059
H58   H     H_    0.777494 0.158233 0.391931 0.137674
H59   H     H_    0.720689 0.393807 0.444641 0.095126
H60   H     H_    0.638845 0.511569 0.329054 0.132076
H61   H     H_    0.605969 0.373960 0.166631 0.117581
C119  C     C_R   0.305947 0.120351 0.779747 0.113263
C120  C     C_R   0.250236 0.069325 0.755612 -0.135159
C121  C     C_R   0.217171 0.088943 0.662188 -0.133197
C122  C     C_R   0.238748 0.165602 0.591035 -0.081907
C123  C     C_R   0.292311 0.231740 0.614875 -0.135039
C124  C     C_R   0.325094 0.216285 0.709851 -0.142908
H62   H     H_    0.232084 0.014515 0.809529 0.123453
H63   H     H_    0.174981 0.043265 0.645030 0.114923
H64   H     H_    0.213905 0.174982 0.517760 0.159697
H65   H     H_    0.308223 0.290562 0.558578 0.103781
H66   H     H_    0.366548 0.263828 0.726143 0.125737
C125  C     C_R   0.828431 0.682536 0.311063 0.122864
C126  C     C_R   0.777544 0.633037 0.249762 -0.180637
C127  C     C_R   0.760159 0.705947 0.157115 -0.110634
C128  C     C_R   0.791987 0.837745 0.127413 -0.098935
C129  C     C_R   0.838752 0.903746 0.192816 -0.171401
C130  C     C_R   0.857246 0.826131 0.284082 -0.102952
H67   H     H_    0.754103 0.525793 0.269179 0.148863
H68   H     H_    0.722640 0.658498 0.108279 0.137524
H69   H     H_    0.779468 0.893997 0.055517 0.095000
H70   H     H_    0.861224 0.012264 0.171144 0.132032
H71   H     H_    0.894153 0.874468 0.333587 0.117580
C131  C     C_R   0.194019 0.620223 0.720271 0.113193
C132  C     C_R   0.249740 0.569385 0.744368 -0.135011
C133  C     C_R   0.282817 0.589040 0.837784 -0.133206
C134  C     C_R   0.261243 0.665586 0.908963 -0.081985
C135  C     C_R   0.207669 0.731567 0.885158 -0.135101
C136  C     C_R   0.174870 0.716047 0.790195 -0.143007
H72   H     H_    0.267893 0.514716 0.690424 0.123388
H73   H     H_    0.325018 0.543498 0.854913 0.114843
H74   H     H_    0.286098 0.675005 0.982230 0.159560
H75   H     H_    0.191755 0.790287 0.941475 0.103845
H76   H     H_    0.133406 0.763424 0.773942 0.125874

loop_
_geom_bond_atom_site_label_1
_geom_bond_atom_site_label_2
_ccdc_geom_bond_type
C102  H47   S    
O17   V3    S    
C24   H3    S    
C55   C56   A    
O1    C5    A    
C116  H59   S    
C50   C62   A    
O19   V1    S    
C1    C32   S    
O13   V1    S    
C117  C118  A    
C65   C66   A    
O3    C7    A    
C98   C99   A    
C126  H67   S    
C72   H22   S    
C60   C64   A    
C48   C52   A    
C3    C30   S    
O15   V3    S    
C78   C79   A    
C104  H49   S    
C2    C31   S    
C47   C55   A    
C96   C97   A    
C89   C90   A    
C110  H54   S    
C14   C25   A    
C34   C38   A    
C103  C104  A    
C109  C110  A    
O7    C3    A    
C73   H23   S    
C119  C124  A    
C19   H8    S    
C9    C18   A    
C103  H48   S    
O9    V1    S    
C99   C100  A    
C65   C70   A    
C17   H6    S    
C14   C18   A    
C83   C88   A    
C53   C54   A    
C102  C103  A    
O4    C8    A    
C123  H65   S    
C113  C114  A    
C20   H7    S    
C121  H63   S    
O1    V3    S    
C14   C71   S    
C68   C69   A    
C30   C38   A    
C12   C23   A    
O2    V4    S    
C52   C64   A    
C111  H55   S    
O3    V1    S    
C104  C105  A    
C58   H14   S    
C134  H74   S    
C125  C130  A    
C107  C108  A    
C61   C89   S    
C1    O15   A    
C122  H64   S    
C129  C130  A    
C2    O16   A    
C116  C117  A    
C7    C9    S    
C16   C83   S    
O2    C6    A    
C108  H52   S    
C67   C68   A    
C114  C115  A    
O14   V2    S    
C45   C49   A    
O8    C4    A    
C134  C135  A    
O18   V4    S    
C16   C20   A    
C96   H42   S    
C38   H9    S    
C36   C40   A    
C135  H75   S    
C43   Cl4   S    
C46   C54   A    
O11   C7    A    
C15   C28   A    
C42   Cl1   S    
C45   C53   A    
C115  C116  A    
O12   C8    A    
C89   C94   A    
C66   C67   A    
C41   Cl2   S    
C73   C74   A    
C57   C61   A    
C9    C22   A    
C99   H45   S    
C88   H36   S    
C10   C17   A    
O10   V2    S    
C11   C24   A    
C18   H5    S    
C126  C127  A    
C36   C131  S    
C55   C60   A    
C58   C62   A    
O5    V1    S    
C66   H17   S    
C106  H51   S    
C84   C85   A    
O7    V3    S    
C71   C76   A    
C93   H40   S    
C27   C28   A    
C36   C52   A    
C113  C118  A    
C15   C77   S    
C85   C86   A    
C81   H30   S    
C64   C107  S    
C125  C126  A    
C10   C21   A    
C75   H25   S    
C119  C120  A    
C23   C27   A    
C29   C41   A    
C82   H31   S    
C74   H24   S    
C127  H68   S    
C8    C10   S    
C79   H28   S    
C76   H26   S    
O8    V4    S    
C68   H19   S    
C108  C109  A    
O5    C1    A    
C127  C128  A    
C44   Cl3   S    
C34   C50   A    
C34   C119  S    
C84   H32   S    
C46   C50   A    
C33   C49   A    
C122  C123  A    
C56   C59   A    
C21   C25   A    
C124  H66   S    
C51   C63   A    
C120  C121  A    
C32   C44   A    
O9    C5    A    
C131  C136  A    
C67   H18   S    
C95   C100  A    
C123  C124  A    
C74   C75   A    
C49   C61   A    
C11   C20   A    
C77   C82   A    
C101  C102  A    
C112  H56   S    
C132  H72   S    
C86   H34   S    
C33   C113  S    
C69   H20   S    
O6    V2    S    
C80   H29   S    
C31   C39   A    
C21   H2    S    
C121  C122  A    
C118  H61   S    
C86   C87   A    
C39   H12   S    
C115  H58   S    
C43   C47   A    
C135  C136  A    
C4    O14   A    
C77   C78   A    
C114  H57   S    
C35   C51   A    
C75   C76   A    
C97   C98   A    
O16   V4    S    
C29   C37   A    
C100  H46   S    
C92   H39   S    
C3    O13   A    
C62   C95   S    
C57   H13   S    
C129  H70   S    
C87   H35   S    
C44   C48   A    
C59   H15   S    
C54   C57   A    
C85   H33   S    
O6    C2    A    
C15   C19   A    
C53   C58   A    
O11   V3    S    
C105  H50   S    
C5    C11   S    
O12   V4    S    
C16   C27   A    
C6    C12   S    
C101  C106  A    
C22   C26   A    
C72   C73   A    
C120  H62   S    
C90   C91   A    
C90   H37   S    
C95   C96   A    
O10   C6    A    
C35   C125  S    
C80   C81   A    
C79   C80   A    
C94   H41   S    
C13   C65   S    
C105  C106  A    
C78   H27   S    
C37   H10   S    
C47   C51   A    
C4    C29   S    
C110  C111  A    
C133  H73   S    
C31   C43   A    
C128  H69   S    
C33   C37   A    
C70   H21   S    
C22   H1    S    
C13   C26   A    
C133  C134  A    
O20   V2    S    
C71   C72   A    
C98   H44   S    
C117  H60   S    
C35   C39   A    
C107  C112  A    
C32   C40   A    
C13   C17   A    
C131  C132  A    
C128  C129  A    
C83   C84   A    
C60   H16   S    
C59   C63   A    
C97   H43   S    
C91   H38   S    
C24   C28   A    
C92   C93   A    
C48   C56   A    
C25   C26   A    
C42   C46   A    
C69   C70   A    
C132  C133  A    
C87   C88   A    
C41   C45   A    
C109  H53   S    
C30   C42   A    
C12   C19   A    
C111  C112  A    
C130  H71   S    
C63   C101  S    
C91   C92   A    
C136  H76   S    
O4    V2    S    
C81   C82   A    
C23   H4    S    
C93   C94   A    
C40   H11   S    
