data_mof_unit_51935.cif
_audit_creation_date              2012-10-26T20:01:49-0400
_audit_creation_method            fapswitch 2.2
_symmetry_space_group_name_H-M    P1
_symmetry_Int_Tables_number       1
_space_group_crystal_system       triclinic
_cell_length_a                    11.707966
_cell_length_b                    10.876636
_cell_length_c                    9.59119
_cell_angle_alpha                 87.906958
_cell_angle_beta                  89.884823
_cell_angle_gamma                 92.48988
_cell_volume                      1219.39855036

loop_
_atom_site_label
_atom_site_type_symbol
_atom_type_description
_atom_site_fract_x
_atom_site_fract_y
_atom_site_fract_z
_atom_type_partial_charge
C1    C     C_R   0.494974 0.261561 0.503290 0.544449
C2    C     C_R   0.465460 0.869108 0.489785 -0.017895
C3    C     C_R   0.656465 0.657921 0.137858 -0.075597
C4    C     C_R   0.284041 0.498265 0.500133 0.545690
C5    C     C_R   0.738052 0.731662 0.063028 0.213233
C6    C     C_R   0.737512 0.731071 0.919222 -0.113601
C7    C     C_R   0.657900 0.657610 0.850006 -0.135619
C8    C     C_R   0.577859 0.577018 0.922112 0.149486
C9    C     C_R   0.577436 0.577237 0.071585 0.115050
C10   C     C_R   0.424994 0.428041 0.077153 0.003289
C11   C     C_R   0.424323 0.429001 0.929290 0.005279
C12   C     C_R   0.344889 0.029141 0.853566 -0.192507
C13   C     C_R   0.489682 0.736851 0.497007 0.547113
C14   C     C_R   0.715902 0.500304 0.499875 0.538935
C15   C     C_1   0.162319 0.498574 0.500242 -0.006683
C16   C     C_1   0.059862 0.499182 0.500109 -0.023294
C17   C     C_1   0.940076 0.499886 0.499835 -0.028382
C18   C     C_1   0.837609 0.500240 0.499706 -0.017516
C19   C     C_R   0.399427 0.102433 0.749582 -0.122953
C20   C     C_3   0.560649 0.963341 0.120637 -0.298845
C21   C     C_R   0.315908 0.907023 0.830567 -0.049395
C22   C     C_R   0.344173 0.855965 0.704872 0.272463
C23   C     C_R   0.415678 0.924533 0.605909 -0.014108
C24   C     C_R   0.434439 0.053045 0.622121 -0.010552
C25   C     C_R   0.483989 0.125873 0.508544 -0.032099
C26   C     C_R   0.513086 0.069520 0.385451 -0.123426
C27   C     C_R   0.500259 0.942873 0.371396 0.107646
Cu1   Cu    Cu3+1 0.499990 0.499990 0.640660 0.961672
Cu2   Cu    Cu3+1 0.500010 0.500010 0.359340 0.925805
H1    H     H_    0.545851 0.126334 0.298490 0.145849
H2    H     H_    0.276313 0.744445 0.574378 0.310055
H3    H     H_    0.445987 0.833038 0.210289 0.271140
H4    H     H_    0.567901 0.905080 0.028716 0.162191
H5    H     H_    0.647132 0.002335 0.145572 0.185775
H6    H     H_    0.502378 0.037957 0.091917 0.129032
H7    H     H_    0.806428 0.799101 0.230121 0.322148
H8    H     H_    0.798118 0.790247 0.859843 0.151620
H9    H     H_    0.662911 0.669427 0.739914 0.183384
H10   H     H_    0.360925 0.372453 0.876940 0.101422
H11   H     H_    0.412037 0.196630 0.774756 0.153911
H12   H     H_    0.319716 0.069180 0.950083 0.112206
H13   H     H_    0.265198 0.853571 0.907587 0.146908
H14   H     H_    0.363505 0.368979 0.134917 0.118322
H15   H     H_    0.656562 0.669456 0.246945 0.187397
N1    N     N_R   0.501070 0.501210 0.147910 -0.242995
N2    N     N_R   0.501110 0.501290 0.852040 -0.225844
N3    N     N_2   0.514781 0.889266 0.238158 -0.505988
O1    O     O_R   0.499990 0.319640 0.618810 -0.513217
O2    O     O_3   0.816859 0.808445 0.127598 -0.694317
O3    O     O_R   0.500000 0.319660 0.381240 -0.506283
O4    O     O_R   0.337190 0.500000 0.618790 -0.459251
O5    O     O_R   0.337200 0.500030 0.381210 -0.505256
O6    O     O_R   0.500000 0.680340 0.618760 -0.485889
O7    O     O_R   0.500010 0.680360 0.381190 -0.517951
O8    O     O_R   0.662800 0.499970 0.618790 -0.511738
O9    O     O_R   0.662810 0.500000 0.381210 -0.512643
O10   O     O_3   0.289715 0.745114 0.676327 -0.667625

loop_
_geom_bond_atom_site_label_1
_geom_bond_atom_site_label_2
_ccdc_geom_bond_type
C14   O9    A    
C23   C24   A    
C1    O1    A    
C9    N1    A    
C6    C7    A    
C3    C9    A    
Cu2   O9    S    
C1    O3    A    
C14   C18   S    
Cu1   O6    S    
C20   H5    S    
H2    O10   S    
C10   N1    A    
C14   O8    A    
C10   H14   S    
C6    H8    S    
C7    C8    A    
Cu2   O5    S    
C21   C22   A    
C1    C25   S    
Cu1   N2    S    
C26   C27   A    
C2    C27   A    
C22   O10   S    
C19   H11   S    
C20   H4    S    
C12   C19   A    
Cu1   Cu2   S    
Cu1   O4    S    
C7    H9    S    
C4    O5    A    
C19   C24   A    
C13   O6    A    
Cu2   O3    S    
C4    C15   S    
C5    C6    A    
C11   H10   S    
H3    N3    S    
C8    N2    A    
C3    H15   S    
C5    O2    S    
C20   N3    S    
C16   C17   S    
Cu2   O7    S    
C4    O4    A    
C15   C16   T    
C24   C25   A    
C12   H12   S    
C17   C18   T    
C13   O7    A    
C10   C11   A    
C27   N3    S    
C2    C23   A    
C2    C13   S    
C22   C23   A    
Cu1   O1    S    
C11   N2    A    
C25   C26   A    
C20   H6    S    
C12   C21   A    
Cu1   O8    S    
H7    O2    S    
C21   H13   S    
Cu2   N1    S    
C8    C9    A    
C3    C5    A    
C26   H1    S    
