data_mof_unit_50246.cif
_audit_creation_date              2012-12-11T16:34:30-0500
_audit_creation_method            fapswitch 2.2
_symmetry_space_group_name_H-M    P1
_symmetry_Int_Tables_number       1
_space_group_crystal_system       triclinic
_cell_length_a                    8.335572
_cell_length_b                    17.451122
_cell_length_c                    27.16724
_cell_angle_alpha                 96.764111
_cell_angle_beta                  91.653674
_cell_angle_gamma                 84.012811
_cell_volume                      3902.42160193

loop_
_atom_site_label
_atom_site_type_symbol
_atom_type_description
_atom_site_fract_x
_atom_site_fract_y
_atom_site_fract_z
_atom_type_partial_charge
Ba1   Ba    Ba6+2 0.856110 0.463800 0.523550 1.741971
Ba2   Ba    Ba6+2 0.333710 0.536130 0.476450 1.701723
C1    C     C_3   0.691988 0.186755 0.651877 -0.270523
C2    C     C_R   0.891015 0.574833 0.179510 0.594849
C3    C     C_2   0.749489 0.520718 0.270665 -0.080007
C4    C     C_3   0.219321 0.227655 0.656844 0.274606
C5    C     C_3   0.704673 0.513135 0.323647 -0.046767
C6    C     C_1   0.989398 0.488267 0.342998 -0.026875
C7    C     C_2   0.032159 0.493272 0.296428 -0.130311
C8    C     C_2   0.906347 0.510072 0.256764 0.212294
C9    C     C_R   0.033908 0.516112 0.104269 -0.088427
C10   C     C_R   0.091014 0.453074 0.130289 -0.021294
C11   C     C_R   0.189755 0.391119 0.105804 -0.058515
C12   C     C_3   0.670029 0.265577 0.632703 0.328538
C13   C     C_R   0.933221 0.578528 0.129004 -0.030096
C14   C     C_2   0.846991 0.519289 0.358666 -0.249157
C15   C     C_2   0.336969 0.474677 0.642504 -0.279889
C16   C     C_3   0.238865 0.288412 0.701807 -0.205911
C17   C     C_R   0.203576 0.448343 0.976676 0.021878
C18   C     C_R   0.076867 0.581820 0.977518 0.005215
C19   C     C_R   0.159925 0.514810 0.951635 0.051825
C20   C     C_R   0.277809 0.381103 0.948820 -0.101505
C21   C     C_R   0.312417 0.379930 0.898927 -0.026976
C22   C     C_R   0.275580 0.445740 0.874141 -0.029264
C23   C     C_3   0.489318 0.647991 0.626482 0.318426
C24   C     C_R   0.200008 0.514036 0.900386 -0.091966
C25   C     C_R   0.166107 0.581202 0.875557 -0.024585
C26   C     C_R   0.209663 0.577206 0.824497 0.612824
C27   C     C_R   0.311363 0.443646 0.823377 0.631345
C28   C     C_3   0.025735 0.304866 0.344413 0.331090
C29   C     C_2   0.455088 0.486766 0.728115 -0.078150
C30   C     C_3   0.488198 0.486600 0.673646 -0.077516
C31   C     C_1   0.199637 0.512772 0.658365 0.019293
C32   C     C_2   0.167005 0.517945 0.707454 -0.092485
C33   C     C_2   0.302869 0.503190 0.745060 0.168311
C34   C     C_3   0.456360 0.675369 0.681070 -0.293431
C35   C     C_R   0.170411 0.450671 0.028351 0.025072
C36   C     C_R   0.077083 0.515898 0.053314 0.050299
C37   C     C_R   0.026283 0.580464 0.027587 0.004730
C38   C     C_R   0.228350 0.389777 0.056218 -0.100697
C39   C     C_R   0.877228 0.641698 0.101963 0.051105
C40   C     C_3   0.082532 0.295286 0.290783 -0.383692
C41   C     C_R   0.048899 0.648708 0.952614 -0.083527
C42   C     C_R   0.090864 0.649618 0.902926 0.054260
C43   C     C_R   0.923492 0.641269 0.052543 -0.081038
C44   C     C_R   0.389022 0.269156 0.510655 -0.313972
C45   C     C_3   0.099081 0.698083 0.340749 0.194678
C46   C     C_R   0.549140 0.252953 0.494962 -0.043904
C47   C     C_R   0.627750 0.179089 0.500883 -0.121271
C48   C     C_R   0.545358 0.122804 0.520405 -0.035739
C49   C     C_R   0.389471 0.143888 0.540993 -0.099027
C50   C     C_R   0.315692 0.220385 0.538772 -0.083013
C51   C     C_R   0.608027 0.837915 0.517974 -0.099496
C52   C     C_3   0.990271 0.718633 0.609877 0.269128
C53   C     C_R   0.654817 0.757645 0.511442 0.001085
C54   C     C_R   0.898294 0.780454 0.470757 0.113574
C55   C     C_R   0.852309 0.860758 0.477240 -0.081237
C56   C     C_3   0.059961 0.715438 0.286396 -0.232933
C57   C     C_R   0.706966 0.889941 0.501016 0.013950
C58   C     C_1   0.658895 0.972955 0.508069 0.069028
C59   C     C_1   0.612783 0.041738 0.513921 0.064914
C60   C     C_R   0.798816 0.729817 0.487671 -0.258440
C61   C     C_3   0.869498 0.761974 0.648536 -0.236698
C62   C     C_3   0.530404 0.295461 0.370923 0.319173
C63   C     C_3   0.532880 0.211156 0.346012 -0.208176
C64   C     C_2   0.106835 0.774580 0.598372 0.898180
C65   C     C_2   0.776592 0.835514 0.634097 0.823864
C66   C     C_3   0.520885 0.348470 0.329901 -0.286753
C67   C     C_3   0.532911 0.733399 0.357327 0.308485
C68   C     C_3   0.542560 0.151180 0.382526 -0.422438
C69   C     C_2   0.991132 0.798165 0.281445 0.933709
C70   C     C_2   0.200877 0.690366 0.252340 0.843590
C71   C     C_3   0.712121 0.737063 0.366253 -0.298425
C72   C     C_3   0.445615 0.879428 0.376784 -0.469705
C73   C     C_3   0.767947 0.711263 0.124063 -0.293622
C74   C     C_2   0.211007 0.148504 0.673457 0.871378
C75   C     C_3   0.050658 0.725014 0.880704 -0.303621
C76   C     C_2   0.004227 0.543684 0.727409 0.972488
C77   C     C_2   0.301358 0.084742 0.560862 0.839348
C78   C     C_3   0.456860 0.808362 0.337645 -0.159405
C79   C     C_2   0.278477 0.324357 0.487148 0.853073
C80   C     C_2   0.109658 0.290255 0.739659 0.922626
C81   C     C_3   0.998415 0.224648 0.358190 -0.276824
C82   C     C_R   0.048756 0.452324 0.180299 0.616703
H1    H     H_    0.780171 0.271764 0.612305 0.127329
H2    H     H_    0.636051 0.197036 0.320433 0.112815
H3    H     H_    0.420733 0.205290 0.323435 0.089451
H4    H     H_    0.564469 0.268115 0.606958 -0.041410
H5    H     H_    0.711431 0.140243 0.620420 0.121892
H6    H     H_    0.376946 0.629731 0.608231 0.024035
H7    H     H_    0.584479 0.598244 0.623532 0.009218
H8    H     H_    0.395496 0.735216 0.685763 0.214363
H9    H     H_    0.377172 0.637688 0.696688 0.073427
H10   H     H_    0.570905 0.675109 0.702669 0.075942
H11   H     H_    0.583868 0.177573 0.672253 0.150532
H12   H     H_    0.175048 0.244944 0.283571 0.109786
H13   H     H_    0.359497 0.275829 0.719350 0.125615
H14   H     H_    0.226654 0.676692 0.345039 0.108191
H15   H     H_    0.026601 0.651017 0.348295 0.017918
H16   H     H_    0.964397 0.678515 0.272365 0.073380
H17   H     H_    0.472273 0.728438 0.392504 0.081626
H18   H     H_    0.333099 0.799153 0.324827 0.183606
H19   H     H_    0.330202 0.224364 0.634995 -0.146736
H20   H     H_    0.523948 0.820646 0.305142 0.169243
H21   H     H_    0.157351 0.481896 0.286099 0.159014
H22   H     H_    0.237848 0.342486 0.125007 0.121464
H23   H     H_    0.978723 0.286783 0.264852 0.114680
H24   H     H_    0.555616 0.479026 0.753998 0.122475
H25   H     H_    0.368464 0.326376 0.879618 0.146402
H26   H     H_    0.307136 0.327108 0.964150 0.076584
H27   H     H_    0.307498 0.340437 0.041071 0.072059
H28   H     H_    0.653699 0.529111 0.243306 0.127961
H29   H     H_    0.997990 0.702878 0.971793 0.069054
H30   H     H_    0.871836 0.688952 0.033536 0.068374
H31   H     H_    0.831569 0.546786 0.396470 0.062753
H32   H     H_    0.342006 0.437703 0.607393 0.083056
H33   H     H_    0.497581 0.859766 0.537193 0.093737
H34   H     H_    0.137900 0.346971 0.283055 0.143478
H35   H     H_    0.928367 0.899931 0.463476 0.081667
H36   H     H_    0.747466 0.163021 0.486236 0.110375
H37   H     H_    0.235575 0.346620 0.689030 0.048226
H38   H     H_    0.834961 0.668051 0.482893 0.062020
H39   H     H_    0.908297 0.341594 0.347284 0.021529
H40   H     H_    0.186094 0.839723 0.549805 0.319381
H41   H     H_    0.562395 0.900756 0.632452 0.338258
H42   H     H_    0.621153 0.331450 0.303446 0.062713
H43   H     H_    0.404605 0.346956 0.309276 0.086578
H44   H     H_    0.533335 0.408164 0.346679 0.120853
H45   H     H_    0.927126 0.694241 0.576043 -0.092815
H46   H     H_    0.661833 0.149091 0.401652 0.126238
H47   H     H_    0.443179 0.164806 0.409479 0.096707
H48   H     H_    0.530481 0.092992 0.362163 0.133903
H49   H     H_    0.804736 0.869055 0.258143 0.307650
H50   H     H_    0.368340 0.720206 0.207898 0.329654
H51   H     H_    0.763006 0.688199 0.386319 0.017951
H52   H     H_    0.770137 0.732152 0.330023 0.149351
H53   H     H_    0.737461 0.792369 0.387560 0.073828
H54   H     H_    0.367835 0.927596 0.362231 0.167902
H55   H     H_    0.391615 0.866269 0.411298 0.161779
H56   H     H_    0.784539 0.721425 0.657768 0.122007
H57   H     H_    0.565991 0.899778 0.385505 0.121384
H58   H     H_    0.738243 0.754686 0.097548 0.080988
H59   H     H_    0.651845 0.692652 0.134878 0.151399
H60   H     H_    0.828415 0.741345 0.156635 0.182225
H61   H     H_    0.321110 0.062089 0.709251 0.339965
H62   H     H_    0.966874 0.716247 0.848478 0.159461
H63   H     H_    0.989957 0.771406 0.907366 0.085035
H64   H     H_    0.162853 0.746714 0.869290 0.156102
H65   H     H_    0.813627 0.624480 0.732888 0.285372
H66   H     H_    0.311818 0.991939 0.599140 0.333519
H67   H     H_    0.936453 0.778213 0.683599 0.122542
H68   H     H_    0.155103 0.239189 0.453261 0.237452
H69   H     H_    0.874468 0.313917 0.756440 0.331081
H70   H     H_    0.915959 0.195881 0.330862 0.066124
H71   H     H_    0.114760 0.187301 0.358911 0.088563
H72   H     H_    0.944130 0.229361 0.395226 0.153894
H73   H     H_    0.422599 0.309939 0.394210 0.051302
H74   H     H_    0.797869 0.183612 0.677513 0.186217
N1    N     N_R   0.950536 0.512832 0.204844 -0.410746
N2    N     N_R   0.273258 0.508040 0.798517 -0.417626
O1    O     O_2   0.910880 0.540430 0.617910 -0.464294
O2    O     O_2   0.235909 0.769709 0.458032 -0.475253
O3    O     O_3   0.065611 0.763994 0.375352 -0.622958
O4    O     O_3   0.142880 0.540370 0.557740 -0.452263
O5    O     O_3   0.562610 0.408580 0.475460 -0.443496
O6    O     O_2   0.365880 0.685750 0.523280 -0.436487
O7    O     O_3   0.541856 0.709504 0.604924 -0.603753
O8    O     O_2   0.374257 0.547318 0.327199 -0.474867
O9    O     O_3   0.511019 0.670450 0.320987 -0.580171
O10   O     O_2   0.097211 0.396439 0.201635 -0.628741
O11   O     O_2   0.376800 0.384119 0.801233 -0.580157
O12   O     O_3   0.673974 0.307496 0.397808 -0.641486
O13   O     O_2   0.801254 0.626887 0.201042 -0.596880
O14   O     O_2   0.192255 0.635206 0.803067 -0.601886
O15   O     O_3   0.675650 0.402220 0.588450 -0.497200
O16   O     O_2   0.823899 0.437040 0.672434 -0.421598
O17   O     O_3   0.082187 0.661576 0.633612 -0.637709
O18   O     O_3   0.645269 0.323730 0.672853 -0.577775
O19   O     O_2   0.823810 0.314230 0.476690 -0.402014
O20   O     O_3   0.086630 0.363340 0.564170 -0.434291
O21   O     O_2   0.976255 0.228520 0.538109 -0.455515
O22   O     O_2   0.195505 0.801524 0.631132 -0.582826
O23   O     O_3   0.077407 0.249404 0.629956 -0.585703
O24   O     O_R   0.108078 0.799324 0.551707 -0.761836
O25   O     O_2   0.847060 0.886049 0.619118 -0.571816
O26   O     O_R   0.610698 0.848752 0.642068 -0.701674
O27   O     O_2   0.067918 0.852686 0.295974 -0.582355
O28   O     O_R   0.838784 0.811819 0.259392 -0.760114
O29   O     O_2   0.247629 0.621427 0.243819 -0.592879
O30   O     O_R   0.275602 0.744878 0.229616 -0.736356
O31   O     O_2   0.092512 0.113450 0.663376 -0.556794
O32   O     O_R   0.339852 0.115291 0.700475 -0.756560
O33   O     O_2   0.949715 0.508056 0.758214 -0.608095
O34   O     O_2   0.278810 0.459550 0.382060 -0.466915
O35   O     O_R   0.917856 0.611182 0.714100 -0.741976
O36   O     O_2   0.156777 0.083048 0.552572 -0.575585
O37   O     O_R   0.384432 0.029760 0.588301 -0.759341
O38   O     O_2   0.282342 0.393259 0.498749 -0.514499
O39   O     O_R   0.146679 0.297795 0.460369 -0.677343
O40   O     O_2   0.144866 0.269980 0.780505 -0.572478
O41   O     O_R   0.950009 0.315003 0.728002 -0.687612
O42   O     O_3   0.046820 0.459570 0.442260 -0.399649
O43   O     O_3   0.514050 0.597710 0.411540 -0.486913
O44   O     O_3   0.145345 0.335575 0.376605 -0.597202
O45   O     O_3   0.627090 0.591350 0.524530 -0.480869
O46   O     O_3   0.103080 0.636600 0.435820 -0.491158
P1    P     P_3+3 0.078810 0.562990 0.610370 1.047418
P2    P     P_3+3 0.645380 0.325580 0.462150 1.013148
P3    P     P_3+3 0.117755 0.262354 0.568403 1.039219
P4    P     P_3+3 0.110900 0.436950 0.389630 1.070372
P5    P     P_3+3 0.079429 0.737833 0.436069 0.981702
P6    P     P_3+3 0.658491 0.414359 0.652318 1.023391
P7    P     P_3+3 0.547606 0.687886 0.540713 0.986122
P8    P     P_3+3 0.529586 0.581930 0.346705 0.973328

loop_
_geom_bond_atom_site_label_1
_geom_bond_atom_site_label_2
_ccdc_geom_bond_type
C19   C24   A    
C77   O37   S    
C29   H24   S    
O43   P8    S    
Ba2   O42   S    
C68   H46   S    
C69   O28   S    
C26   O14   D    
C51   C57   A    
C63   H2    S    
C81   H70   S    
C23   O7    S    
O17   P1    S    
O9    P8    S    
C72   H54   S    
C24   C25   A    
C45   H14   S    
C78   H20   S    
C40   H12   S    
C62   C66   S    
C42   C75   S    
C17   C19   A    
C22   C24   A    
H40   O24   S    
C35   C38   A    
C82   O10   D    
C36   C37   A    
C32   C33   S    
Ba1   O20   S    
C51   H33   S    
C56   C69   S    
C55   C57   A    
C2    N1    Am   
C39   C73   S    
C52   C61   S    
C7    H21   S    
C63   C68   S    
C53   C60   A    
C44   C50   A    
C26   N2    Am   
C45   H15   S    
C54   C55   A    
C10   C82   A    
O21   P3    D    
Ba1   Ba2   S    
C61   H56   S    
O8    P8    D    
C28   C81   S    
Ba1   P2    S    
C33   N2    S    
C11   C38   A    
C17   C35   A    
H49   O28   S    
C22   C27   A    
C9    C13   A    
C43   H30   S    
Ba1   O15   S    
C71   H51   S    
Ba1   O4    S    
C6    C7    D    
C20   H26   S    
C62   H73   S    
C1    H74   S    
C21   C22   A    
C67   C71   S    
Ba2   O46   S    
C16   H13   S    
C27   N2    Am   
Ba1   O45   S    
C40   H23   S    
Ba2   O6    S    
H66   O37   S    
C65   O26   S    
C37   C43   A    
C45   O3    S    
C34   H8    S    
C64   O22   D    
O45   P7    S    
C57   C58   S    
C6    C14   D    
C72   C78   S    
C15   C31   D    
O42   P4    S    
C6    P4    S    
Ba1   O42   S    
O46   P5    S    
C70   O30   S    
C82   N1    Am   
C63   H3    S    
C38   H27   S    
H69   O41   S    
C51   C53   A    
C75   H63   S    
C21   H25   S    
C4    C16   S    
C61   C65   S    
Ba2   P4    S    
C23   H7    S    
C49   C50   A    
O12   P2    S    
C17   C20   A    
C56   H16   S    
C13   C39   A    
C54   P5    S    
C73   H60   S    
Ba2   O4    S    
C79   O38   D    
C3    C5    S    
C18   C37   A    
O3    P5    S    
C40   H34   S    
C81   H72   S    
C23   C34   S    
O15   P6    S    
C27   O11   D    
C77   O36   D    
O16   P6    D    
H68   O39   S    
C78   H18   S    
C58   C59   T    
Ba2   O34   S    
C76   O33   D    
C62   O12   S    
C9    C36   A    
C41   C42   A    
C80   O40   D    
C35   C36   A    
C74   O32   S    
C73   H58   S    
O34   P4    D    
C44   C79   S    
C29   C30   S    
C75   H64   S    
C71   H52   S    
Ba1   O5    S    
C46   P2    S    
C68   H48   S    
C48   C49   A    
C23   H6    S    
O18   P6    S    
Ba2   O45   S    
C67   O9    S    
C4    H19   S    
C18   C19   A    
C28   H39   S    
Ba2   O5    S    
C61   H67   S    
C12   O18   S    
C1    C12   S    
C73   H59   S    
C32   C76   S    
C46   C47   A    
C72   H57   S    
C65   O25   D    
C2    O13   D    
Ba1   O1    S    
H61   O32   S    
C66   H44   S    
C54   C60   A    
O7    P7    S    
C14   H31   S    
C66   H42   S    
C70   O29   D    
C60   H38   S    
C18   C41   A    
C7    C8    S    
O1    P1    D    
C48   C59   S    
C52   H45   S    
C64   O24   S    
O19   P2    D    
C31   P1    S    
C34   H9    S    
C28   C40   S    
C5    C14   S    
Ba2   O43   S    
C12   H1    S    
C69   O27   D    
C11   H22   S    
O4    P1    S    
C53   P7    S    
C80   O41   S    
C9    C10   A    
C4    C74   S    
C52   C64   S    
C3    H28   S    
C67   H17   S    
O23   P3    S    
C28   O44   S    
C72   H55   S    
C52   O17   S    
C55   H35   S    
C4    O23   S    
C1    H5    S    
C62   C63   S    
H50   O30   S    
C2    C13   A    
C12   H4    S    
C3    C8    D    
C74   O31   D    
C41   H29   S    
C45   C56   S    
Ba1   O19   S    
C56   C70   S    
C50   P3    S    
C71   H53   S    
C30   P6    S    
C8    N1    S    
C68   H47   S    
C16   C80   S    
C31   C32   D    
C29   C33   D    
C76   O35   S    
O20   P3    S    
Ba1   P1    S    
O5    P2    S    
C49   C77   S    
C5    P8    S    
C79   O39   S    
O6    P7    D    
C66   H43   S    
C47   H36   S    
C44   C46   A    
C34   H10   S    
C81   H71   S    
C10   C11   A    
C47   C48   A    
O2    P5    D    
O44   P4    S    
C25   C26   A    
C15   C30   S    
C39   C43   A    
C20   C21   A    
H41   O26   S    
C67   C78   S    
C1    H11   S    
C25   C42   A    
C75   H62   S    
H65   O35   S    
C16   H37   S    
C15   H32   S    
