data_mof_unit_20990.cif
_audit_creation_date              2012-12-10T17:17:30-0500
_audit_creation_method            fapswitch 2.2
_symmetry_space_group_name_H-M    P1
_symmetry_Int_Tables_number       1
_space_group_crystal_system       triclinic
_cell_length_a                    10.135872
_cell_length_b                    10.814665
_cell_length_c                    12.636878
_cell_angle_alpha                 89.947992
_cell_angle_beta                  111.958727
_cell_angle_gamma                 95.186854
_cell_volume                      1278.64048651

loop_
_atom_site_label
_atom_site_type_symbol
_atom_type_description
_atom_site_fract_x
_atom_site_fract_y
_atom_site_fract_z
_atom_type_partial_charge
C1    C     C_R   0.049261 0.732049 0.489535 0.977359
C2    C     C_R   0.191575 0.416627 0.816304 -0.128097
C3    C     C_2   0.070328 0.863012 0.473051 -0.365648
C4    C     C_R   0.126455 0.477986 0.706567 0.886245
C5    C     C_2   0.964718 0.932012 0.464562 -0.143392
C6    C     C_2   0.909500 0.135307 0.495868 -0.364643
C7    C     C_2   0.987137 0.063989 0.461274 -0.147324
C8    C     C_2   0.433774 0.510573 0.510010 -0.146875
C9    C     C_2   0.566433 0.488788 0.490551 -0.140308
C10   C     C_R   0.946424 0.267581 0.503825 0.911996
C11   C     C_R   0.862848 0.490554 0.286904 0.932260
C12   C     C_R   0.410586 0.372428 0.971167 0.109639
C13   C     C_R   0.769818 0.483510 0.972071 -0.305393
C14   C     C_R   0.781775 0.475182 0.165737 -0.148139
C15   C     C_R   0.113993 0.389666 0.886038 -0.217148
C16   C     C_R   0.182188 0.345317 0.994926 -0.162034
C17   C     C_R   0.330814 0.345044 0.040606 -0.186690
C18   C     C_3   0.076176 0.569023 0.110615 -0.273686
C19   C     C_R   0.334848 0.383973 0.853578 0.093937
C20   C     C_R   0.561516 0.399029 0.013155 0.086222
C21   C     C_R   0.630823 0.423452 0.934964 0.110071
C22   C     C_R   0.555922 0.394883 0.819529 -0.238195
C23   C     C_R   0.408818 0.369083 0.779750 -0.188631
C24   C     C_R   0.642886 0.417244 0.129262 -0.348230
C25   C     C_R   0.842795 0.516711 0.087752 0.518523
H1    H     H_    0.864072 0.892337 0.468347 0.188758
H2    H     H_    0.598402 0.392826 0.192722 0.166247
H3    H     H_    0.001186 0.402040 0.856249 0.149832
H4    H     H_    0.380050 0.321444 0.128866 0.121698
H5    H     H_    0.120834 0.318272 0.046575 0.137209
H6    H     H_    0.354445 0.342505 0.690436 0.190719
H7    H     H_    0.075126 0.102622 0.438020 0.187124
H8    H     H_    0.060893 0.561925 0.019257 0.167066
H9    H     H_    0.168060 0.639427 0.152161 0.197804
H10   H     H_    0.104413 0.480619 0.154627 0.158094
H11   H     H_    0.821939 0.096225 0.519311 0.150452
H12   H     H_    0.170823 0.903171 0.469490 0.149459
H13   H     H_    0.562556 0.417118 0.429096 0.160731
H14   H     H_    0.437819 0.581804 0.571886 0.174434
H15   H     H_    0.686472 0.620519 0.603104 0.165293
H16   H     H_    0.313341 0.379730 0.396606 0.155426
H17   H     H_    0.609358 0.399502 0.759429 0.153523
H18   H     H_    0.815299 0.514139 0.910254 0.146287
N1    N     N_2   0.313640 0.446500 0.454900 -0.204179
N2    N     N_2   0.686360 0.553430 0.545150 -0.196272
O1    O     O_R   0.936910 0.692950 0.509080 -0.606113
O2    O     O_R   0.138320 0.658600 0.480130 -0.596273
O3    O     O_R   0.002900 0.525670 0.675280 -0.605955
O4    O     O_R   0.204310 0.491320 0.646330 -0.622218
O5    O     O_R   0.861680 0.341400 0.519870 -0.622588
O6    O     O_R   0.063090 0.307050 0.490920 -0.630529
O7    O     O_R   0.795690 0.508680 0.353670 -0.618690
O8    O     O_R   0.997100 0.474330 0.324720 -0.595802
O9    O     O_3   0.955081 0.609874 0.123054 -0.606997
Zn1   Zn    Zn3+2 0.865520 0.522940 0.519330 0.933089
Zn2   Zn    Zn3+2 0.134480 0.477060 0.480670 0.930554

loop_
_geom_bond_atom_site_label_1
_geom_bond_atom_site_label_2
_ccdc_geom_bond_type
O1    Zn1   S    
C6    C10   S    
O3    Zn1   S    
C19   C23   A    
O7    Zn1   S    
C9    N2    D    
C6    C7    D    
C11   O7    A    
C8    H14   S    
O4    Zn2   S    
C17   H4    S    
C18   H10   S    
N1    Zn2   S    
C2    C4    S    
O5    Zn1   S    
C11   O8    A    
C24   H2    S    
C4    O4    A    
C12   C20   A    
C13   C21   A    
C21   C22   A    
C25   O9    S    
C12   C17   A    
C2    C15   A    
C18   H9    S    
C13   C25   A    
C15   H3    S    
C22   H17   S    
C10   O6    A    
C12   C19   A    
C9    H13   S    
C18   H8    S    
C6    H11   S    
C14   C25   A    
H15   N2    S    
H16   N1    S    
C1    O1    A    
C16   C17   A    
C18   O9    S    
C16   H5    S    
C5    H1    S    
C10   O5    A    
C20   C24   A    
C13   H18   S    
C20   C21   A    
N2    Zn1   S    
O6    Zn2   S    
C4    O3    A    
O8    Zn2   S    
C14   C24   A    
C11   C14   S    
C5    C7    S    
C22   C23   A    
C8    C9    S    
C7    H7    S    
C3    C5    D    
C2    C19   A    
C1    O2    A    
C15   C16   A    
C3    H12   S    
O2    Zn2   S    
C1    C3    S    
C8    N1    D    
C23   H6    S    
