data_mof_unit_42111.cif
_audit_creation_date              2012-12-11T16:51:22-0500
_audit_creation_method            fapswitch 2.2
_symmetry_space_group_name_H-M    P1
_symmetry_Int_Tables_number       1
_space_group_crystal_system       triclinic
_cell_length_a                    24.503783
_cell_length_b                    17.233012
_cell_length_c                    15.649467
_cell_angle_alpha                 89.941225
_cell_angle_beta                  129.265165
_cell_angle_gamma                 89.918053
_cell_volume                      5116.33956591

loop_
_atom_site_label
_atom_site_type_symbol
_atom_type_description
_atom_site_fract_x
_atom_site_fract_y
_atom_site_fract_z
_atom_type_partial_charge
C1    C     C_R   0.834573 0.887927 0.201904 -0.104401
C2    C     C_R   0.144995 0.183130 0.503536 0.041623
C3    C     C_2   0.246545 0.405875 0.295501 0.905945
C4    C     C_R   0.351699 0.681045 0.494338 0.040684
C5    C     C_R   0.648570 0.680456 0.505193 0.042629
C6    C     C_R   0.852562 0.125044 0.135543 0.137492
C7    C     C_R   0.131428 0.162366 0.826262 0.131789
C8    C     C_R   0.369144 0.663780 0.175167 0.131266
C9    C     C_R   0.630488 0.663995 0.824016 0.126504
C10   C     C_R   0.789590 0.823882 0.613851 0.162805
C11   C     C_R   0.210784 0.825243 0.385784 0.164177
C12   C     C_R   0.287233 0.325484 0.611391 0.168875
C13   C     C_R   0.165420 0.887478 0.798064 -0.102133
C14   C     C_R   0.709636 0.321061 0.385925 0.157206
C15   C     C_R   0.766117 0.859135 0.515227 0.028863
C16   C     C_R   0.234096 0.859688 0.484651 0.029468
C17   C     C_R   0.264426 0.359958 0.512774 0.028200
C18   C     C_R   0.733609 0.357974 0.483646 0.031293
C19   C     C_R   0.693165 0.859060 0.426244 -0.153615
C20   C     C_R   0.307041 0.859273 0.573637 -0.153541
C21   C     C_R   0.191492 0.359778 0.423229 -0.152996
C22   C     C_R   0.806960 0.361303 0.569891 -0.147119
C23   C     C_R   0.148220 0.305856 0.421950 -0.182536
C24   C     C_R   0.334752 0.387445 0.202261 -0.102408
C25   C     C_R   0.850874 0.308289 0.571031 -0.185234
C26   C     C_R   0.650583 0.804028 0.424622 -0.182348
C27   C     C_R   0.349751 0.804433 0.574990 -0.182422
C28   C     C_R   0.177877 0.256069 0.512690 0.035881
C29   C     C_R   0.821158 0.256603 0.482489 0.034435
C30   C     C_R   0.681127 0.753363 0.514673 0.037967
C31   C     C_R   0.319317 0.754295 0.484713 0.037710
C32   C     C_R   0.244478 0.274314 0.611550 0.130088
C33   C     C_R   0.752995 0.271382 0.385041 0.135847
C34   C     C_R   0.747393 0.771741 0.613723 0.130546
C35   C     C_R   0.648671 0.357144 0.756234 -0.099596
C36   C     C_R   0.253108 0.773278 0.385664 0.129451
C37   C     C_3   0.808647 0.720459 0.696874 -0.500921
C38   C     C_3   0.191923 0.722549 0.301902 -0.498283
C39   C     C_3   0.305594 0.223033 0.695472 -0.496946
C40   C     C_3   0.693755 0.216586 0.307364 -0.489073
C41   C     C_R   0.112849 0.897894 0.406728 -0.145919
C42   C     C_R   0.887199 0.897753 0.593301 -0.146295
C43   C     C_R   0.612611 0.396830 0.406617 -0.142631
C44   C     C_R   0.386201 0.398753 0.592355 -0.156594
C45   C     C_3   0.854970 0.777579 0.696792 -0.500837
C46   C     C_R   0.906446 0.142599 0.588243 -0.127370
C47   C     C_3   0.145474 0.779460 0.302227 -0.503242
C48   C     C_3   0.352352 0.279243 0.695101 -0.509768
C49   C     C_3   0.646148 0.271215 0.308489 -0.503638
C50   C     C_2   0.189084 0.836877 0.970505 -0.211461
C51   C     C_2   0.810913 0.837296 0.029632 -0.211058
C52   C     C_2   0.640311 0.242759 0.849964 -0.215414
C53   C     C_2   0.311362 0.335970 0.030610 -0.211703
C54   C     C_2   0.258970 0.839022 0.030706 -0.104896
C55   C     C_2   0.741033 0.838353 0.970069 -0.103058
C56   C     C_2   0.693019 0.202840 0.865938 -0.100945
C57   C     C_R   0.091322 0.142673 0.409192 -0.127656
C58   C     C_2   0.241486 0.337109 0.970961 -0.104132
C59   C     C_2   0.805772 0.150799 0.020274 -0.207181
C60   C     C_2   0.159521 0.232086 0.893059 -0.201187
C61   C     C_2   0.341287 0.733976 0.108881 -0.201233
C62   C     C_2   0.658416 0.733851 0.890648 -0.200900
C63   C     C_2   0.735722 0.151626 0.961311 -0.114664
C64   C     C_2   0.200742 0.278617 0.887377 -0.121439
C65   C     C_2   0.300281 0.780733 0.114944 -0.121303
C66   C     C_2   0.700206 0.780121 0.885951 -0.121060
C67   C     C_R   0.188096 0.896517 0.589895 -0.019190
C68   C     C_R   0.404864 0.640640 0.589025 -0.126166
C69   C     C_R   0.811994 0.896559 0.410109 -0.018645
C70   C     C_R   0.688445 0.397435 0.589765 -0.045891
C71   C     C_R   0.311740 0.396841 0.409472 -0.017734
C72   C     C_R   0.074042 0.888455 0.798013 -0.142210
C73   C     C_R   0.925897 0.888805 0.201859 -0.141322
C74   C     C_R   0.557420 0.358558 0.757154 -0.145993
C75   C     C_R   0.426105 0.388336 0.202265 -0.142747
C76   C     C_R   0.856147 0.867540 0.141738 0.133576
C77   C     C_R   0.143798 0.866951 0.858151 0.131711
C78   C     C_R   0.356466 0.366727 0.142389 0.132266
C79   C     C_R   0.595229 0.640386 0.410659 -0.127982
C80   C     C_R   0.615390 0.315666 0.787786 0.128920
C81   C     C_R   0.181532 0.881456 0.496183 -0.011514
C82   C     C_R   0.818598 0.881344 0.503827 -0.012222
C83   C     C_R   0.681501 0.380802 0.495982 -0.009554
C84   C     C_R   0.317620 0.382116 0.502536 -0.008726
C85   C     C_R   0.835865 0.141320 0.404363 -0.081204
C86   C     C_R   0.166247 0.139472 0.593337 -0.083524
C87   C     C_R   0.331976 0.638165 0.405388 -0.082933
C88   C     C_R   0.668239 0.637683 0.594354 -0.090740
C89   C     C_R   0.923218 0.106479 0.197930 -0.154399
C90   C     C_R   0.855268 0.184371 0.493137 0.040663
C91   C     C_R   0.068250 0.126895 0.782238 -0.146235
C92   C     C_R   0.432116 0.627758 0.218687 -0.144979
C93   C     C_R   0.567718 0.627879 0.780939 -0.147090
C94   C     C_R   0.159738 0.125579 0.784144 -0.116646
C95   C     C_R   0.832822 0.106169 0.198301 -0.119539
C96   C     C_R   0.659152 0.626776 0.782717 -0.103808
C97   C     C_R   0.340582 0.626614 0.216641 -0.115750
C98   C     C_2   0.253547 0.905093 0.703650 0.907255
C99   C     C_2   0.746518 0.905368 0.296326 0.908560
C100  C     C_2   0.754117 0.407063 0.703644 0.912820
H1    H     H_    0.781721 0.886648 0.173923 0.124223
H2    H     H_    0.181867 0.721581 0.221932 0.185866
H3    H     H_    0.315739 0.222164 0.775518 0.185362
H4    H     H_    0.681232 0.213984 0.225608 0.188762
H5    H     H_    0.806753 0.662848 0.663062 0.210740
H6    H     H_    0.193710 0.664636 0.335102 0.213454
H7    H     H_    0.303602 0.165044 0.662415 0.213368
H8    H     H_    0.699823 0.159271 0.345363 0.212465
H9    H     H_    0.891722 0.808449 0.776758 0.183801
H10   H     H_    0.108814 0.810935 0.222506 0.184182
H11   H     H_    0.389063 0.310561 0.774679 0.184686
H12   H     H_    0.218306 0.885964 0.826141 0.124935
H13   H     H_    0.606367 0.299897 0.227417 0.185255
H14   H     H_    0.879643 0.752576 0.662925 0.209676
H15   H     H_    0.120666 0.753998 0.335612 0.209994
H16   H     H_    0.377110 0.253389 0.661823 0.208293
H17   H     H_    0.624922 0.245337 0.347270 0.209176
H18   H     H_    0.711252 0.126159 0.993037 0.127192
H19   H     H_    0.213050 0.265933 0.833168 0.128649
H20   H     H_    0.288186 0.767985 0.169424 0.129175
H21   H     H_    0.712920 0.767276 0.832296 0.128331
H22   H     H_    0.283983 0.870806 0.003962 0.136181
H23   H     H_    0.281910 0.385913 0.174241 0.125293
H24   H     H_    0.715788 0.869496 0.996922 0.134600
H25   H     H_    0.712793 0.218081 0.822662 0.142314
H26   H     H_    0.216159 0.368566 0.997440 0.136534
H27   H     H_    0.829465 0.177068 0.987507 0.146349
H28   H     H_    0.147518 0.244896 0.947615 0.149996
H29   H     H_    0.353021 0.746754 0.053963 0.149629
H30   H     H_    0.646024 0.746795 0.944685 0.149390
H31   H     H_    0.165004 0.804253 0.998472 0.132778
H32   H     H_    0.835205 0.805349 0.001476 0.132445
H33   H     H_    0.621240 0.227054 0.894260 0.132746
H34   H     H_    0.696004 0.340925 0.770225 0.113898
H35   H     H_    0.335716 0.303682 0.002810 0.132643
H36   H     H_    0.091739 0.905374 0.322176 0.109754
H37   H     H_    0.908240 0.904902 0.677836 0.109663
H38   H     H_    0.591180 0.402800 0.321693 0.108772
H39   H     H_    0.406494 0.406667 0.676396 0.111411
H40   H     H_    0.043826 0.889113 0.826686 0.095127
H41   H     H_    0.956088 0.889470 0.173144 0.094158
H42   H     H_    0.520392 0.343124 0.770080 0.101724
H43   H     H_    0.456343 0.388776 0.173632 0.095268
H44   H     H_    0.797959 0.156403 0.318379 0.109534
H45   H     H_    0.094394 0.298364 0.347241 0.136731
H46   H     H_    0.207511 0.152665 0.678163 0.107050
H47   H     H_    0.290435 0.650779 0.320349 0.108515
H48   H     H_    0.709943 0.649973 0.679344 0.108247
H49   H     H_    0.952710 0.103551 0.168092 0.099615
H50   H     H_    0.037055 0.135405 0.808117 0.097368
H51   H     H_    0.463364 0.636552 0.193008 0.097337
H52   H     H_    0.536584 0.636625 0.806848 0.098467
H53   H     H_    0.213349 0.130298 0.815040 0.103987
H54   H     H_    0.779800 0.102362 0.170391 0.110267
H55   H     H_    0.712715 0.631948 0.813645 0.103330
H56   H     H_    0.905594 0.303071 0.644149 0.137849
H57   H     H_    0.286962 0.631821 0.185553 0.103541
H58   H     H_    0.929461 0.158533 0.671292 0.103549
H59   H     H_    0.062819 0.159828 0.324223 0.106430
H60   H     H_    0.428333 0.656133 0.672375 0.102025
H61   H     H_    0.571720 0.655895 0.327208 0.102186
H62   H     H_    0.670053 0.894888 0.354265 0.153186
H63   H     H_    0.330063 0.894591 0.645827 0.153308
H64   H     H_    0.168759 0.394917 0.350794 0.154337
H65   H     H_    0.829798 0.398825 0.640035 0.155299
H66   H     H_    0.315072 0.975118 0.835666 0.314426
H67   H     H_    0.596656 0.796493 0.350178 0.136472
H68   H     H_    0.684770 0.975688 0.164116 0.311855
H69   H     H_    0.810225 0.473705 0.840179 0.320020
H70   H     H_    0.185158 0.476496 0.163574 0.314975
H71   H     H_    0.403651 0.796490 0.649485 0.136252
H72   H     H_    0.818887 0.718782 0.776976 0.186153
N1    N     N_R   0.888400 0.921830 0.294620 -0.047541
N2    N     N_R   0.874350 0.922400 0.443380 -0.066234
N3    N     N_R   0.625650 0.422400 0.556620 -0.063813
N4    N     N_R   0.374350 0.422400 0.443380 -0.066101
N5    N     N_R   0.054230 0.922730 0.705400 -0.045116
N6    N     N_R   0.945770 0.922730 0.294600 -0.044079
N7    N     N_R   0.554230 0.422730 0.705400 -0.046221
N8    N     N_R   0.445770 0.422730 0.294600 -0.045551
N9    N     N_R   0.873790 0.077030 0.443380 -0.031315
N10   N     N_R   0.126210 0.077030 0.556620 -0.030463
N11   N     N_R   0.373790 0.577030 0.443380 -0.030998
N12   N     N_R   0.111600 0.921830 0.705380 -0.048252
N13   N     N_R   0.626210 0.577030 0.556620 -0.030119
N14   N     N_R   0.945200 0.076700 0.294600 -0.044570
N15   N     N_R   0.054800 0.076700 0.705400 -0.044222
N16   N     N_R   0.445200 0.576700 0.294600 -0.044659
N17   N     N_R   0.554800 0.576700 0.705400 -0.045803
N18   N     N_R   0.111030 0.077600 0.705380 -0.037987
N19   N     N_R   0.888970 0.077600 0.294620 -0.041004
N20   N     N_R   0.611030 0.577600 0.705380 -0.036139
N21   N     N_R   0.388970 0.577600 0.294620 -0.038269
N22   N     N_R   0.919490 0.077280 0.556590 -0.046265
N23   N     N_R   0.388400 0.421830 0.294620 -0.048674
N24   N     N_R   0.080510 0.077280 0.443410 -0.046480
N25   N     N_R   0.419490 0.577280 0.556590 -0.045841
N26   N     N_R   0.580510 0.577280 0.443410 -0.046171
N27   N     N_R   0.611600 0.421830 0.705380 -0.039514
N28   N     N_R   0.079940 0.922160 0.443410 -0.049263
N29   N     N_R   0.920060 0.922160 0.556590 -0.049122
N30   N     N_R   0.579940 0.422160 0.443410 -0.049312
N31   N     N_R   0.420060 0.422160 0.556590 -0.049006
N32   N     N_R   0.125650 0.922400 0.556620 -0.066345
Ni1   Ni    Ni4+2 0.882160 0.999430 0.370180 0.249872
Ni2   Ni    Ni4+2 0.117840 0.999430 0.629820 0.254508
Ni3   Ni    Ni4+2 0.382160 0.499430 0.370180 0.253935
Ni4   Ni    Ni4+2 0.617840 0.499430 0.629820 0.261527
Ni5   Ni    Ni4+2 0.012460 0.999430 0.370180 0.205237
Ni6   Ni    Ni4+2 0.987540 0.999430 0.629820 0.207196
Ni7   Ni    Ni4+2 0.512460 0.499430 0.370180 0.207162
Ni8   Ni    Ni4+2 0.487540 0.499430 0.629820 0.209711
O1    O     O_2   0.292948 0.849490 0.752145 -0.655360
O2    O     O_R   0.269094 0.976347 0.757121 -0.828598
O3    O     O_2   0.707310 0.849853 0.247965 -0.655123
O4    O     O_R   0.730703 0.976764 0.242703 -0.832975
O5    O     O_2   0.797558 0.354585 0.749180 -0.661244
O6    O     O_R   0.764066 0.474287 0.761823 -0.818806
O7    O     O_2   0.207409 0.350392 0.246584 -0.655288
O8    O     O_R   0.230945 0.477422 0.242313 -0.828488

loop_
_geom_bond_atom_site_label_1
_geom_bond_atom_site_label_2
_ccdc_geom_bond_type
C49   H13   S    
N21   Ni3   S    
C9    C93   A    
N17   N20   A    
C34   C37   S    
N11   Ni3   S    
C89   N14   A    
C62   H30   S    
C11   C47   S    
C42   C82   A    
N30   Ni7   S    
C12   C48   S    
C14   C33   A    
C67   N32   A    
C2    C57   A    
C35   N27   A    
C4    C87   A    
C73   H41   S    
C47   H15   S    
C23   H45   S    
C1    N1    A    
C50   C54   D    
C64   H19   S    
C87   H47   S    
N3    Ni4   S    
N4    Ni3   S    
C11   C36   A    
C67   C81   A    
C71   C84   A    
C13   H12   S    
C10   C15   A    
C87   N11   A    
N16   Ni7   S    
C45   H9    S    
C14   C49   S    
N22   Ni6   S    
C99   O4    S    
C59   H27   S    
C40   C49   S    
C46   H58   S    
C29   C33   A    
C35   C80   A    
C43   C83   A    
C71   N4    A    
C35   H34   S    
C43   H38   S    
N19   Ni1   S    
C32   C39   S    
C97   N21   A    
N14   N19   A    
C19   C26   A    
C14   C18   A    
C16   C81   S    
N15   N18   A    
C43   N30   A    
C69   C82   A    
C67   C98   S    
C5    C88   A    
C45   H14   S    
N18   Ni2   S    
N9    Ni1   S    
C49   H17   S    
C74   N7    A    
C3    O8    S    
C22   C25   A    
C53   H35   S    
C12   C17   A    
N2    Ni1   S    
C8    C92   A    
C86   N10   A    
N13   N26   A    
C5    C79   A    
C70   N3    A    
C61   H29   S    
C8    C61   S    
C40   H8    S    
C89   H49   S    
H69   O6    S    
C74   H42   S    
C100  O6    S    
C21   H64   S    
C74   C80   A    
C12   C32   A    
C42   H37   S    
C25   C29   A    
C52   H33   S    
C22   H65   S    
N4    N31   A    
C72   N5    A    
C79   H61   S    
C41   N28   A    
C86   H46   S    
C85   H44   S    
C29   C90   S    
C58   H26   S    
C70   C100  S    
C46   N22   A    
C15   C82   S    
H70   O8    S    
C58   C64   S    
C85   C90   A    
C13   C77   A    
C26   H67   S    
C56   C63   S    
C33   C40   S    
C62   C66   D    
C57   N24   A    
C27   C31   A    
C9    C62   S    
C28   C32   A    
C51   C76   S    
C54   C65   S    
C63   H18   S    
C30   C34   A    
C24   N23   A    
C56   H25   S    
C20   H63   S    
N7    Ni8   S    
N17   Ni8   S    
C24   H23   S    
C17   C21   A    
N6    Ni5   S    
C68   N25   A    
N10   Ni2   S    
C19   H62   S    
C97   H57   S    
N5    Ni6   S    
C38   H6    S    
N8    Ni7   S    
C15   C19   A    
C8    C97   A    
C94   N18   A    
C44   N31   A    
C37   H5    S    
C72   C77   A    
N26   Ni7   S    
C61   C65   D    
N28   N32   A    
C40   H4    S    
C11   C16   A    
C75   N8    A    
N15   Ni6   S    
C60   H28   S    
C16   C20   A    
C13   N12   A    
C41   C81   A    
N12   Ni2   S    
C92   H51   S    
C18   C83   S    
C88   H48   S    
C66   H21   S    
C10   C34   A    
N11   N25   A    
C23   C28   A    
N13   Ni4   S    
C70   C83   A    
C9    C96   A    
C38   C47   S    
N8    N23   A    
C75   H43   S    
H66   O2    S    
C73   N6    A    
C69   C99   S    
C24   C78   A    
C88   N13   A    
C98   O1    D    
N32   Ni2   S    
N16   N21   A    
N20   Ni4   S    
C44   H39   S    
C21   C23   A    
C37   H72   S    
N31   Ni8   S    
N14   Ni5   S    
N10   N24   A    
C69   N2    A    
N24   Ni5   S    
C72   H40   S    
C37   C45   S    
C6    C89   A    
C50   C77   S    
C27   H71   S    
N29   Ni6   S    
C55   C66   S    
C57   H59   S    
C4    C68   A    
C5    C30   S    
C7    C94   A    
C91   N15   A    
C55   H24   S    
C85   N9    A    
C95   N19   A    
N7    N27   A    
C18   C22   A    
C1    C76   A    
C6    C59   S    
C7    C60   S    
N3    N30   A    
C44   C84   A    
C51   H32   S    
C100  O5    D    
C91   H50   S    
N1    Ni1   S    
C53   C58   D    
C92   N16   A    
C39   H3    S    
C3    C71   S    
C46   C90   A    
C20   C27   A    
C93   N17   A    
N5    N12   A    
C59   C63   D    
N28   Ni5   S    
C48   H16   S    
C60   C64   D    
C95   H54   S    
C17   C84   S    
C36   C38   S    
C53   C78   S    
C38   H2    S    
N25   Ni8   S    
C68   H60   S    
C7    C91   A    
H68   O4    S    
C99   O3    D    
N1    N6    A    
C94   H53   S    
N27   Ni4   S    
C73   C76   A    
C65   H20   S    
C93   H52   S    
C2    C86   A    
C51   C55   D    
N2    N29   A    
C98   O2    S    
C96   N20   A    
C39   H7    S    
C75   C78   A    
C4    C31   S    
C50   H31   S    
C96   H55   S    
C1    H1    S    
C54   H22   S    
C48   H11   S    
N23   Ni3   S    
C3    O7    D    
C6    C95   A    
C10   C45   S    
C79   N26   A    
C31   C36   A    
C42   N29   A    
C2    C28   S    
C47   H10   S    
N9    N22   A    
C52   C80   S    
C41   H36   S    
C52   C56   D    
C39   C48   S    
C25   H56   S    
C26   C30   A    
