data_mof_unit_57467.cif
_audit_creation_date              2012-12-10T17:25:14-0500
_audit_creation_method            fapswitch 2.2
_symmetry_space_group_name_H-M    P1
_symmetry_Int_Tables_number       1
_space_group_crystal_system       triclinic
_cell_length_a                    27.821726
_cell_length_b                    10.862021
_cell_length_c                    9.569606
_cell_angle_alpha                 90.345747
_cell_angle_beta                  90.006251
_cell_angle_gamma                 92.548958
_cell_volume                      2889.02244668

loop_
_atom_site_label
_atom_site_type_symbol
_atom_type_description
_atom_site_fract_x
_atom_site_fract_y
_atom_site_fract_z
_atom_type_partial_charge
C1    C     C_R   0.503842 0.263065 0.500375 0.809518
C2    C     C_R   0.972385 0.394696 0.461349 0.042349
C3    C     C_R   0.976456 0.612397 0.538896 0.042976
C4    C     C_R   0.407493 0.499752 0.499976 0.809473
C5    C     C_R   0.949181 0.503770 0.500122 0.067983
C6    C     C_R   0.943376 0.287749 0.429542 -0.205723
C7    C     C_R   0.893502 0.289114 0.431075 -0.144612
C8    C     C_R   0.870404 0.396712 0.465047 -0.021302
C9    C     C_R   0.898049 0.504211 0.500129 -0.043852
C10   C     C_R   0.874414 0.612137 0.535231 -0.019909
C11   C     C_R   0.823914 0.610615 0.534449 0.533341
C12   C     C_R   0.278830 0.498603 0.373406 -0.100724
C13   C     C_R   0.819989 0.399061 0.465810 0.534651
C14   C     C_R   0.721032 0.498210 0.373580 -0.103936
C15   C     C_R   0.670902 0.497171 0.373397 -0.218853
C16   C     C_R   0.497346 0.737623 0.501528 0.786796
C17   C     C_R   0.671096 0.510274 0.626676 -0.225131
C18   C     C_R   0.721238 0.511726 0.626485 -0.102414
C19   C     C_R   0.746339 0.505314 0.500041 0.358967
C20   C     C_R   0.023490 0.395662 0.456471 0.042551
C21   C     C_R   0.050742 0.502868 0.500090 0.068064
C22   C     C_R   0.027515 0.610529 0.543720 0.041815
C23   C     C_R   0.253649 0.500982 0.500029 0.355745
C24   C     C_R   0.048577 0.292974 0.408417 -0.206224
C25   C     C_R   0.106314 0.710655 0.592500 -0.143670
C26   C     C_R   0.951445 0.719796 0.570775 -0.206102
C27   C     C_R   0.901527 0.719292 0.569247 -0.147095
C28   C     C_R   0.592501 0.500821 0.500037 0.776953
C29   C     C_R   0.056448 0.712739 0.591719 -0.205526
C30   C     C_R   0.531120 0.122369 0.755294 -0.151716
C31   C     C_R   0.525443 0.064394 0.884026 -0.154777
C32   C     C_R   0.501669 0.949584 0.891164 -0.137472
C33   C     C_R   0.488071 0.887526 0.768509 -0.155226
C34   C     C_R   0.101875 0.502403 0.500076 -0.043792
C35   C     C_R   0.498589 0.939515 0.635541 0.094758
C36   C     C_R   0.513044 0.065336 0.631100 0.097266
C37   C     C_R   0.508155 0.129265 0.503168 -0.118636
C38   C     C_R   0.500788 0.063066 0.378561 -0.203304
C39   C     C_R   0.496673 0.935874 0.380021 -0.206562
C40   C     C_R   0.176045 0.399105 0.454848 0.534272
C41   C     C_R   0.495474 0.872310 0.506989 -0.111351
C42   C     C_R   0.563967 0.664189 0.145325 -0.164419
C43   C     C_R   0.595126 0.744446 0.073395 -0.218395
C44   C     C_R   0.595179 0.744196 0.929461 -0.192658
C45   C     C_R   0.125553 0.397701 0.453956 -0.020382
C46   C     C_R   0.563997 0.663874 0.856641 -0.155579
C47   C     C_R   0.531431 0.580712 0.925616 0.193854
C48   C     C_R   0.531414 0.580754 0.075385 0.208304
C49   C     C_R   0.470233 0.422910 0.073443 -0.071932
C50   C     C_R   0.470250 0.422938 0.925347 -0.069912
C51   C     C_R   0.179900 0.604292 0.545273 0.535006
C52   C     C_R   0.278928 0.502816 0.626629 -0.100720
C53   C     C_R   0.329038 0.502282 0.626768 -0.216151
C54   C     C_R   0.328943 0.498161 0.373223 -0.214691
C55   C     C_R   0.098499 0.294145 0.407627 -0.146127
C56   C     C_R   0.129475 0.606633 0.546182 -0.021244
C57   C     C_R   0.354537 0.500012 0.499983 -0.042700
C58   C     C_R   0.645453 0.502676 0.500056 -0.037096
Cu1   Cu    Cu3+1 0.500000 0.499990 0.640660 0.923875
Cu2   Cu    Cu3+1 0.500000 0.500010 0.359340 0.934064
H1    H     H_    0.347573 0.496397 0.273917 0.158401
H2    H     H_    0.538239 0.110204 0.978607 0.138328
H3    H     H_    0.259506 0.497491 0.275140 0.142247
H4    H     H_    0.494648 0.907212 0.991676 0.139319
H5    H     H_    0.467841 0.801332 0.781119 0.170475
H6    H     H_    0.493606 0.887374 0.280930 0.164068
H7    H     H_    0.567217 0.671903 0.255440 0.203949
H8    H     H_    0.619473 0.807249 0.130094 0.163791
H9    H     H_    0.619471 0.807004 0.873456 0.165227
H10   H     H_    0.115843 0.212945 0.370050 0.188041
H11   H     H_    0.652145 0.491655 0.274223 0.164243
H12   H     H_    0.259668 0.504283 0.724911 0.142166
H13   H     H_    0.740283 0.493572 0.275482 0.140757
H14   H     H_    0.873057 0.204737 0.405545 0.189023
H15   H     H_    0.957916 0.200069 0.404957 0.138928
H16   H     H_    0.030845 0.210127 0.368204 0.139816
H17   H     H_    0.652489 0.515091 0.725831 0.162673
H18   H     H_    0.445866 0.359775 0.128464 0.139752
H19   H     H_    0.566944 0.671907 0.746597 0.204453
H20   H     H_    0.445909 0.359780 0.869387 0.147000
H21   H     H_    0.347741 0.503680 0.726062 0.158210
H22   H     H_    0.126701 0.791517 0.630049 0.189352
H23   H     H_    0.969261 0.807176 0.595433 0.138543
H24   H     H_    0.884237 0.803979 0.594815 0.187157
H25   H     H_    0.740640 0.517087 0.724589 0.140999
H26   H     H_    0.041827 0.795896 0.631881 0.140344
H27   H     H_    0.498161 0.109521 0.279152 0.161642
H28   H     H_    0.550641 0.210605 0.754472 0.164247
N1    N     N_R   0.202086 0.501475 0.500051 -0.468290
N2    N     N_R   0.797869 0.505039 0.500085 -0.468791
N3    N     N_R   0.500460 0.501210 0.147910 -0.198009
N4    N     N_R   0.500480 0.501290 0.852040 -0.203851
O1    O     O_R   0.500000 0.319640 0.618810 -0.587172
O2    O     O_R   0.569730 0.499970 0.618800 -0.604851
O3    O     O_R   0.569740 0.499990 0.381230 -0.599029
O4    O     O_2   0.198956 0.298632 0.412015 -0.535896
O5    O     O_2   0.793245 0.296100 0.433466 -0.535259
O6    O     O_2   0.206579 0.704301 0.588106 -0.535110
O7    O     O_2   0.800995 0.713934 0.566867 -0.537447
O8    O     O_R   0.500000 0.319660 0.381240 -0.579180
O9    O     O_R   0.430260 0.500010 0.618770 -0.582462
O10   O     O_R   0.430270 0.500030 0.381200 -0.579336
O11   O     O_R   0.500000 0.680340 0.618760 -0.612920
O12   O     O_R   0.500000 0.680360 0.381190 -0.598211

loop_
_geom_bond_atom_site_label_1
_geom_bond_atom_site_label_2
_ccdc_geom_bond_type
C10   C27   A    
C34   C56   A    
C8    C13   A    
C22   C29   A    
C13   N2    A    
C47   N4    A    
C35   C36   A    
C25   C56   A    
C33   H5    S    
C6    H15   S    
C39   C41   A    
C31   C32   A    
C24   C55   A    
C12   C23   A    
C26   C27   A    
C26   H23   S    
C28   O3    A    
C28   O2    A    
C36   C37   A    
C40   O4    S    
C18   C19   A    
C38   C39   A    
C49   H18   S    
C53   H21   S    
C51   C56   A    
C33   C35   A    
C16   O12   A    
C46   H19   S    
C20   C24   A    
C8    C9    A    
C48   N3    A    
C4    O10   A    
C4    C57   S    
C23   N1    S    
Cu1   O2    S    
C40   N1    A    
C9    C10   A    
C1    C37   S    
C17   C58   A    
C51   O6    S    
Cu1   Cu2   S    
C21   C22   A    
C31   H2    S    
C2    C6    A    
C49   N3    A    
Cu2   O10   S    
C1    O8    A    
C44   C46   A    
C7    H14   S    
C25   C29   A    
C40   C45   A    
C18   H25   S    
C2    C20   A    
Cu1   O9    S    
C14   H13   S    
C7    C8    A    
C32   H4    S    
C12   H3    S    
C53   C57   A    
C43   H8    S    
C21   C34   A    
Cu2   O8    S    
C43   C44   A    
C5    C9    A    
C37   C38   A    
C52   H12   S    
C16   O11   A    
C47   C48   A    
C30   C31   A    
C4    O9    A    
C17   H17   S    
C17   C18   A    
C44   H9    S    
C34   C45   A    
C42   C48   A    
C29   H26   S    
C50   N4    A    
C25   H22   S    
C39   H6    S    
C2    C5    A    
C42   C43   A    
C30   H28   S    
C52   C53   A    
Cu2   N3    S    
C46   C47   A    
C27   H24   S    
C14   C19   A    
C3    C26   A    
C24   H16   S    
C3    C5    A    
C50   H20   S    
C6    C7    A    
C54   H1    S    
C28   C58   S    
C15   H11   S    
C30   C36   A    
C38   H27   S    
Cu1   O11   S    
C32   C33   A    
C19   N2    S    
C51   N1    A    
C11   N2    A    
C23   C52   A    
C42   H7    S    
C11   O7    S    
C15   C58   A    
Cu1   N4    S    
C13   O5    S    
C35   C41   A    
C55   H10   S    
C10   C11   A    
Cu2   O3    S    
C20   C21   A    
C45   C55   A    
C1    O1    A    
C49   C50   A    
C14   C15   A    
C3    C22   A    
Cu1   O1    S    
Cu2   O12   S    
C16   C41   S    
C12   C54   A    
C54   C57   A    
