data_mof_unit_33027.cif
_audit_creation_date              2012-12-10T20:48:17-0500
_audit_creation_method            fapswitch 2.2
_symmetry_space_group_name_H-M    P1
_symmetry_Int_Tables_number       1
_space_group_crystal_system       triclinic
_cell_length_a                    10.996869
_cell_length_b                    8.924401
_cell_length_c                    8.223122
_cell_angle_alpha                 89.483217
_cell_angle_beta                  89.59755
_cell_angle_gamma                 89.147703
_cell_volume                      806.879780652

loop_
_atom_site_label
_atom_site_type_symbol
_atom_type_description
_atom_site_fract_x
_atom_site_fract_y
_atom_site_fract_z
_atom_type_partial_charge
C1    C     C_R   0.499301 0.218508 0.500518 1.054826
C2    C     C_R   0.257117 0.500467 0.499566 0.992377
C3    C     C_R   0.741550 0.511422 0.498727 1.032183
C4    C     C_R   0.502193 0.781421 0.499509 1.006441
C5    C     C_1   0.500598 0.065278 0.500717 -0.080779
C6    C     C_3   0.070711 0.341996 0.561092 0.004711
C7    C     C_3   0.074717 0.536003 0.308684 0.082162
C8    C     C_3   0.923854 0.352883 0.572269 0.041893
C9    C     C_3   0.926644 0.530108 0.304673 -0.002683
C10   C     C_1   0.501609 0.934664 0.499267 -0.072529
C11   C     C_3   0.070451 0.645159 0.608701 -0.176106
C12   C     C_3   0.923267 0.656804 0.599085 -0.144898
C13   C     C_3   0.119723 0.505281 0.496388 -0.233594
C14   C     C_3   0.877285 0.513739 0.494395 -0.154345
N1    N     N_1   0.500000 0.500030 0.073640 -0.046978
N2    N     N_1   0.500000 0.500030 0.926360 -0.034804
O1    O     O_R   0.500000 0.285340 0.636850 -0.648129
O2    O     O_R   0.500000 0.285340 0.363150 -0.589732
O3    O     O_R   0.314790 0.499970 0.636880 -0.661337
O4    O     O_R   0.314790 0.499970 0.363120 -0.653347
O5    O     O_R   0.685210 0.499970 0.636880 -0.556282
O6    O     O_R   0.685210 0.499970 0.363120 -0.590378
O7    O     O_R   0.500000 0.714650 0.636900 -0.585644
O8    O     O_R   0.500000 0.714650 0.363100 -0.682485
Zn1   Zn    Zn3+2 0.500000 0.499990 0.682780 1.033854
Zn2   Zn    Zn3+2 0.500000 0.499990 0.317220 1.005418
N3    N     N_2   0.120095 0.296316 0.722246 -0.277744
H1    H     H_    0.210535 0.313552 0.740687 0.272351
C15   C     C_3   0.095351 0.147263 0.788335 -0.651874
H2    H     H_    0.084838 0.153517 0.922331 0.247523
H3    H     H_    0.172715 0.069459 0.762009 0.265016
H4    H     H_    0.012459 0.097996 0.738051 0.215219
N4    N     N_2   0.115811 0.686335 0.250979 -0.277451
H5    H     H_    0.068300 0.781054 0.281701 0.207882
C16   C     C_3   0.231238 0.723660 0.174211 -0.488229
H6    H     H_    0.219641 0.826108 0.098118 0.226608
H7    H     H_    0.267764 0.633105 0.095875 0.236005
H8    H     H_    0.297302 0.755288 0.266822 0.252832
N5    N     N_2   0.886349 0.344559 0.745097 -0.241144
H9    H     H_    0.937121 0.401366 0.827932 0.321087
C17   C     C_3   0.801666 0.237322 0.818055 -0.518182
H10   H     H_    0.714111 0.294258 0.847275 0.285444
H11   H     H_    0.841095 0.191050 0.932031 0.204505
H12   H     H_    0.782511 0.138096 0.743716 0.219237
N6    N     N_2   0.885576 0.666191 0.211848 -0.313767
H13   H     H_    0.930501 0.673351 0.101712 0.300509
C18   C     C_3   0.764108 0.729759 0.188223 -0.566532
H14   H     H_    0.771694 0.837788 0.120924 0.190166
H15   H     H_    0.717923 0.756811 0.302625 0.252387
H16   H     H_    0.706359 0.656613 0.114844 0.300733
C19   C     C_2   0.119867 0.219052 0.446263 0.269450
H17   H     H_    0.068624 0.177038 0.345526 0.030738
O9    O     O_2   0.223087 0.168608 0.461501 -0.591320
C20   C     C_2   0.128391 0.423920 0.183817 0.295349
H18   H     H_    0.203727 0.348309 0.207251 0.149537
O10   O     O_2   0.090091 0.421813 0.046086 -0.656762
C21   C     C_2   0.867623 0.215197 0.489992 0.264506
H19   H     H_    0.913574 0.107781 0.496524 0.091441
O11   O     O_2   0.765002 0.215755 0.434936 -0.572690
C22   C     C_2   0.881971 0.396633 0.203921 0.626255
H20   H     H_    0.926604 0.288488 0.208062 0.002382
O12   O     O_2   0.796336 0.408986 0.111468 -0.536122
C23   C     C_2   0.113439 0.629810 0.784318 0.455280
H21   H     H_    0.168423 0.538805 0.825345 0.175582
O13   O     O_2   0.096473 0.731152 0.880882 -0.653758
C24   C     C_2   0.131607 0.794826 0.565259 0.407289
H22   H     H_    0.081358 0.899425 0.562092 0.064205
O14   O     O_2   0.241725 0.804548 0.554416 -0.590875
C25   C     C_2   0.870016 0.684755 0.772346 0.543153
H23   H     H_    0.888366 0.791853 0.828698 0.098762
O15   O     O_2   0.804355 0.601501 0.848595 -0.561380
C26   C     C_2   0.875820 0.801829 0.515922 0.200195
H24   H     H_    0.923083 0.855676 0.417878 0.108532
O16   O     O_2   0.779374 0.861940 0.555956 -0.622147

loop_
_geom_bond_atom_site_label_1
_geom_bond_atom_site_label_2
_ccdc_geom_bond_type
C24   O14   D    
C9    C14   S    
C23   O13   D    
C3    O5    A    
C9    N6    S    
C15   H2    S    
N2    Zn1   S    
C8    N5    S    
C6    C19   S    
N3    C15   S    
C26   O16   D    
C11   C13   S    
C17   H10   S    
C17   H11   S    
C1    O1    A    
C18   H14   S    
O2    Zn2   S    
C11   C24   S    
C2    C13   S    
C11   C12   S    
C9    C22   S    
O1    Zn1   S    
O7    Zn1   S    
N4    H5    S    
C1    O2    A    
C5    C10   T    
C18   H15   S    
N6    H13   S    
C6    C13   S    
C7    N4    S    
C21   H19   S    
C3    C14   S    
O4    Zn2   S    
C22   H20   S    
C1    C5    S    
C22   O12   D    
C16   H7    S    
C12   C25   S    
C12   C14   S    
C24   H22   S    
C18   H16   S    
C11   C23   S    
N6    C18   S    
C12   C26   S    
C25   H23   S    
C4    O8    A    
C17   H12   S    
C20   O10   D    
C21   O11   D    
C15   H4    S    
N1    N2    T    
O3    Zn1   S    
C2    O4    A    
C19   H17   S    
N5    H9    S    
C7    C9    S    
C7    C13   S    
C16   H8    S    
C19   O9    D    
N5    C17   S    
C15   H3    S    
O6    Zn2   S    
N3    H1    S    
C25   O15   D    
C4    O7    A    
O5    Zn1   S    
C20   H18   S    
C26   H24   S    
C3    O6    A    
C6    C8    S    
C8    C14   S    
C7    C20   S    
N4    C16   S    
C2    O3    A    
C4    C10   S    
C8    C21   S    
C6    N3    S    
O8    Zn2   S    
C23   H21   S    
N1    Zn2   S    
C16   H6    S    
