data_mof_unit_67041.cif
_audit_creation_date              2013-03-05T15:58:15-0500
_audit_creation_method            fapswitch 2.2
_symmetry_space_group_name_H-M    P1
_symmetry_Int_Tables_number       1
_space_group_crystal_system       triclinic
_cell_length_a                    8.208945
_cell_length_b                    12.919818
_cell_length_c                    14.321487
_cell_angle_alpha                 93.111336
_cell_angle_beta                  90.544493
_cell_angle_gamma                 98.329242
_cell_volume                      1500.44071433

loop_
_atom_site_label
_atom_site_type_symbol
_atom_site_description
_atom_site_fract_x
_atom_site_fract_y
_atom_site_fract_z
_atom_type_partial_charge
P1    P     P_3+3 0.054400 0.427280 0.286870 0.460374
O1    O     O_2   0.887370 0.460630 0.272300 -0.353905
O2    O     O_3   0.129410 0.451380 0.388510 -0.420676
O3    O     O_3   0.670210 0.653170 0.329170 -0.386411
O4    O     O_2   0.791098 0.587906 0.167829 -0.354601
O5    O     O_3   0.007651 0.291545 0.264773 -0.555835
O6    O     O_3   0.723372 0.777488 0.171511 -0.485125
H1    H     H_    0.740124 0.872900 0.292461 0.148537
C1    C     C_3   0.641466 0.946705 0.177156 -0.855576
H2    H     H_    0.581131 0.003108 0.221033 0.214027
H3    H     H_    0.764964 0.985054 0.157416 0.308903
P2    P     P_3+3 0.668300 0.742890 0.573060 0.503277
P3    P     P_3+3 0.133671 0.840878 0.375920 0.451641
O7    O     O_2   0.845380 0.761330 0.544970 -0.352969
O8    O     O_3   0.088930 0.704860 0.376040 -0.365462
O9    O     O_2   0.999994 0.884779 0.434858 -0.400332
O10   O     O_3   0.746700 0.771944 0.689283 -0.578509
O11   O     O_3   0.087037 0.873380 0.262955 -0.473775
C2    C     C_3   0.204414 0.840728 0.201911 0.211087
H4    H     H_    0.230894 0.760565 0.215014 0.031965
H5    H     H_    0.317965 0.897975 0.209744 0.069848
C3    C     C_3   0.141427 0.839061 0.101535 0.037798
H6    H     H_    0.028533 0.780664 0.091132 0.188934
C4    C     C_3   0.191146 0.755424 0.642702 0.436576
H7    H     H_    0.312914 0.745449 0.614823 0.003025
H8    H     H_    0.098628 0.720491 0.590000 0.165787
C5    C     C_3   0.171715 0.870580 0.653444 -0.807404
H9    H     H_    0.289859 0.918129 0.672325 0.213533
H10   H     H_    0.134425 0.898547 0.586381 0.233721
H11   H     H_    0.077722 0.883849 0.706280 0.318246
Ba1   Ba    Ba6+2 0.855630 0.555280 0.454520 1.604787
C6    C     C_3   0.971126 0.243437 0.348753 0.412611
H12   H     H_    0.867054 0.275040 0.382790 0.096177
H13   H     H_    0.078776 0.256584 0.396846 0.135886
C7    C     C_3   0.925477 0.126141 0.327902 -0.943391
H14   H     H_    0.802568 0.110703 0.293589 0.266014
H15   H     H_    0.921980 0.084004 0.393214 0.235028
H16   H     H_    0.016870 0.095450 0.281436 0.289598
C8    C     C_3   0.668454 0.734721 0.770570 0.999171
C9    C     C_3   0.520330 0.788052 0.795185 -0.914084
H17   H     H_    0.552103 0.850835 0.850234 0.286419
H18   H     H_    0.421189 0.733669 0.824873 0.251195
H19   H     H_    0.474627 0.820508 0.732655 0.210215
P4    P     P_3+3 0.135310 0.572810 0.713130 0.518155
O12   O     O_2   0.302330 0.539400 0.727760 -0.337811
O13   O     O_3   0.060300 0.548700 0.611500 -0.405505
O14   O     O_3   0.519500 0.346920 0.670840 -0.359764
O15   O     O_3   0.172041 0.709822 0.729816 -0.538287
P5    P     P_3+3 0.059489 0.158924 0.629317 0.458720
O16   O     O_3   0.614310 0.373510 0.452640 -0.377522
O17   O     O_3   0.100780 0.295230 0.623970 -0.403615
O18   O     O_2   0.197900 0.112907 0.575861 -0.407509
O19   O     O_3   0.087133 0.133379 0.746733 -0.475164
Ba2   Ba    Ba6+2 0.334200 0.444810 0.545490 1.610153
P6    P     P_3+3 0.658815 0.651016 0.207113 0.500982
C10   C     C_3   0.656714 0.850068 0.230902 0.432080
H20   H     H_    0.532774 0.818831 0.256291 -0.021191
H21   H     H_    0.565995 0.924191 0.112464 0.276594
O20   O     O_3   0.575400 0.626570 0.547370 -0.339664
C11   C     C_3   0.460127 0.295118 0.263343 0.334523
H22   H     H_    0.386532 0.342115 0.309425 0.097235
H23   H     H_    0.562709 0.349302 0.234819 0.131489
C12   C     C_3   0.347890 0.244777 0.184482 -0.701156
H24   H     H_    0.248571 0.187752 0.211989 0.254487
H25   H     H_    0.292868 0.306714 0.150677 0.233675
H26   H     H_    0.418267 0.202282 0.133144 0.307648
P7    P     P_3+3 0.529475 0.240964 0.427651 0.426180
O21   O     O_2   0.344320 0.238700 0.455090 -0.390062
O22   O     O_3   0.524775 0.215021 0.307040 -0.574718
H27   H     H_    0.236782 0.816885 0.052872 0.092128
C13   C     C_3   0.017122 0.209180 0.801191 0.370413
H28   H     H_    0.088688 0.288234 0.795070 0.111311
H29   H     H_    0.888444 0.211217 0.778224 -0.039339
C14   C     C_3   0.013484 0.183650 0.903766 -0.006029
H30   H     H_    0.910559 0.215939 0.938867 0.123827
H31   H     H_    0.000318 0.098229 0.911906 0.273879
P8    P     P_3+3 0.536258 0.346699 0.792113 0.632330
C15   C     C_3   0.515035 0.150724 0.751424 0.262833
H32   H     H_    0.634521 0.176004 0.718081 -0.047141
O23   O     O_2   0.396944 0.403179 0.832842 -0.274759
O24   O     O_3   0.482927 0.219184 0.825482 -0.447691
H33   H     H_    0.415941 0.145119 0.697792 0.133415
C16   C     C_3   0.519312 0.043462 0.787540 0.399660
H34   H     H_    0.527815 0.990581 0.725107 -0.058672
C17   C     C_R   0.987100 0.448480 0.062300 -0.022525
C18   C     C_R   0.185030 0.496804 0.195742 0.226512
C19   C     C_R   0.341262 0.545610 0.225303 -0.494202
C20   C     C_R   0.452708 0.594232 0.162762 0.245094
C21   C     C_R   0.406438 0.600141 0.069192 -0.251213
C22   C     C_R   0.249427 0.553415 0.036342 0.074421
C23   C     C_R   0.138868 0.498943 0.098877 -0.013013
H35   H     H_    0.378603 0.543243 0.297733 0.169257
C24   C     C_R   0.052559 0.506602 0.904097 -0.046056
C25   C     C_R   0.940353 0.454061 0.967377 -0.053889
C26   C     C_R   0.009619 0.501975 0.806010 0.252018
C27   C     C_R   0.863003 0.440470 0.775666 -0.472709
C28   C     C_R   0.743683 0.401947 0.838803 0.242182
C29   C     C_R   0.782015 0.408007 0.934834 0.205851
C30   C     C_R   0.204460 0.558144 0.941133 -0.044871
H36   H     H_    0.493405 0.640487 0.022218 0.194834
H37   H     H_    0.836231 0.428482 0.701438 0.198950
H38   H     H_    0.906132 0.402381 0.107753 0.193488
H39   H     H_    0.290587 0.600212 0.895958 0.165748
C31   C     C_R   0.761916 0.175280 0.541853 -0.518949
C32   C     C_R   0.436365 0.816655 0.460106 -0.478126
C33   C     C_R   0.405441 0.995200 0.432738 -0.204629
C34   C     C_R   0.343877 0.888645 0.424492 0.165867
C35   C     C_R   0.581661 0.848863 0.512895 0.232559
C36   C     C_R   0.643659 0.958433 0.524220 -0.064021
C37   C     C_R   0.555135 0.031946 0.481671 -0.042931
C38   C     C_R   0.617463 0.140720 0.490939 0.260888
C39   C     C_R   0.853418 0.105062 0.579822 0.226662
C40   C     C_R   0.792254 0.997365 0.574153 -0.174279
H40   H     H_    0.332526 0.048395 0.402479 0.186096
H41   H     H_    0.863397 0.945370 0.606972 0.199889
H42   H     H_    0.808744 0.258162 0.547493 0.164191
H43   H     H_    0.388219 0.734082 0.452057 0.160453
Br1   Br    Br    0.834850 0.772065 0.870162 -0.406298
N1    N     N_R   0.626313 0.622216 0.769444 0.199907
O25   O     O_R   0.657334 0.562394 0.698340 -0.366534
O26   O     O_R   0.583937 0.581284 0.848034 -0.455929
Br2   Br    Br    0.210671 0.246597 0.968005 -0.403817
N2    N     N_R   0.665054 0.043331 0.846024 0.216857
O27   O     O_R   0.664531 0.072731 0.934381 -0.336195
O28   O     O_R   0.785340 0.997639 0.813326 -0.418443
Br3   Br    Br    0.321476 0.997451 0.857593 -0.368260
Br4   Br    Br    0.616297 0.356291 0.021291 -0.466734
Br5   Br    Br    0.091996 0.976118 0.073122 -0.390544

loop_
_geom_bond_atom_site_label_1
_geom_bond_atom_site_label_2
_geom_bond_distance
_ccdc_geom_bond_type
C30   H39   1.072089 S    
C19   C20   1.394266 A    
C12   H25   1.105159 S    
C24   C25   1.425495 A    
C5    H10   1.100386 S    
O5    C6    1.398842 S    
C26   C27   1.394398 A    
C4    C5    1.518888 S    
O6    P6    1.747990 S    
O7    Ba1   2.909407 S    
P3    C34   1.861292 S    
H1    C10   1.111243 S    
C28   C29   1.403410 A    
C17   C23   1.402429 A    
N2    O27   1.301510 A    
C10   H20   1.110959 S    
C32   C34   1.396552 A    
O16   Ba2   2.905670 S    
C14   H31   1.105839 S    
P3    O11   1.746078 S    
C33   H40   1.079342 S    
C11   C12   1.508078 S    
C7    H15   1.106051 S    
C4    H8    1.096809 S    
C1    H21   1.111055 S    
C18   C23   1.437372 A    
C33   C37   1.415989 A    
O2    Ba2   2.806761 S    
P5    O19   1.750090 S    
N2    O28   1.300173 A    
Ba2   O21   2.909639 S    
C33   C34   1.394358 A    
C25   C29   1.412451 A    
P1    Ba1   3.404008 S    
C35   C36   1.433207 A    
C11   H23   1.110336 S    
P1    O1    1.511526 D    
O10   C8    1.408743 S    
Ba1   O20   2.906446 S    
P6    C20   1.836747 S    
C37   C38   1.422853 A    
C31   H42   1.082450 S    
P2    O20   1.605631 S    
C15   C16   1.510212 S    
C9    H19   1.094764 S    
C7    H14   1.104942 S    
P5    O17   1.750494 S    
Ba1   O13   2.806195 S    
P2    O10   1.779734 S    
P8    C28   1.852128 S    
C2    C3    1.521058 S    
C1    H2    1.109949 S    
C24   C30   1.410019 A    
C36   C40   1.420892 A    
C9    H18   1.100057 S    
C12   H26   1.109915 S    
C24   C26   1.441007 A    
C19   H35   1.082128 S    
C5    H11   1.110240 S    
C32   H43   1.082247 S    
O6    C10   1.404674 S    
C39   C40   1.406883 A    
P4    O13   1.572520 S    
Ba2   O20   2.842652 S    
N1    O26   1.298558 A    
C32   C35   1.404357 A    
C14   H30   1.108168 S    
C21   H36   1.083204 S    
P7    O21   1.570087 D    
C4    O15   1.408901 S    
C6    C7    1.520003 S    
C7    H16   1.109038 S    
C4    H7    1.102054 S    
C8    C9    1.517257 S    
C31   C39   1.387849 A    
C15   H32   1.108960 S    
O11   C2    1.401572 S    
P1    O5    1.750778 S    
C11   H22   1.113365 S    
P1    O2    1.572639 S    
C6    H13   1.102900 S    
C13   C14   1.522597 S    
C17   C25   1.417485 A    
C15   H33   1.105415 S    
C3    Br5   1.936244 S    
C16   H34   1.104453 S    
P8    O24   1.736286 S    
P5    O18   1.547056 D    
C27   C28   1.396123 A    
O13   Ba2   2.920235 S    
C1    C10   1.521424 S    
O2    Ba1   2.919479 S    
C1    H3    1.108286 S    
O14   Ba2   2.808554 S    
P7    C38   1.845703 S    
C29   Br4   1.920586 S    
C14   Br2   1.907109 S    
P2    O7    1.500950 D    
O12   Ba2   2.852247 S    
P5    C39   1.852276 S    
P2    Ba1   3.435831 S    
O14   P8    1.741132 S    
Ba1   O16   2.843314 S    
O19   C13   1.409379 S    
C22   C30   1.416058 A    
P4    O12   1.511900 D    
P2    C35   1.876540 S    
O16   P7    1.768849 S    
P8    O23   1.545588 D    
P1    C18   1.880102 S    
C9    H17   1.101316 S    
C2    H5    1.103530 S    
C18   C19   1.395726 A    
O4    P6    1.542360 D    
C31   C38   1.389967 A    
N1    O25   1.294486 A    
O8    Ba1   2.805385 S    
C8    Br1   1.957113 S    
O17   Ba2   2.805964 S    
C16   N2    1.454166 S    
C6    H12   1.105244 S    
C2    H4    1.113852 S    
P3    O8    1.742541 S    
C13   H28   1.110337 S    
O3    P6    1.748147 S    
P4    C26   1.885782 S    
C36   C37   1.433828 A    
C15   O24   1.395606 S    
C22   C23   1.421224 A    
C11   O22   1.402589 S    
C8    N1    1.443743 S    
Ba1   Ba2   4.571323 S    
O3    Ba1   2.809147 S    
C12   H24   1.107377 S    
P4    Ba2   3.404459 S    
C20   C21   1.398470 A    
P3    O9    1.544114 D    
C13   H29   1.107732 S    
C5    H9    1.093373 S    
C3    H6    1.110355 S    
O1    Ba1   2.851741 S    
C16   Br3   1.952788 S    
P7    O22   1.740592 S    
C21   C22   1.406854 A    
C27   H37   1.081764 S    
C3    H27   1.110932 S    
C17   H38   1.075116 S    
P4    O15   1.754875 S    
C40   H41   1.075157 S    
