data_mof_unit_57880.cif
_audit_creation_date              2012-12-10T17:16:36-0500
_audit_creation_method            fapswitch 2.2
_symmetry_space_group_name_H-M    P1
_symmetry_Int_Tables_number       1
_space_group_crystal_system       triclinic
_cell_length_a                    10.070238
_cell_length_b                    10.646874
_cell_length_c                    10.835236
_cell_angle_alpha                 89.910425
_cell_angle_beta                  95.096657
_cell_angle_gamma                 82.157153
_cell_volume                      1146.18962991

loop_
_atom_site_label
_atom_site_type_symbol
_atom_type_description
_atom_site_fract_x
_atom_site_fract_y
_atom_site_fract_z
_atom_type_partial_charge
C1    C     C_R   0.443807 0.505166 0.267335 0.945254
C2    C     C_R   0.556033 0.488222 0.732657 0.942551
C3    C     C_2   0.411566 0.497104 0.135717 -0.383582
C4    C     C_2   0.587655 0.470718 0.864291 -0.377536
C5    C     C_2   0.511558 0.459443 0.065943 -0.155945
C6    C     C_2   0.486554 0.463376 0.934056 -0.144057
C7    C     C_2   0.071699 0.493298 0.486660 -0.132062
C8    C     C_2   0.928279 0.506780 0.513278 -0.130762
C9    C     C_R   0.493725 0.261129 0.482352 0.884834
C10   C     C_R   0.506213 0.738960 0.517418 0.890530
C11   C     C_R   0.706562 0.085124 0.375084 -0.127291
C12   C     C_R   0.292959 0.915268 0.623847 -0.127730
C13   C     C_R   0.833141 0.012879 0.377437 -0.158807
C14   C     C_R   0.166375 0.987550 0.621303 -0.158779
C15   C     C_R   0.860649 0.901682 0.447946 -0.152832
C16   C     C_R   0.138983 0.098690 0.550706 -0.154042
C17   C     C_R   0.758366 0.857953 0.507595 -0.126336
C18   C     C_R   0.241384 0.142330 0.491171 -0.126769
C19   C     C_R   0.626147 0.924613 0.496473 0.091077
C20   C     C_R   0.373557 0.075602 0.502460 0.091707
C21   C     C_R   0.605304 0.046244 0.443474 0.090114
C22   C     C_R   0.394342 0.954002 0.555507 0.089094
C23   C     C_R   0.514325 0.873708 0.536383 -0.267740
C24   C     C_R   0.485426 0.126518 0.462788 -0.265069
H1    H     H_    0.039031 0.152105 0.543443 0.147319
H2    H     H_    0.960626 0.848321 0.455104 0.147415
H3    H     H_    0.688272 0.171296 0.319386 0.140808
H4    H     H_    0.311147 0.829226 0.679721 0.143620
H5    H     H_    0.784253 0.773700 0.564924 0.136265
H6    H     H_    0.215702 0.226624 0.433866 0.136368
H7    H     H_    0.894473 0.566667 0.588276 0.148215
H8    H     H_    0.105482 0.433488 0.411605 0.148712
H9    H     H_    0.877864 0.392454 0.378076 0.151182
H10   H     H_    0.122152 0.607468 0.621982 0.152095
N1    N     N_2   0.157300 0.551390 0.551120 -0.196035
N2    N     N_2   0.842700 0.448610 0.448880 -0.195414
O1    O     O_R   0.568940 0.489660 0.307530 -0.615244
O2    O     O_R   0.431060 0.510340 0.692470 -0.618058
O3    O     O_R   0.348880 0.522640 0.340350 -0.615447
O4    O     O_R   0.651120 0.477360 0.659650 -0.616014
O5    O     O_R   0.610030 0.300280 0.483580 -0.609556
O6    O     O_R   0.389970 0.699720 0.516420 -0.607223
O7    O     O_R   0.389970 0.333270 0.516400 -0.611160
O8    O     O_R   0.610030 0.666730 0.483600 -0.608386
Zn1   Zn    Zn3+2 0.646940 0.477980 0.478080 0.932839
Zn2   Zn    Zn3+2 0.353060 0.522020 0.521920 0.931930
H11   H     H_    0.910883 0.045045 0.327422 0.134890
H12   H     H_    0.088557 0.955478 0.671286 0.135312
H13   H     H_    0.382662 0.468925 0.894552 0.188063
H14   H     H_    0.614927 0.433597 0.105450 0.184247
H15   H     H_    0.691268 0.465484 0.904202 0.147869
H16   H     H_    0.308478 0.523079 0.095805 0.149566

loop_
_geom_bond_atom_site_label_1
_geom_bond_atom_site_label_2
_ccdc_geom_bond_type
C1    C3    S    
C19   C23   A    
C3    H16   S    
C9    C24   S    
C15   C17   A    
C18   H6    S    
C11   H3    S    
C10   C23   S    
C10   O6    A    
C17   H5    S    
C2    O2    A    
C2    C4    S    
C10   O8    A    
C1    O1    A    
N2    Zn1   S    
C11   C13   A    
C5    C6    S    
C12   H4    S    
O3    Zn2   S    
C16   C18   A    
C19   C21   A    
C12   C14   A    
C18   C20   A    
C13   C15   A    
C6    H13   S    
O6    Zn2   S    
O4    Zn1   S    
O7    Zn2   S    
C14   C16   A    
C5    H14   S    
O2    Zn2   S    
C9    O7    A    
C1    O3    A    
C4    H15   S    
O1    Zn1   S    
C2    O4    A    
C7    C8    S    
H9    N2    S    
C12   C22   A    
O8    Zn1   S    
C4    C6    D    
H10   N1    S    
C8    N2    D    
C21   C24   A    
C16   H1    S    
C13   H11   S    
O5    Zn1   S    
C22   C23   A    
C15   H2    S    
C14   H12   S    
C7    H8    S    
C9    O5    A    
C17   C19   A    
N1    Zn2   S    
C7    N1    D    
C11   C21   A    
C8    H7    S    
C20   C24   A    
C20   C22   A    
C3    C5    D    
