data_mof_unit_41361.cif
_audit_creation_date              2012-10-26T18:25:41-0400
_audit_creation_method            fapswitch 2.2
_symmetry_space_group_name_H-M    P1
_symmetry_Int_Tables_number       1
_space_group_crystal_system       triclinic
_cell_length_a                    7.478754
_cell_length_b                    8.681171
_cell_length_c                    11.026342
_cell_angle_alpha                 89.05418
_cell_angle_beta                  72.098872
_cell_angle_gamma                 102.746457
_cell_volume                      661.68516198

loop_
_atom_site_label
_atom_site_type_symbol
_atom_type_description
_atom_site_fract_x
_atom_site_fract_y
_atom_site_fract_z
_atom_type_partial_charge
C1    C     C_R   0.452161 0.199709 0.503892 0.541547
C2    C     C_2   0.574705 0.968183 0.494198 -0.161275
C3    C     C_3   0.897998 0.718210 0.030455 -0.090703
C4    C     C_3   0.102010 0.281790 0.969552 -0.090706
C5    C     C_R   0.547839 0.800291 0.496108 0.541546
C6    C     C_R   0.421656 0.489203 0.742823 0.551697
C7    C     C_R   0.578345 0.510798 0.257177 0.551695
C8    C     C_2   0.374683 0.476084 0.881418 0.226283
C9    C     C_2   0.625317 0.523919 0.118582 0.226284
C10   C     C_2   0.519165 0.503466 0.931243 -0.131314
C11   C     C_2   0.480835 0.496541 0.068757 -0.131315
C12   C     C_2   0.425295 0.031817 0.505802 -0.161275
Cu1   Cu    Cu3+1 0.688910 0.517800 0.485820 0.953665
Cu2   Cu    Cu3+1 0.311090 0.482200 0.514180 0.953668
H1    H     H_    0.331305 0.469020 0.130731 0.170257
H2    H     H_    0.182476 0.213048 0.010620 0.085445
H3    H     H_    0.095981 0.240327 0.875652 0.119450
H4    H     H_    0.951338 0.257186 0.035705 0.167564
H5    H     H_    0.668695 0.530989 0.869269 0.170260
H6    H     H_    0.281266 0.960205 0.516761 0.133847
H7    H     H_    0.718734 0.039795 0.483239 0.133847
H8    H     H_    0.915868 0.374592 0.600746 0.237515
H9    H     H_    0.084132 0.625408 0.399254 0.237513
H10   H     H_    0.904035 0.759662 0.124358 0.119456
H11   H     H_    0.817531 0.786963 0.989397 0.085442
H12   H     H_    0.048668 0.742813 0.964300 0.167564
N1    N     N_2   0.027170 0.455360 0.535550 -0.254074
N2    N     N_2   0.972830 0.544640 0.464450 -0.254075
O1    O     O_R   0.622710 0.286400 0.490790 -0.503992
O2    O     O_3   0.183383 0.446200 0.959065 -0.534577
O3    O     O_R   0.377290 0.713600 0.509210 -0.503993
O4    O     O_R   0.303660 0.256330 0.514730 -0.504064
O5    O     O_R   0.696340 0.743670 0.485270 -0.504065
O6    O     O_R   0.600900 0.509520 0.671740 -0.537793
O7    O     O_R   0.399100 0.490480 0.328260 -0.537793
O8    O     O_R   0.281840 0.479450 0.695690 -0.469476
O9    O     O_R   0.718160 0.520550 0.304310 -0.469481
O10   O     O_3   0.816616 0.553802 0.040933 -0.534576

loop_
_geom_bond_atom_site_label_1
_geom_bond_atom_site_label_2
_ccdc_geom_bond_type
C4    H2    S    
Cu1   N2    S    
Cu1   O5    S    
Cu2   N1    S    
Cu2   O3    S    
Cu1   O9    S    
C10   H5    S    
C2    C12   D    
C12   H6    S    
C2    H7    S    
C1    O1    A    
C7    O9    A    
C8    O2    S    
Cu1   O6    S    
H9    N2    S    
C9    C11   D    
C3    H10   S    
C1    C12   S    
C11   H1    S    
C4    H3    S    
Cu1   O1    S    
C9    O10   S    
C6    O8    A    
H8    N1    S    
C1    O4    A    
Cu2   O8    S    
C2    C5    S    
C10   C11   S    
C3    H11   S    
C8    C10   D    
N1    N2    D    
C7    C9    S    
C6    C8    S    
Cu1   Cu2   S    
C7    O7    A    
C4    H4    S    
Cu2   O7    S    
C3    H12   S    
C4    O2    S    
C6    O6    A    
C3    O10   S    
Cu2   O4    S    
C5    O3    A    
C5    O5    A    
