data_mof_unit_68532.cif
_audit_creation_date              2012-12-11T18:22:24-0500
_audit_creation_method            fapswitch 2.2
_symmetry_space_group_name_H-M    P1
_symmetry_Int_Tables_number       1
_space_group_crystal_system       triclinic
_cell_length_a                    8.346357
_cell_length_b                    14.49159
_cell_length_c                    15.078975
_cell_angle_alpha                 95.652581
_cell_angle_beta                  97.136106
_cell_angle_gamma                 91.633434
_cell_volume                      1799.37091331

loop_
_atom_site_label
_atom_site_type_symbol
_atom_type_description
_atom_site_fract_x
_atom_site_fract_y
_atom_site_fract_z
_atom_type_partial_charge
Ba1   Ba    Ba6+2 0.833400 0.543310 0.453520 1.922848
Ba2   Ba    Ba6+2 0.356420 0.456770 0.546480 1.941094
C1    C     C_3   0.342279 0.810137 0.129436 -0.218454
C2    C     C_R   0.921574 0.437889 0.923277 -0.132377
C3    C     C_R   0.053995 0.456473 0.110089 -0.079816
C4    C     C_3   0.960357 0.756660 0.208335 0.254417
C5    C     C_R   0.914257 0.400589 0.078070 0.066189
C6    C     C_R   0.852502 0.389345 0.986664 -0.028780
C7    C     C_R   0.117183 0.468963 0.203860 -0.018114
C8    C     C_R   0.271544 0.510710 0.227602 0.335831
C9    C     C_R   0.075572 0.530215 0.796047 0.017153
C10   C     C_R   0.138739 0.542569 0.889944 -0.051557
C11   C     C_R   0.066991 0.491535 0.952401 0.049345
C12   C     C_3   0.450479 0.775171 0.209142 0.644623
C13   C     C_R   0.275461 0.600399 0.924062 -0.065269
C14   C     C_R   0.366645 0.584932 0.005158 -0.079437
C15   C     C_R   0.292951 0.541551 0.071728 -0.145698
C16   C     C_3   0.900786 0.795156 0.120484 -0.255101
C17   C     C_R   0.136997 0.497712 0.045253 0.011327
C18   C     C_R   0.362412 0.544076 0.163919 0.019372
C19   C     C_R   0.934460 0.474695 0.769663 0.294891
C20   C     C_R   0.699916 0.943772 0.565330 0.575165
C21   C     C_R   0.517820 0.803414 0.503382 0.123276
C22   C     C_R   0.376774 0.768791 0.448999 -0.111736
C23   C     C_3   0.470800 0.290418 0.271869 0.251820
C24   C     C_R   0.260949 0.828443 0.418589 0.007694
C25   C     C_R   0.297391 0.922957 0.426795 -0.039611
C26   C     C_R   0.446293 0.959921 0.471604 -0.121241
C27   C     C_R   0.555882 0.901581 0.515786 -0.205389
C28   C     C_3   0.191185 0.744070 0.639788 0.730405
C29   C     C_R   0.632729 0.095551 0.514571 -0.162532
C30   C     C_R   0.740805 0.038882 0.562800 -0.137912
C31   C     C_R   0.680823 0.190063 0.509313 0.020252
C32   C     C_R   0.833967 0.224371 0.548316 -0.134741
C33   C     C_R   0.943184 0.167588 0.591239 0.080648
C34   C     C_3   0.496134 0.256223 0.175391 -0.214214
C35   C     C_R   0.895262 0.076188 0.601506 -0.037249
C36   C     C_R   0.485290 0.054186 0.469866 0.704259
C37   C     C_3   0.261991 0.843863 0.660632 -0.287986
C38   C     C_3   0.952184 0.246376 0.328514 0.846077
C39   C     C_3   0.897899 0.151945 0.276147 -0.163734
C40   C     C_3   0.726412 0.662617 0.716989 0.283111
C41   C     C_3   0.769157 0.686813 0.818057 0.432106
C42   C     C_2   0.532041 0.854295 0.270708 0.853337
C43   C     C_2   0.184305 0.906549 0.728040 0.893335
C44   C     C_2   0.852454 0.083834 0.337002 0.789335
C45   C     C_3   0.149719 0.255065 0.802997 0.873729
C46   C     C_2   0.024759 0.111949 0.221836 0.920756
C47   C     C_2   0.384847 0.297210 0.105869 0.772851
C48   C     C_2   0.419598 0.881614 0.079831 0.912406
C49   C     C_2   0.541340 0.606537 0.009849 0.905168
C50   C     C_2   0.306000 0.690818 0.890832 0.945391
C51   C     C_3   0.120933 0.207936 0.885709 -0.154421
C52   C     C_3   0.616588 0.211778 0.765064 0.744344
C53   C     C_3   0.612646 0.121403 0.808636 0.574825
C54   C     C_R   0.849307 0.435661 0.832178 -0.030105
F1    F     F_    0.069165 0.236192 0.399923 -0.672163
F2    F     F_    0.381549 0.101829 0.417462 -0.603800
F3    F     F_    0.287044 0.693548 0.587189 -0.763938
F4    F     F_    0.929450 0.713822 0.838041 -0.714776
F5    F     F_    0.349407 0.729875 0.258394 -0.816749
F6    F     F_    0.258004 0.329574 0.827986 -0.712596
F7    F     F_    0.767502 0.222453 0.738391 -0.864718
F8    F     F_    0.473687 0.112755 0.848639 -0.660456
F9    F     F_    0.336944 0.516915 0.314982 -0.714697
F10   F     F_    0.874775 0.461171 0.681380 -0.739726
F11   F     F_    0.805400 0.893518 0.613648 -0.706435
H1    H     H_    0.392226 0.840662 0.686327 0.113547
H2    H     H_    0.291031 0.750585 0.082035 0.063799
H3    H     H_    0.339872 0.291416 0.278695 0.097777
H4    H     H_    0.527145 0.361457 0.288984 0.017417
H5    H     H_    0.476853 0.179477 0.164180 0.141249
H6    H     H_    0.622920 0.273224 0.165715 0.052532
H7    H     H_    0.982778 0.851839 0.106475 0.148373
H8    H     H_    0.033258 0.282096 0.775297 -0.037339
H9    H     H_    0.236569 0.185159 0.919602 0.203954
H10   H     H_    0.066990 0.256872 0.933660 0.066321
H11   H     H_    0.036672 0.146598 0.865997 0.088005
H12   H     H_    0.253213 0.877616 0.597719 -0.018546
H13   H     H_    0.523730 0.207107 0.705230 0.023487
H14   H     H_    0.718613 0.120525 0.860947 0.028544
H15   H     H_    0.617283 0.061557 0.757099 -0.006413
H16   H     H_    0.870332 0.704341 0.221780 0.116249
H17   H     H_    0.851403 0.363794 0.123081 0.089625
H18   H     H_    0.745035 0.345463 0.967394 0.152137
H19   H     H_    0.349513 0.694782 0.437091 0.151238
H20   H     H_    0.209582 0.967106 0.396444 0.209467
H21   H     H_    0.981648 0.033354 0.635827 0.135509
H22   H     H_    0.074727 0.721803 0.200817 0.049045
H23   H     H_    0.847018 0.280085 0.353871 -0.164272
H24   H     H_    0.871748 0.295113 0.541321 0.073400
H25   H     H_    0.892205 0.739093 0.064169 0.132443
H26   H     H_    0.781253 0.824599 0.125259 0.196985
H27   H     H_    0.069137 0.744624 0.602980 0.034497
H28   H     H_    0.710323 0.895120 0.369100 0.328373
H29   H     H_    0.982149 0.825040 0.729008 0.349507
H30   H     H_    0.927014 0.001355 0.432150 0.299323
H31   H     H_    0.252780 0.070033 0.220793 0.365766
H32   H     H_    0.363914 0.365963 0.995501 0.359173
H33   H     H_    0.420795 0.013080 0.046337 0.342420
H34   H     H_    0.789490 0.163211 0.228323 0.003597
H35   H     H_    0.762447 0.560987 0.011832 0.293276
H36   H     H_    0.251479 0.825397 0.892760 0.350217
H37   H     H_    0.833714 0.635891 0.687979 0.008079
H38   H     H_    0.628638 0.607842 0.705716 0.044164
H39   H     H_    0.239938 0.843794 0.157629 0.083571
H40   H     H_    0.745880 0.625594 0.854012 -0.032426
H41   H     H_    0.698175 0.745129 0.842843 0.176062
O1    O     O_2   0.841230 0.444160 0.280430 -0.513163
O2    O     O_2   0.273909 0.168583 0.576610 -0.444249
O3    O     O_3   0.213986 0.190852 0.742005 -0.577564
O4    O     O_3   0.112860 0.447350 0.393710 -0.392057
O5    O     O_3   0.560610 0.613730 0.540770 -0.435503
O6    O     O_2   0.387460 0.270290 0.467210 -0.333480
O7    O     O_3   0.544057 0.226898 0.326665 -0.582922
O8    O     O_2   0.517418 0.459876 0.828278 -0.427471
O9    O     O_3   0.585085 0.285683 0.827488 -0.555163
O10   O     O_3   0.597940 0.615700 0.327690 -0.373575
O11   O     O_2   0.706640 0.555859 0.178670 -0.499151
O12   O     O_3   0.674798 0.742143 0.677774 -0.594958
O13   O     O_3   0.017851 0.297632 0.267953 -0.671960
O14   O     O_3   0.571747 0.717850 0.178505 -0.632316
O15   O     O_2   0.802240 0.729740 0.532850 -0.436314
O16   O     O_3   0.017180 0.664790 0.371080 -0.470479
O17   O     O_2   0.948826 0.829696 0.446456 -0.471729
O18   O     O_2   0.478837 0.932022 0.271089 -0.582178
O19   O     O_R   0.665969 0.837138 0.330375 -0.719535
O20   O     O_2   0.251616 0.981497 0.755574 -0.508185
O21   O     O_R   0.038962 0.884088 0.759639 -0.640623
O22   O     O_2   0.713117 0.054248 0.329713 -0.577717
O23   O     O_3   0.979944 0.829383 0.277946 -0.569168
O24   O     O_R   0.969085 0.053687 0.400841 -0.715109
O25   O     O_2   0.993237 0.094716 0.140376 -0.571791
O26   O     O_R   0.178091 0.095657 0.264389 -0.630143
O27   O     O_2   0.239154 0.281762 0.100680 -0.619500
O28   O     O_R   0.449458 0.347830 0.043573 -0.724531
O29   O     O_2   0.528585 0.861380 0.035571 -0.553137
O30   O     O_R   0.361269 0.971190 0.082509 -0.715047
O31   O     O_2   0.592305 0.685988 0.008451 -0.591509
O32   O     O_R   0.647308 0.535056 0.007140 -0.725012
O33   O     O_2   0.420900 0.702432 0.849926 -0.620984
O34   O     O_2   0.348480 0.555870 0.719620 -0.439099
O35   O     O_R   0.212196 0.765492 0.913827 -0.673780
O36   O     O_3   0.076830 0.552730 0.606300 -0.412648
O37   O     O_3   0.591760 0.384380 0.672320 -0.419632
O38   O     O_3   0.185183 0.704861 0.720049 -0.629809
O39   O     O_3   0.629090 0.386350 0.459240 -0.476201
O40   O     O_3   0.172520 0.335290 0.628920 -0.441977
P1    P     P_3+3 0.018600 0.416790 0.295970 1.075968
P2    P     P_3+3 0.635660 0.716530 0.560900 1.147456
P3    P     P_3+3 0.054319 0.785245 0.378333 1.043434
P4    P     P_3+3 0.171090 0.583290 0.704030 1.168399
P5    P     P_3+3 0.149533 0.215186 0.632256 1.090400
P6    P     P_3+3 0.559155 0.604575 0.211133 1.111464
P7    P     P_3+3 0.563224 0.268808 0.440333 1.107184
P8    P     P_3+3 0.637517 0.392028 0.790125 1.143081

loop_
_geom_bond_atom_site_label_1
_geom_bond_atom_site_label_2
_ccdc_geom_bond_type
C42   O19   S    
C43   O21   S    
C12   O14   S    
C20   C27   A    
C19   F10   S    
Ba2   O36   S    
C37   H1    S    
C35   H21   S    
O23   P3    S    
C14   C49   S    
C54   P8    S    
C45   F6    S    
C48   O29   D    
C5    C6    A    
Ba2   O37   S    
C38   O13   S    
C7    P1    S    
C24   C25   A    
C20   C30   A    
C21   C27   A    
C46   O26   S    
C26   C27   A    
C1    H2    S    
C22   C24   A    
C32   C33   A    
C23   O7    S    
Ba1   O4    S    
C44   O24   S    
Ba2   O5    S    
C52   F7    S    
C43   O20   D    
Ba2   O40   S    
C13   C14   A    
C15   C18   A    
Ba1   Ba2   S    
O34   P4    D    
C2    C11   A    
C32   H24   S    
O17   P3    D    
Ba1   O1    S    
C36   F2    S    
O37   P8    S    
C8    C18   A    
C14   C15   A    
C28   C37   S    
C21   C22   A    
C29   C31   A    
Ba1   P1    S    
C23   H4    S    
C41   H41   S    
C53   H14   S    
O39   P7    S    
C7    C8    A    
C39   H34   S    
C2    C6    A    
C37   C43   S    
O7    P7    S    
C49   O32   S    
C5    H17   S    
C47   O27   D    
O15   P2    D    
C16   H7    S    
C53   F8    S    
O14   P6    S    
Ba1   O5    S    
C1    C48   S    
C28   O38   S    
C52   H13   S    
C1    H39   S    
Ba2   P4    S    
C4    C16   S    
C50   O35   S    
C11   C17   A    
C46   O25   D    
C3    C5    A    
Ba2   O4    S    
C41   H40   S    
Ba2   O39   S    
C13   C50   S    
C12   F5    S    
C6    H18   S    
H36   O35   S    
C37   H12   S    
O1    P1    D    
Ba1   O15   S    
C3    C7    A    
C29   C30   A    
C10   C13   A    
C26   C36   A    
C39   C44   S    
C42   O18   D    
C28   F3    S    
O9    P8    S    
C48   O30   S    
C31   C32   A    
Ba1   P2    S    
H35   O32   S    
C30   C35   A    
C53   H15   S    
C25   H20   S    
O3    P5    S    
C1    C12   S    
C18   P6    S    
C41   F4    S    
O38   P4    S    
C38   C39   S    
O16   P3    S    
O11   P6    D    
C51   H10   S    
Ba2   O34   S    
Ba1   O39   S    
C51   H9    S    
C40   C41   S    
O6    P7    D    
C38   F1    S    
C12   C42   S    
C8    F9    S    
C52   C53   S    
C24   P3    S    
C4    H16   S    
C33   C35   A    
C21   P2    S    
O5    P2    S    
O13   P1    S    
C33   P5    S    
H30   O24   S    
C4    O23   S    
C40   H37   S    
C44   O22   D    
C19   C54   A    
C47   O28   S    
C9    C10   A    
C31   P7    S    
C3    C17   A    
C4    H22   S    
H31   O26   S    
O12   P2    S    
C50   O33   D    
H33   O30   S    
C29   C36   A    
C45   C51   S    
C16   H25   S    
C51   H11   S    
Ba1   O16   S    
C45   H8    S    
O36   P4    S    
O2    P5    D    
Ba2   O6    S    
C40   O12   S    
C45   O3    S    
C15   C17   A    
C39   C46   S    
C9    C19   A    
H32   O28   S    
O10   P6    S    
Ba1   O10   S    
C40   H38   S    
C20   F11   S    
O8    P8    D    
C34   H6    S    
C23   C34   S    
H28   O19   S    
C9    P4    S    
C10   C11   A    
C28   H27   S    
O40   P5    S    
C52   O9    S    
C25   C26   A    
Ba1   O36   S    
C16   H26   S    
O4    P1    S    
C23   H3    S    
C38   H23   S    
C22   H19   S    
C2    C54   A    
C34   C47   S    
C34   H5    S    
H29   O21   S    
C49   O31   D    
