data_mof_unit_33658.cif
_audit_creation_date              2013-03-05T16:43:03-0500
_audit_creation_method            fapswitch 2.2
_symmetry_space_group_name_H-M    P1
_symmetry_Int_Tables_number       1
_space_group_crystal_system       triclinic
_cell_length_a                    10.693637
_cell_length_b                    10.659198
_cell_length_c                    9.908432
_cell_angle_alpha                 90.02772
_cell_angle_beta                  90.46487
_cell_angle_gamma                 90.60486
_cell_volume                      1129.31821919

loop_
_atom_site_label
_atom_site_type_symbol
_atom_site_description
_atom_site_fract_x
_atom_site_fract_y
_atom_site_fract_z
_atom_type_partial_charge
O1    O     O_R   0.500020 0.316790 0.614690 -0.599639
O2    O     O_R   0.500000 0.316760 0.385350 -0.613229
C1    C     C_R   0.505028 0.260103 0.499923 0.976291
O3    O     O_R   0.314800 0.500000 0.614670 -0.627880
O4    O     O_R   0.314790 0.499960 0.385330 -0.595457
C2    C     C_R   0.258480 0.488213 0.499301 0.993431
Zn1   Zn    Zn3+2 0.500010 0.500020 0.653130 1.032148
Zn2   Zn    Zn3+2 0.499990 0.499980 0.346870 1.058257
O5    O     O_R   0.500000 0.683240 0.614650 -0.626413
O6    O     O_R   0.499980 0.683210 0.385310 -0.582603
O7    O     O_R   0.685210 0.500040 0.614670 -0.599068
O8    O     O_R   0.685200 0.500000 0.385330 -0.613347
C3    C     C_R   0.505093 0.739964 0.499854 0.908984
C4    C     C_R   0.741770 0.494380 0.500734 0.931563
C5    C     C_3   0.071623 0.406467 0.624024 0.071581
H1    H     H_    0.107170 0.458255 0.712760 0.156425
C6    C     C_3   0.927165 0.412210 0.628924 0.055528
H2    H     H_    0.886178 0.316431 0.622528 0.213345
H3    H     H_    0.110042 0.660896 0.602592 0.209340
H4    H     H_    0.901074 0.671930 0.593211 0.211727
C7    C     C_3   0.076483 0.617232 0.506506 -0.542831
C8    C     C_3   0.066869 0.419372 0.364262 0.102848
C9    C     C_3   0.121584 0.478924 0.497840 -0.206404
H5    H     H_    0.087934 0.487361 0.282760 0.147149
C10   C     C_3   0.877959 0.486596 0.501663 -0.281263
C11   C     C_3   0.932965 0.622833 0.501037 0.103521
C12   C     C_3   0.922060 0.413118 0.373171 0.137598
H6    H     H_    0.884564 0.457469 0.280085 0.192898
H7    H     H_    0.118343 0.674495 0.424073 0.262042
C13   C     C_R   0.553975 0.064527 0.617247 0.083205
C14   C     C_R   0.527708 0.129034 0.498198 -0.086018
C15   C     C_R   0.529134 0.064964 0.374482 -0.093448
H8    H     H_    0.519503 0.113228 0.278814 0.197127
C16   C     C_R   0.529227 0.935558 0.374382 -0.065986
H9    H     H_    0.519427 0.887073 0.278709 0.224751
C17   C     C_R   0.528355 0.871414 0.497994 -0.145823
C18   C     C_R   0.555200 0.936337 0.616948 0.126758
C19   C     C_3   0.498401 0.928248 0.754551 0.113273
C20   C     C_3   0.497218 0.070924 0.754601 -0.476528
H10   H     H_    0.404208 0.882900 0.755501 0.137091
H11   H     H_    0.401231 0.109174 0.753372 0.248212
H12   H     H_    0.561906 0.115188 0.829566 0.245742
C21   C     C_R   0.402479 0.449179 0.070257 0.125730
N1    N     N_R   0.499150 0.499140 0.142800 -0.113573
C22   C     C_R   0.599720 0.544603 0.072708 -0.004101
H13   H     H_    0.679311 0.583294 0.127089 0.191622
C23   C     C_R   0.599053 0.545823 0.929159 0.037563
H14   H     H_    0.677438 0.586448 0.876234 0.225723
N2    N     N_R   0.499150 0.499180 0.857150 -0.127213
C24   C     C_R   0.403888 0.445565 0.928033 0.152368
C25   C     C_3   0.270903 0.483804 0.919582 -0.453928
C26   C     C_3   0.271434 0.494662 0.070986 0.192378
H15   H     H_    0.256959 0.573745 0.864878 0.243714
H16   H     H_    0.210995 0.403932 0.887234 0.217892
H17   H     H_    0.207063 0.426870 0.117796 0.156931
N3    N     N_R   0.889218 0.697645 0.385288 0.225525
O9    O     O_R   0.814152 0.790920 0.405616 -0.336437
O10   O     O_R   0.932686 0.680090 0.264492 -0.339197
N4    N     N_R   0.583789 0.878011 0.856811 0.244347
O11   O     O_R   0.692789 0.834517 0.824159 -0.332441
O12   O     O_R   0.549297 0.874588 0.982328 -0.360326
N5    N     N_R   0.118648 0.277296 0.633807 0.240268
O13   O     O_R   0.228192 0.257558 0.686959 -0.407282
O14   O     O_R   0.053216 0.181129 0.591522 -0.265958
Cl1   Cl    Cl    0.257644 0.653805 0.126704 -0.494763
N6    N     N_R   0.887344 0.462425 0.760285 0.203086
O15   O     O_R   0.927217 0.570885 0.804290 -0.386517
O16   O     O_R   0.827706 0.388846 0.843132 -0.363822
N7    N     N_R   0.121235 0.298399 0.322934 0.259920
O17   O     O_R   0.084985 0.247603 0.209465 -0.295051
O18   O     O_R   0.218588 0.251661 0.383317 -0.351455
Cl2   Cl    Cl    0.855914 0.256245 0.366604 -0.469901

loop_
_geom_bond_atom_site_label_1
_geom_bond_atom_site_label_2
_geom_bond_distance
_ccdc_geom_bond_type
C6    H2    1.108359 S    
O4    Zn2   2.019824 S    
N6    O16   1.301625 A    
C21   N1    1.358265 A    
C12   Cl2   1.809640 S    
C21   C24   1.409926 A    
C5    C6    1.547790 S    
C18   C19   1.499243 S    
C10   C12   1.572682 S    
C8    N7    1.479059 S    
Zn1   O7    2.019822 S    
C14   C15   1.403215 A    
C26   H17   1.098246 S    
Zn2   O8    2.013855 S    
C25   H16   1.105829 S    
C6    C10   1.579431 S    
C15   H8    1.083435 S    
C5    C9    1.564676 S    
O2    C1    1.287144 A    
N4    O11   1.302158 A    
C20   H11   1.108427 S    
C13   C18   1.366610 A    
C22   H13   1.081557 S    
N1    C22   1.369381 A    
C1    C14   1.420629 S    
C19   H10   1.112748 S    
C6    N6    1.474815 S    
N5    O13   1.299682 A    
H4    C11   1.110257 S    
O3    Zn1   2.013857 S    
O4    C2    1.289614 A    
C8    H5    1.108219 S    
O3    C2    1.293191 A    
C17   C18   1.392854 A    
H3    C7    1.114595 S    
C7    C11   1.537042 S    
O8    C4    1.291004 A    
C13   C20   1.496465 S    
C24   C25   1.485210 S    
C20   H12   1.112336 S    
C16   C17   1.403059 A    
C8    C12   1.552492 S    
C7    C9    1.558514 S    
C4    C10   1.459545 S    
C13   C14   1.393770 A    
C16   H9    1.083282 S    
O7    C4    1.286749 A    
N7    O17   1.302074 A    
C21   C26   1.487737 S    
N4    O12   1.300507 A    
N7    O18   1.300418 A    
C2    C9    1.466168 S    
C11   N3    1.473142 S    
C5    H1    1.100884 S    
C23   H14   1.079270 S    
Zn2   N1    2.021976 S    
C12   H6    1.110585 S    
C19   C20   1.520997 S    
N3    O9    1.301053 A    
Zn1   N2    2.021638 S    
C3    C17   1.420629 S    
C23   N2    1.368814 A    
N2    C24   1.362839 A    
C22   C23   1.422376 A    
N6    O15   1.301756 A    
Zn1   O5    1.990029 S    
O5    C3    1.289691 A    
C8    C9    1.573483 S    
N5    O14   1.302136 A    
O1    C1    1.289227 A    
C10   C11   1.561045 S    
O1    Zn1   1.989697 S    
C7    H7    1.113870 S    
C5    N5    1.473762 S    
Zn2   O6    1.989697 S    
O2    Zn2   1.990029 S    
C26   Cl1   1.791591 S    
C25   C26   1.504535 S    
C19   N4    1.463897 S    
N3    O10   1.301653 A    
C25   H15   1.112357 S    
O6    C3    1.286357 A    
C15   C16   1.379372 A    
