data_mof_unit_30714.cif
_audit_creation_date              2012-12-10T17:38:50-0500
_audit_creation_method            fapswitch 2.2
_symmetry_space_group_name_H-M    P1
_symmetry_Int_Tables_number       1
_space_group_crystal_system       triclinic
_cell_length_a                    12.382684
_cell_length_b                    13.193069
_cell_length_c                    23.468811
_cell_angle_alpha                 76.939723
_cell_angle_beta                  100.9816
_cell_angle_gamma                 116.678069
_cell_volume                      3319.72042015

loop_
_atom_site_label
_atom_site_type_symbol
_atom_type_description
_atom_site_fract_x
_atom_site_fract_y
_atom_site_fract_z
_atom_type_partial_charge
C1    C     C_R   0.855106 0.286305 0.509551 0.904066
C2    C     C_R   0.080462 0.346703 0.056963 0.404289
C3    C     C_R   0.072676 0.341340 0.997167 0.373787
C4    C     C_R   0.032880 0.414299 0.953338 -0.202296
C5    C     C_R   0.990450 0.484644 0.970658 -0.048053
C6    C     C_R   0.944681 0.553512 0.927581 0.003354
C7    C     C_R   0.901477 0.622583 0.944773 -0.117387
C8    C     C_R   0.905309 0.625386 0.003960 -0.116194
C9    C     C_R   0.037189 0.422216 0.892597 0.629690
C10   C     C_R   0.944006 0.552476 0.868008 0.627691
C11   C     C_R   0.081673 0.587311 0.758407 0.401948
C12   C     C_R   0.999270 0.499236 0.608554 0.848854
C13   C     C_R   0.082788 0.589264 0.698499 0.269445
C14   C     C_R   0.996743 0.495919 0.670971 -0.283484
C15   C     C_R   0.909785 0.399775 0.703872 0.355608
C16   C     C_R   0.909189 0.400273 0.763127 -0.126029
C17   C     C_R   0.994061 0.492772 0.790499 0.097659
C18   C     C_R   0.897663 0.444438 0.236283 -0.139249
C19   C     C_R   0.897714 0.447986 0.295017 -0.180389
C20   C     C_R   0.005770 0.508665 0.328206 -0.180580
C21   C     C_R   0.114811 0.572273 0.300664 0.356768
C22   C     C_R   0.114384 0.566280 0.241670 0.437852
C23   C     C_R   0.144774 0.713785 0.495600 0.919535
C24   C     C_R   0.005669 0.502131 0.209555 0.163097
C25   C     C_R   0.280194 0.034574 0.446540 0.395402
C26   C     C_R   0.227600 0.837480 0.494996 -0.248346
C27   C     C_R   0.806879 0.104917 0.580055 0.284305
C28   C     C_R   0.716633 0.006007 0.609164 0.390803
C29   C     C_R   0.595428 0.972889 0.587047 -0.134892
C30   C     C_R   0.561161 0.022586 0.531034 -0.021588
C31   C     C_R   0.651324 0.119732 0.500408 -0.008170
C32   C     C_R   0.438121 0.982252 0.505794 -0.009164
C33   C     C_R   0.404053 0.057605 0.461168 -0.123377
C34   C     C_R   0.002312 0.503271 0.391090 0.839080
C35   C     C_R   0.493441 0.148968 0.429274 -0.244763
C36   C     C_R   0.616105 0.172553 0.445085 0.475484
C37   C     C_R   0.349024 0.868122 0.520113 0.383011
C38   C     C_R   0.192007 0.925273 0.465357 0.337137
C39   C     C_R   0.773069 0.164480 0.526883 -0.144488
C40   C     C_R   0.355704 0.348639 0.605097 0.362832
C41   C     C_R   0.757438 0.647532 0.420834 0.538372
C42   C     C_R   0.675371 0.695238 0.413543 -0.241964
C43   C     C_R   0.583174 0.650779 0.449827 0.421456
C44   C     C_R   0.561054 0.545830 0.488881 -0.053797
C45   C     C_R   0.957589 0.562701 0.106906 0.597346
C46   C     C_R   0.656186 0.508487 0.500330 0.088750
C47   C     C_R   0.453506 0.481185 0.519540 -0.094211
C48   C     C_R   0.454195 0.397957 0.569743 -0.134352
C49   C     C_R   0.550001 0.363445 0.581009 0.344781
C50   C     C_R   0.647654 0.418262 0.547010 -0.158924
C51   C     C_R   0.342051 0.490642 0.499613 0.588424
C52   C     C_R   0.253096 0.369843 0.585458 0.046379
C53   C     C_R   0.044031 0.426989 0.134370 0.673196
C54   C     C_R   0.040893 0.419616 0.074679 -0.208153
C55   C     C_R   0.994235 0.487234 0.030974 -0.056609
C56   C     C_R   0.952003 0.558846 0.047328 0.008415
Cu1   Cu    Cu3+1 0.098270 0.475410 0.513370 1.045254
Cu2   Cu    Cu3+1 0.901730 0.524590 0.486630 1.036347
H1    H     H_    0.813299 0.401927 0.314787 0.194978
H2    H     H_    0.467976 0.196814 0.389404 0.166746
H3    H     H_    0.528574 0.907526 0.614912 0.246389
H4    H     H_    0.178763 0.333071 0.612576 0.199166
H5    H     H_    0.688136 0.772230 0.381629 0.236336
H6    H     H_    0.716028 0.387318 0.559095 0.206793
H7    H     H_    0.865598 0.675704 0.912515 0.204728
H8    H     H_    0.872006 0.680442 0.015579 0.204781
H9    H     H_    0.842766 0.327316 0.788489 0.203423
H10   H     H_    0.813492 0.396185 0.211404 0.186786
N1    N     N_R   0.003198 0.497740 0.148764 -0.455499
N2    N     N_R   0.991526 0.488991 0.851828 -0.437984
N3    N     N_R   0.246280 0.438190 0.533650 -0.273993
N4    N     N_R   0.754320 0.561190 0.466710 -0.233478
O1    O     O_R   0.972510 0.318130 0.516820 -0.522784
O2    O     O_2   0.086687 0.364406 0.178064 -0.418553
O3    O     O_2   0.089674 0.366957 0.874073 -0.468162
O4    O     O_2   0.897486 0.615368 0.826410 -0.486024
O5    O     O_R   0.806530 0.359650 0.494230 -0.603534
O6    O     O_R   0.082990 0.479200 0.593420 -0.560659
O7    O     O_R   0.917010 0.520720 0.570830 -0.595617
O8    O     O_R   0.193470 0.640350 0.505770 -0.560762
O9    O     O_R   0.027490 0.681870 0.483180 -0.516975
O10   O     O_R   0.082990 0.479280 0.429170 -0.574186
O11   O     O_R   0.917010 0.520800 0.406580 -0.522457
O12   O     O_2   0.918235 0.631300 0.123088 -0.482511
Cl1   Cl    Cl    0.137175 0.255570 0.107399 -0.366533
O13   O     O_3   0.221211 0.644235 0.328866 -0.614701
H11   H     H_    0.200763 0.668864 0.360614 0.317047
Cl2   Cl    Cl    0.249478 0.644588 0.207163 -0.420442
Cl3   Cl    Cl    0.039126 0.904861 0.452586 -0.418500
O14   O     O_3   0.242162 0.115944 0.413661 -0.623365
H12   H     H_    0.306562 0.193516 0.418472 0.334689
O15   O     O_3   0.378494 0.782615 0.554580 -0.655458
H13   H     H_    0.457105 0.793209 0.544375 0.362218
O16   O     O_3   0.925524 0.151737 0.605408 -0.710830
H14   H     H_    0.926480 0.132075 0.648739 0.351481
O17   O     O_3   0.742461 0.942065 0.660537 -0.664897
H15   H     H_    0.825725 0.948944 0.661350 0.356056
O18   O     O_3   0.102709 0.261823 0.983192 -0.599192
H16   H     H_    0.034942 0.217915 0.955677 0.360583
O19   O     O_3   0.701770 0.245294 0.406897 -0.727042
H17   H     H_    0.660473 0.272111 0.370298 0.321660
Cl4   Cl    Cl    0.544855 0.238809 0.630429 -0.511055
O20   O     O_3   0.359069 0.286574 0.660520 -0.629457
H18   H     H_    0.441508 0.325992 0.680446 0.373945
O21   O     O_3   0.325589 0.540171 0.442735 -0.647303
H19   H     H_    0.287585 0.590757 0.444205 0.379339
Cl5   Cl    Cl    0.868195 0.710039 0.371081 -0.475470
Cl6   Cl    Cl    0.524000 0.747565 0.454096 -0.600393
Cl7   Cl    Cl    0.190864 0.702009 0.793904 -0.411726
Cl8   Cl    Cl    0.191474 0.709543 0.657880 -0.450869
O22   O     O_3   0.825487 0.303120 0.680793 -0.651686
H20   H     H_    0.839755 0.308449 0.639982 0.310996

loop_
_geom_bond_atom_site_label_1
_geom_bond_atom_site_label_2
_ccdc_geom_bond_type
C55   C56   A    
C8    H8    S    
C11   Cl7   S    
C50   H6    S    
C41   C42   A    
C35   C36   A    
C53   N1    A    
C8    C56   A    
O14   H12   S    
C7    C8    A    
C53   C54   A    
C38   Cl3   S    
C25   O14   S    
C13   Cl8   S    
C18   C24   A    
C28   C29   A    
C5    C6    A    
C18   H10   S    
C15   C16   A    
C12   O7    A    
C1    O5    A    
C2    Cl1   S    
C18   C19   A    
C23   C26   S    
Cu1   O1    S    
O15   H13   S    
Cu2   O5    S    
C21   O13   S    
C10   O4    S    
C19   C20   A    
C45   C56   A    
C27   C39   A    
C16   C17   A    
C12   O6    A    
C22   Cl2   S    
C23   O8    A    
C23   O9    A    
C46   N4    A    
C37   O15   S    
C44   C47   A    
C20   C34   S    
C17   N2    S    
C21   C22   A    
Cu1   O8    S    
C51   N3    A    
C44   C46   A    
C24   N1    S    
C29   H3    S    
C45   N1    A    
C15   O22   S    
C9    N2    A    
C2    C54   A    
Cu2   O9    S    
C49   Cl4   S    
O13   H11   S    
C26   C38   A    
C47   C51   A    
C19   H1    S    
C40   C52   A    
C35   H2    S    
C43   C44   A    
C29   C30   A    
C25   C38   A    
C7    H7    S    
C47   C48   A    
C14   C15   A    
C51   O21   S    
O17   H15   S    
C36   O19   S    
C16   H9    S    
C32   C37   A    
Cu1   N3    S    
Cu2   O7    S    
C41   N4    A    
C10   N2    A    
C48   C49   A    
C12   C14   S    
O18   H16   S    
C22   C24   A    
C45   O12   S    
C34   O11   A    
C3    C4    A    
O20   H18   S    
C40   C48   A    
C54   C55   A    
C11   C17   A    
C41   Cl5   S    
O22   H20   S    
C31   C36   A    
Cu1   O6    S    
C5    C55   A    
C4    C5    A    
C6    C10   A    
C26   C37   A    
C6    C7    A    
C34   O10   A    
O21   H19   S    
C46   C50   A    
C28   O17   S    
C1    O1    A    
C32   C33   A    
C2    C3    A    
C52   N3    A    
C52   H4    S    
Cu2   O11   S    
C40   O20   S    
C30   C32   A    
C11   C13   A    
C3    O18   S    
Cu2   N4    S    
Cu1   Cu2   S    
C30   C31   A    
O19   H17   S    
C33   C35   A    
C31   C39   A    
C43   Cl6   S    
O16   H14   S    
C1    C39   S    
C20   C21   A    
C49   C50   A    
C42   C43   A    
C27   C28   A    
Cu1   O10   S    
C27   O16   S    
C9    O3    S    
C4    C9    A    
C13   C14   A    
C42   H5    S    
C25   C33   A    
C53   O2    S    
