data_mof_unit_35155.cif
_audit_creation_date              2012-12-10T19:03:41-0500
_audit_creation_method            fapswitch 2.2
_symmetry_space_group_name_H-M    P1
_symmetry_Int_Tables_number       1
_space_group_crystal_system       triclinic
_cell_length_a                    15.8894
_cell_length_b                    10.832374
_cell_length_c                    9.541344
_cell_angle_alpha                 89.813564
_cell_angle_beta                  89.86087
_cell_angle_gamma                 90.159407
_cell_volume                      1642.23547073

loop_
_atom_site_label
_atom_site_type_symbol
_atom_type_description
_atom_site_fract_x
_atom_site_fract_y
_atom_site_fract_z
_atom_type_partial_charge
C1    C     C_R   0.501164 0.262405 0.500197 0.793916
C2    C     C_3   0.950809 0.390196 0.592349 0.358539
C3    C     C_3   0.916877 0.499169 0.500568 0.220599
C4    C     C_3   0.951724 0.624918 0.552144 -0.408079
C5    C     C_3   0.049265 0.622310 0.556964 -0.457024
C6    C     C_1   0.824768 0.500279 0.499882 -0.029951
C7    C     C_1   0.175096 0.498592 0.501074 -0.038879
C8    C     C_1   0.250602 0.499386 0.500732 -0.186413
C9    C     C_R   0.502814 0.063460 0.626219 0.077746
C10   C     C_R   0.508090 0.129432 0.500669 -0.077904
C11   C     C_R   0.522435 0.064990 0.375346 -0.217337
C12   C     C_R   0.340216 0.499976 0.500230 0.817624
C13   C     C_R   0.521082 0.936419 0.375073 -0.227222
C14   C     C_R   0.505729 0.871000 0.500014 -0.090082
C15   C     C_R   0.500758 0.936299 0.625794 0.056996
C16   C     C_3   0.436638 0.932794 0.742080 -0.035069
C17   C     C_3   0.440188 0.073218 0.742709 -0.440871
C18   C     C_R   0.569071 0.539572 0.073081 0.263204
C19   C     C_R   0.435641 0.448440 0.074845 -0.094057
C20   C     C_R   0.435615 0.448487 0.926000 -0.081746
C21   C     C_R   0.569221 0.538968 0.925750 0.210742
C22   C     C_3   0.609788 0.662890 0.917751 -0.569890
C23   C     C_R   0.500267 0.737707 0.499856 0.787341
C24   C     C_3   0.608316 0.664680 0.077362 0.224270
C25   C     C_R   0.659756 0.500427 0.499816 0.832729
C26   C     C_3   0.049243 0.393450 0.599050 -0.474931
C27   C     C_3   0.048590 0.479771 0.348717 0.017337
C28   C     C_3   0.950396 0.480385 0.349165 -0.524727
C29   C     C_1   0.749302 0.500564 0.499636 -0.147177
C30   C     C_3   0.082884 0.497329 0.500920 0.275730
Cu1   Cu    Cu3+1 0.500000 0.499980 0.640670 0.940799
Cu2   Cu    Cu3+1 0.500000 0.500020 0.359330 0.956636
H1    H     H_    0.935780 0.304802 0.532572 0.096231
H2    H     H_    0.074271 0.407639 0.706120 0.150451
H3    H     H_    0.931650 0.699473 0.479110 0.171193
H4    H     H_    0.531016 0.113357 0.276782 0.163356
H5    H     H_    0.528530 0.889175 0.276374 0.144343
H6    H     H_    0.460072 0.889943 0.840499 0.149599
H7    H     H_    0.380942 0.119344 0.709651 0.198537
H8    H     H_    0.468952 0.111293 0.839523 0.173286
H9    H     H_    0.382943 0.408253 0.130668 0.154252
H10   H     H_    0.074750 0.302513 0.566134 0.152572
H11   H     H_    0.382905 0.408357 0.870862 0.143845
H12   H     H_    0.674101 0.658143 0.871919 0.211642
H13   H     H_    0.568427 0.733821 0.870029 0.174966
H14   H     H_    0.565123 0.734315 0.123606 0.075197
H15   H     H_    0.070541 0.559880 0.284533 0.148560
H16   H     H_    0.924602 0.393325 0.304593 0.171054
H17   H     H_    0.927812 0.556238 0.280132 0.178489
H18   H     H_    0.071037 0.637440 0.666316 0.171734
H19   H     H_    0.074783 0.699824 0.492655 0.171787
H20   H     H_    0.924974 0.650111 0.655633 0.174531
N1    N     N_R   0.500530 0.500930 0.147930 -0.220282
N2    N     N_R   0.500530 0.500890 0.852020 -0.182128
O1    O     O_R   0.500000 0.319640 0.618810 -0.576372
O2    O     O_R   0.500010 0.319680 0.381230 -0.586771
O3    O     O_R   0.379430 0.499990 0.618840 -0.589124
O4    O     O_R   0.379440 0.500030 0.381260 -0.576431
O5    O     O_R   0.499990 0.680320 0.618770 -0.586304
O6    O     O_R   0.500000 0.680360 0.381190 -0.587573
O7    O     O_R   0.620560 0.499970 0.618740 -0.573312
O8    O     O_R   0.620570 0.500010 0.381160 -0.546429
O9    O     O_3   0.905881 0.373913 0.720998 -0.575856
C31   C     C_3   0.938382 0.437952 0.837973 0.063117
H21   H     H_    0.974548 0.522052 0.810964 0.134103
H22   H     H_    0.980112 0.374993 0.898033 0.145237
C32   C     C_3   0.865783 0.475930 0.932554 -0.752250
H23   H     H_    0.829396 0.393289 0.966275 0.254870
H24   H     H_    0.890610 0.523203 0.026849 0.191638
H25   H     H_    0.823366 0.540029 0.875562 0.247765
N3    N     N_3   0.354018 0.885786 0.699178 -0.575673
H26   H     H_    0.357337 0.789574 0.694167 0.233660
H27   H     H_    0.339036 0.917855 0.598690 0.227884
O10   O     O_3   0.689658 0.658814 0.136242 -0.546263
C33   C     C_3   0.719285 0.779745 0.160543 0.094286
H28   H     H_    0.680138 0.826047 0.241638 0.138704
H29   H     H_    0.718855 0.835558 0.062220 0.137700
C34   C     C_3   0.809148 0.773879 0.214172 -0.820945
H30   H     H_    0.850320 0.729236 0.135126 0.239933
H31   H     H_    0.832926 0.868612 0.234489 0.198975
H32   H     H_    0.811099 0.720124 0.313259 0.246574
N4    N     N_3   0.081945 0.367359 0.283678 -0.596394
H33   H     H_    0.052904 0.289468 0.327300 0.218156
H34   H     H_    0.066104 0.368725 0.177320 0.211029

loop_
_geom_bond_atom_site_label_1
_geom_bond_atom_site_label_2
_ccdc_geom_bond_type
C18   C21   A    
Cu1   O7    S    
C19   C20   A    
Cu2   O4    S    
C3    C6    S    
C7    C8    T    
C23   O5    A    
C4    H20   S    
C18   C24   S    
C11   H4    S    
C1    O2    A    
C21   N2    A    
C34   H31   S    
C15   C16   S    
C17   H7    S    
Cu1   O5    S    
C18   N1    A    
C26   H2    S    
C28   H16   S    
C16   C17   S    
C9    C10   A    
C13   H5    S    
C12   O4    A    
C19   N1    A    
C4    H3    S    
C7    C30   S    
C13   C14   A    
C27   C30   S    
C16   N3    S    
C25   C29   S    
C23   O6    A    
C22   H12   S    
O10   C33   S    
C32   H23   S    
C31   C32   S    
C20   N2    A    
N3    H27   S    
C34   H30   S    
C32   H24   S    
C17   H8    S    
C31   H22   S    
C14   C23   S    
C33   H28   S    
C28   H17   S    
Cu1   Cu2   S    
C8    C12   S    
C6    C29   T    
C2    C26   S    
C25   O7    A    
C33   H29   S    
C12   O3    A    
C2    H1    S    
C9    C17   S    
C26   C30   S    
N4    H34   S    
C22   C24   S    
C5    H18   S    
Cu2   O6    S    
C3    C4    S    
Cu2   N1    S    
C20   H11   S    
C2    O9    S    
C26   H10   S    
C5    C30   S    
C27   H15   S    
C3    C28   S    
C27   N4    S    
C1    C10   S    
C4    C5    S    
C32   H25   S    
C24   H14   S    
C31   H21   S    
Cu1   O3    S    
C2    C3    S    
C1    O1    A    
Cu2   O8    S    
N3    H26   S    
C11   C13   A    
C34   H32   S    
C24   O10   S    
C25   O8    A    
Cu1   N2    S    
C9    C15   A    
C33   C34   S    
C10   C11   A    
O9    C31   S    
C22   H13   S    
N4    H33   S    
C27   C28   S    
C14   C15   A    
C5    H19   S    
Cu1   O1    S    
C21   C22   S    
Cu2   O2    S    
C19   H9    S    
C16   H6    S    
