data_mof_unit_18489.cif
_audit_creation_date              2013-03-05T16:31:38-0500
_audit_creation_method            fapswitch 2.2
_symmetry_space_group_name_H-M    P1
_symmetry_Int_Tables_number       1
_space_group_crystal_system       triclinic
_cell_length_a                    9.621107
_cell_length_b                    10.765492
_cell_length_c                    15.401003
_cell_angle_alpha                 88.348286
_cell_angle_beta                  74.492543
_cell_angle_gamma                 89.488927
_cell_volume                      1536.46241556

loop_
_atom_site_label
_atom_site_type_symbol
_atom_site_description
_atom_site_fract_x
_atom_site_fract_y
_atom_site_fract_z
_atom_type_partial_charge
O1    O     O_R   0.118810 0.319640 0.500000 -0.644121
O2    O     O_R   0.881230 0.319680 0.499990 -0.499047
C1    C     C_R   0.999312 0.262803 0.503268 0.922056
O3    O     O_R   0.055580 0.499970 0.629840 -0.575088
O4    O     O_R   0.818000 0.500010 0.629830 -0.493962
C2    C     C_R   0.918896 0.498969 0.672842 0.900022
Cu1   Cu    Cu3+1 0.140670 0.499980 0.500000 0.992913
Cu2   Cu    Cu3+1 0.859330 0.500020 0.500000 1.101521
O5    O     O_R   0.118770 0.680320 0.500010 -0.575957
O6    O     O_R   0.881190 0.680360 0.500000 -0.521179
O7    O     O_R   0.182000 0.499990 0.370170 -0.589691
O8    O     O_R   0.944420 0.500030 0.370160 -0.596811
C3    C     C_R   0.999815 0.737201 0.499163 0.873132
C4    C     C_R   0.081922 0.505075 0.326816 0.805975
C5    C     C_R   0.874108 0.483442 0.772834 -0.100176
C6    C     C_R   0.126648 0.517697 0.225585 -0.123811
C7    C     C_R   0.886410 0.370199 0.909758 0.494772
C8    C     C_R   0.954589 0.414660 0.822651 -0.090707
C9    C     C_R   0.734470 0.520965 0.817022 -0.154241
C10   C     C_R   0.660363 0.469661 0.901673 0.038021
C11   C     C_R   0.740411 0.395727 0.948856 0.016612
C12   C     C_R   0.510386 0.492070 0.942243 0.091900
C13   C     C_R   0.455257 0.464498 0.035727 0.085632
C14   C     C_R   0.535073 0.384688 0.078542 -0.204614
C15   C     C_R   0.674701 0.350169 0.035600 -0.141047
C16   C     C_R   0.411115 0.534832 0.894013 -0.068973
C17   C     C_R   0.268427 0.561585 0.940330 -0.187431
C18   C     C_R   0.218651 0.548974 0.034658 0.096316
C19   C     C_R   0.316381 0.508012 0.083187 0.052186
C20   C     C_R   0.072035 0.569773 0.081167 0.008224
C21   C     C_R   0.024035 0.541889 0.175078 -0.032782
C22   C     C_R   0.275261 0.515294 0.178061 -0.099188
H1    H     H_    0.732393 0.290248 0.071839 0.211299
H2    H     H_    0.195012 0.586893 0.900591 0.201995
H3    H     H_    0.685828 0.591041 0.783184 0.178727
H4    H     H_    0.488396 0.344890 0.145153 0.131263
C23   C     C_R   0.105570 0.066645 0.446095 -0.003364
C24   C     C_R   0.000217 0.129095 0.509915 -0.124992
C25   C     C_R   0.901429 0.060129 0.579188 -0.182713
C26   C     C_R   0.900398 0.929872 0.574242 0.563135
C27   C     C_R   0.998025 0.870257 0.503225 -0.195892
C28   C     C_R   0.104385 0.939116 0.442340 -0.082744
C29   C     C_3   0.147361 0.942716 0.341004 -0.256609
C30   C     C_3   0.150367 0.083958 0.345818 0.378314
H5    H     H_    0.256010 0.902763 0.311728 0.241346
H6    H     H_    0.259790 0.125084 0.320428 0.103293
C31   C     C_R   0.593538 0.587270 0.450824 -0.038189
N1    N     N_R   0.648210 0.500930 0.499430 -0.239202
C32   C     C_R   0.558888 0.407633 0.541848 0.766746
C33   C     C_R   0.410449 0.406288 0.542135 -0.075856
N2    N     N_R   0.352300 0.500890 0.499430 -0.277427
C34   C     C_R   0.447149 0.586631 0.450015 0.091600
C35   C     C_3   0.436249 0.724175 0.458567 0.392082
C36   C     C_3   0.592327 0.724679 0.461276 0.396206
H7    H     H_    0.358730 0.755507 0.521430 0.144534
H8    H     H_    0.667107 0.775132 0.403755 0.138299
C37   C     C_2   0.965851 0.615787 0.032772 0.460776
H9    H     H_    0.859923 0.573696 0.046862 0.087260
O9    O     O_2   0.992735 0.705610 0.980860 -0.499524
C38   C     C_2   0.799921 0.118780 0.657282 0.560635
H10   H     H_    0.705689 0.068110 0.696165 0.156270
O10   O     O_2   0.822613 0.221739 0.681521 -0.554335
F1    F     F_    0.806251 0.860992 0.638936 -0.637810
C39   C     C_2   0.033098 0.893551 0.300636 0.520183
H11   H     H_    0.920915 0.920125 0.327247 0.113406
O11   O     O_2   0.066098 0.823249 0.237652 -0.503157
F2    F     F_    0.045896 0.144854 0.313483 -0.662117
F3    F     F_    0.611074 0.318766 0.588789 -0.579716
C40   C     C_2   0.321120 0.302796 0.592145 0.533024
H12   H     H_    0.208666 0.315769 0.624823 0.106032
O12   O     O_2   0.372907 0.199836 0.597708 -0.503518
F4    F     F_    0.418540 0.781139 0.380732 -0.652550
C41   C     C_2   0.389821 0.544123 0.223050 0.468054
H13   H     H_    0.414580 0.480119 0.272537 0.066012
O13   O     O_2   0.461821 0.638410 0.201557 -0.442462
F5    F     F_    0.604899 0.757197 0.545187 -0.615882
C42   C     C_2   0.866942 0.546029 0.220078 0.363230
H14   H     H_    0.812611 0.463863 0.255185 0.092378
O14   O     O_2   0.797984 0.641591 0.219095 -0.487474
F6    F     F_    0.963851 0.304298 0.957556 -0.678718
C43   C     C_2   0.110687 0.393108 0.789776 0.371051
H15   H     H_    0.158067 0.307012 0.806824 0.157682
O15   O     O_2   0.189534 0.475173 0.748611 -0.576473
C44   C     C_2   0.440873 0.531925 0.795014 0.429753
H16   H     H_    0.408010 0.609246 0.758185 0.130573
O16   O     O_2   0.495659 0.440381 0.754409 -0.464890

loop_
_geom_bond_atom_site_label_1
_geom_bond_atom_site_label_2
_geom_bond_distance
_ccdc_geom_bond_type
C5    C8    1.418159 A    
C32   F3    1.354858 S    
C41   H13   1.084560 S    
C9    C10   1.407675 A    
C3    C27   1.435329 S    
C43   H15   1.085470 S    
Cu1   Cu2   2.706797 S    
C42   H14   1.085164 S    
C6    C21   1.428965 A    
Cu1   O7    1.931581 S    
C16   C17   1.399125 A    
C14   H4    1.081401 S    
C26   F1    1.360093 S    
C13   C19   1.423134 A    
C18   C19   1.409445 A    
C33   C40   1.478797 S    
C44   O16   1.220716 D    
C19   C22   1.412306 A    
O4    C2    1.313194 A    
O7    C4    1.310200 A    
C37   O9    1.220849 D    
C20   C37   1.490446 S    
C8    C43   1.469567 S    
C38   O10   1.219559 D    
C27   C28   1.391510 A    
C23   C28   1.376077 A    
C40   O12   1.221338 D    
O5    C3    1.296145 A    
C2    C5    1.488891 S    
C1    C24   1.440240 S    
C13   C14   1.410339 A    
C42   O14   1.221092 D    
C41   O13   1.220789 D    
O3    Cu1   1.947687 S    
C43   O15   1.216724 D    
C30   H6    1.111510 S    
C29   C39   1.506655 S    
C21   C42   1.485635 S    
C35   H7    1.111567 S    
C17   H2    1.079737 S    
C36   H8    1.111689 S    
N2    C34   1.366422 A    
C44   H16   1.085600 S    
O3    C2    1.304687 A    
C25   C26   1.406797 A    
C33   N2    1.389509 A    
C35   C36   1.513393 S    
C7    F6    1.361650 S    
C7    C11   1.400566 A    
C38   H10   1.085266 S    
O1    C1    1.295599 A    
C39   O11   1.219791 D    
C5    C9    1.395887 A    
C29   C30   1.525386 S    
Cu2   N1    2.033509 S    
C23   C24   1.392366 A    
C31   N1    1.364821 A    
C20   C21   1.419691 A    
Cu2   O8    1.947687 S    
C7    C8    1.398981 A    
C14   C15   1.382148 A    
C29   H5    1.110011 S    
C31   C36   1.492219 S    
C36   F5    1.384809 S    
N1    C32   1.360687 A    
O8    C4    1.313646 A    
C4    C6    1.504790 S    
C28   C29   1.503303 S    
C22   C41   1.489316 S    
C34   C35   1.490634 S    
Cu1   O5    1.950980 S    
C11   C15   1.393243 A    
C26   C27   1.403845 A    
C16   C44   1.475404 S    
O1    Cu1   1.954672 S    
O2    Cu2   1.950979 S    
C10   C12   1.432159 A    
O6    C3    1.296658 A    
O4    Cu2   1.931578 S    
C31   C34   1.411882 A    
C6    C22   1.421828 A    
C39   H11   1.086033 S    
C23   C30   1.494827 S    
C18   C20   1.419974 A    
O2    C1    1.297931 A    
Cu1   N2    2.033896 S    
C9    H3    1.077575 S    
C37   H9    1.084153 S    
C24   C25   1.420394 A    
C25   C38   1.484479 S    
C40   H12   1.074041 S    
C10   C11   1.417626 A    
Cu2   O6    1.954672 S    
C32   C33   1.427178 A    
C12   C16   1.423958 A    
C17   C18   1.405710 A    
C12   C13   1.418495 A    
C30   F2    1.387488 S    
C35   F4    1.380956 S    
C15   H1    1.083617 S    
