data_mof_unit_28846.cif
_audit_creation_date              2012-10-26T21:13:41-0400
_audit_creation_method            fapswitch 2.2
_symmetry_space_group_name_H-M    P1
_symmetry_Int_Tables_number       1
_space_group_crystal_system       triclinic
_cell_length_a                    9.069776
_cell_length_b                    10.855704
_cell_length_c                    9.547295
_cell_angle_alpha                 89.902814
_cell_angle_beta                  90.007269
_cell_angle_gamma                 90.356394
_cell_volume                      939.995699486

loop_
_atom_site_label
_atom_site_type_symbol
_atom_type_description
_atom_site_fract_x
_atom_site_fract_y
_atom_site_fract_z
_atom_type_partial_charge
C1    C     C_R   0.499451 0.262674 0.499972 0.551213
C2    C     C_R   0.566568 0.593567 0.926107 0.190785
C3    C     C_3   0.725234 0.630134 0.920263 -0.284551
C4    C     C_R   0.220690 0.500233 0.499989 0.549500
C5    C     C_3   0.724940 0.630620 0.079291 -0.282530
C6    C     C_R   0.500733 0.737228 0.499719 0.538047
C7    C     C_R   0.779310 0.500334 0.500039 0.552432
C8    C     C_1   0.065564 0.500517 0.500044 -0.068251
C9    C     C_1   0.934433 0.500552 0.500080 -0.070637
C10   C     C_R   0.481580 0.061533 0.620199 -0.038399
C11   C     C_R   0.499416 0.129987 0.498438 0.006894
C12   C     C_R   0.518596 0.935673 0.371502 -0.159654
C13   C     C_R   0.517764 0.064861 0.371728 -0.158132
C14   C     C_3   0.207538 0.874835 0.731057 0.020317
C15   C     C_3   0.069005 0.828780 0.804723 -0.373371
C16   C     C_R   0.500905 0.869739 0.497966 -0.016609
C17   C     C_R   0.481724 0.937254 0.619629 -0.002680
C18   C     C_3   0.459494 0.928960 0.775329 0.160388
C19   C     C_3   0.457907 0.071190 0.774635 -0.233231
C20   C     C_R   0.566407 0.593682 0.073411 0.171455
C21   C     C_R   0.422057 0.414544 0.074566 -0.012016
C22   C     C_R   0.421944 0.414614 0.925695 -0.012087
Cu1   Cu    Cu3+1 0.499990 0.499980 0.640670 0.948774
Cu2   Cu    Cu3+1 0.500010 0.500020 0.359330 0.939644
H1    H     H_    0.532224 0.113007 0.273173 0.134963
H2    H     H_    0.185939 0.969146 0.690609 0.123410
H3    H     H_    0.042131 0.889950 0.894165 0.151959
H4    H     H_    0.974925 0.828282 0.730231 0.087805
H5    H     H_    0.085968 0.733583 0.844201 0.168708
H6    H     H_    0.557922 0.891043 0.829177 0.119321
H7    H     H_    0.360846 0.344238 0.870061 0.110922
H8    H     H_    0.796555 0.557223 0.875475 0.154393
H9    H     H_    0.741337 0.723187 0.873908 0.112685
H10   H     H_    0.796364 0.558174 0.125185 0.158449
H11   H     H_    0.533647 0.888199 0.272872 0.141956
H12   H     H_    0.349632 0.112435 0.801073 0.136040
H13   H     H_    0.554207 0.113259 0.828886 0.105917
H14   H     H_    0.361240 0.343931 0.130430 0.117033
H15   H     H_    0.740246 0.724094 0.124596 0.121718
H16   H     H_    0.229840 0.811557 0.642286 0.150949
N1    N     N_R   0.500920 0.500930 0.147930 -0.232731
N2    N     N_R   0.500930 0.500890 0.852020 -0.229181
O1    O     O_R   0.500000 0.319640 0.618810 -0.507014
O2    O     O_R   0.500020 0.319680 0.381230 -0.515093
O3    O     O_R   0.288380 0.499980 0.618770 -0.496972
O4    O     O_R   0.288400 0.500020 0.381190 -0.493485
O5    O     O_R   0.499980 0.680320 0.618770 -0.487220
O6    O     O_R   0.500000 0.680360 0.381190 -0.504393
O7    O     O_R   0.711600 0.499980 0.618810 -0.503073
O8    O     O_R   0.711620 0.500020 0.381230 -0.499657
O9    O     O_3   0.326568 0.874185 0.827071 -0.544713

loop_
_geom_bond_atom_site_label_1
_geom_bond_atom_site_label_2
_ccdc_geom_bond_type
Cu1   Cu2   S    
Cu1   O3    S    
C1    O2    A    
C15   H3    S    
C14   O9    S    
C1    C11   S    
C10   C19   S    
C4    C8    S    
Cu2   O4    S    
C5    H10   S    
C2    C3    S    
C5    C20   S    
C4    O4    A    
C21   C22   A    
C14   H2    S    
C12   H11   S    
Cu2   N1    S    
C11   C13   A    
C13   H1    S    
C15   H4    S    
C22   N2    A    
Cu1   N2    S    
C6    O6    A    
C2    N2    A    
C21   N1    A    
C14   H16   S    
C18   O9    S    
C15   H5    S    
C4    O3    A    
C5    H15   S    
Cu2   O8    S    
C3    H8    S    
Cu2   O2    S    
Cu1   O7    S    
Cu1   O5    S    
C10   C11   A    
C3    H9    S    
C10   C17   A    
C6    C16   S    
C22   H7    S    
Cu2   O6    S    
C18   H6    S    
Cu1   O1    S    
C12   C13   A    
C7    O7    A    
C17   C18   S    
C18   C19   S    
C6    O5    A    
C7    C9    S    
C14   C15   S    
C16   C17   A    
C19   H13   S    
C19   H12   S    
C2    C20   A    
C1    O1    A    
C21   H14   S    
C12   C16   A    
C7    O8    A    
C20   N1    A    
C8    C9    T    
C3    C5    S    
