data_mof_unit_37191.cif
_audit_creation_date              2012-12-11T17:01:21-0500
_audit_creation_method            fapswitch 2.2
_symmetry_space_group_name_H-M    P1
_symmetry_Int_Tables_number       1
_space_group_crystal_system       triclinic
_cell_length_a                    19.483023
_cell_length_b                    7.121111
_cell_length_c                    17.517793
_cell_angle_alpha                 89.999929
_cell_angle_beta                  108.583356
_cell_angle_gamma                 90.00082
_cell_volume                      2303.71184215

loop_
_atom_site_label
_atom_site_type_symbol
_atom_type_description
_atom_site_fract_x
_atom_site_fract_y
_atom_site_fract_z
_atom_type_partial_charge
O1    O     O_R   0.413720 0.494330 0.415730 -0.503892
O2    O     O_R   0.586280 0.994330 0.584270 -0.503893
O3    O     O_R   0.560210 0.819300 0.430070 -0.528554
O4    O     O_R   0.439790 0.319300 0.569930 -0.528577
C1    C     C_R   0.581415 0.655405 0.414867 0.856294
C2    C     C_R   0.418586 0.155403 0.585133 0.856276
O5    O     O_R   0.412670 0.823730 0.406310 -0.534932
O6    O     O_R   0.587330 0.323730 0.593690 -0.534957
O7    O     O_R   0.437690 0.998790 0.560340 -0.531947
O8    O     O_R   0.562310 0.498790 0.439660 -0.531934
C3    C     C_R   0.385527 0.655019 0.383604 0.766484
C4    C     C_R   0.614472 0.155021 0.616397 0.766514
O9    O     O_3   0.508380 0.662350 0.550560 -0.361138
O10   O     O_3   0.491620 0.162350 0.449440 -0.361095
V1    V     V_3+5 0.498450 0.935370 0.490620 1.698334
V2    V     V_3+5 0.501550 0.435370 0.509380 1.698289
C5    C     C_R   0.692010 0.028011 0.750771 0.024032
C6    C     C_R   0.307999 0.528075 0.249211 0.023983
C7    C     C_R   0.682820 0.147002 0.684729 -0.090752
C8    C     C_R   0.317177 0.646997 0.315275 -0.090714
C9    C     C_R   0.740314 0.270240 0.688596 -0.090995
C10   C     C_R   0.259680 0.770216 0.311416 -0.090954
H1    H     H_    0.735526 0.366099 0.639241 0.210650
H2    H     H_    0.264468 0.866070 0.360774 0.210616
C11   C     C_R   0.805594 0.266313 0.754017 0.411701
C12   C     C_R   0.194402 0.766299 0.245992 0.411703
C13   C     C_R   0.816998 0.126882 0.815142 -0.165771
C14   C     C_R   0.183002 0.626889 0.184859 -0.165770
C15   C     C_R   0.756685 0.018565 0.813483 -0.022346
C16   C     C_R   0.243323 0.518630 0.186501 -0.022366
C17   C     C_3   0.746560 0.817435 0.830015 0.175681
C18   C     C_3   0.253465 0.317501 0.169939 0.175635
C19   C     C_3   0.675558 0.826120 0.759880 0.206731
C20   C     C_3   0.324470 0.326179 0.240071 0.206761
H3    H     H_    0.788880 0.724118 0.820639 0.175671
H4    H     H_    0.211152 0.224119 0.179311 0.175619
H5    H     H_    0.625949 0.805651 0.777125 0.202539
H6    H     H_    0.374084 0.305780 0.222810 0.202598
C21   C     C_R   0.297891 0.221949 0.600724 0.339133
C22   C     C_R   0.702102 0.721998 0.399260 0.339182
C23   C     C_R   0.368183 0.147521 0.633176 -0.249072
C24   C     C_R   0.631814 0.647528 0.366819 -0.249073
C25   C     C_R   0.390791 0.066404 0.710546 0.339094
C26   C     C_R   0.609209 0.566376 0.289454 0.339111
C27   C     C_R   0.344761 0.072497 0.759533 -0.052191
C28   C     C_R   0.655237 0.572469 0.240465 -0.052185
C29   C     C_R   0.271646 0.135051 0.723978 -0.136011
C30   C     C_R   0.728351 0.635040 0.276017 -0.136007
C31   C     C_R   0.246840 0.201224 0.642834 -0.050212
C32   C     C_R   0.753154 0.701237 0.357157 -0.050217
C33   C     C_R   0.367767 0.017958 0.842417 0.461148
C34   C     C_R   0.632231 0.517915 0.157581 0.461143
C35   C     C_R   0.318575 0.012670 0.885252 -0.166983
C36   C     C_R   0.681422 0.512648 0.114744 -0.167010
C37   C     C_R   0.246778 0.066223 0.850027 0.042042
C38   C     C_R   0.753220 0.566216 0.149969 0.042031
C39   C     C_R   0.222817 0.130236 0.769811 0.094703
C40   C     C_R   0.777181 0.630223 0.230186 0.094714
C41   C     C_R   0.149635 0.185634 0.735260 -0.008733
C42   C     C_R   0.850365 0.685616 0.264740 -0.008736
C43   C     C_R   0.125404 0.237215 0.653880 -0.218473
C44   C     C_R   0.874595 0.737194 0.346122 -0.218478
C45   C     C_R   0.171769 0.242859 0.607666 0.467881
C46   C     C_R   0.828226 0.742859 0.392330 0.467892
C47   C     C_R   0.199124 0.058829 0.895259 -0.126851
C48   C     C_R   0.800873 0.558837 0.104736 -0.126890
C49   C     C_R   0.127531 0.119271 0.862890 -0.081855
C50   C     C_R   0.872468 0.619266 0.137109 -0.081868
C51   C     C_R   0.101469 0.178480 0.781703 -0.083596
C52   C     C_R   0.898532 0.678454 0.218299 -0.083593
H7    H     H_    0.337252 0.969504 0.947916 0.202654
H8    H     H_    0.662746 0.469478 0.052081 0.202654
H9    H     H_    0.217907 0.006466 0.956551 0.164947
H10   H     H_    0.782089 0.506485 0.043443 0.164990
H11   H     H_    0.068952 0.268930 0.623843 0.171706
H12   H     H_    0.931049 0.768894 0.376164 0.171696
O11   O     O_R   0.937800 0.775460 0.060470 -0.533789
O12   O     O_R   0.062200 0.275460 0.939530 -0.533793
O13   O     O_R   0.087350 0.441340 0.093710 -0.531635
O14   O     O_R   0.912650 0.941340 0.906290 -0.531636
C53   C     C_R   0.114252 0.611028 0.116881 0.803404
C54   C     C_R   0.885748 0.111026 0.883119 0.803403
O15   O     O_R   0.939820 0.446010 0.069950 -0.540401
O16   O     O_R   0.060180 0.946010 0.930050 -0.540408
O17   O     O_R   0.913690 0.271230 0.915700 -0.529311
O18   O     O_R   0.086310 0.771230 0.084300 -0.529319
C55   C     C_R   0.919357 0.613888 0.085255 0.765332
C56   C     C_R   0.080642 0.113889 0.914745 0.765276
O19   O     O_3   0.991670 0.603050 0.949510 -0.369507
O20   O     O_3   0.008330 0.103050 0.050490 -0.369508
V3    V     V_3+5 0.001550 0.329940 0.009370 1.607816
V4    V     V_3+5 0.998450 0.829940 0.990630 1.607809
C57   C     C_2   0.023496 0.222296 0.744688 0.459529
H13   H     H_    0.006565 0.345846 0.707194 0.111141
O21   O     O_2   0.977487 0.116625 0.754045 -0.495228
C58   C     C_2   0.976508 0.722234 0.255318 0.459524
H14   H     H_    0.993449 0.845748 0.292833 0.111146
O22   O     O_2   0.022511 0.616569 0.245943 -0.495246
Cl1   Cl    Cl    0.127144 0.278957 0.503844 -0.460890
Cl2   Cl    Cl    0.872843 0.778938 0.496156 -0.460863
Cl3   Cl    Cl    0.871356 0.436020 0.754275 -0.565093
Cl4   Cl    Cl    0.128643 0.936013 0.245731 -0.565079
Cl5   Cl    Cl    0.732308 0.791223 0.924919 -0.637739
Cl6   Cl    Cl    0.267719 0.291406 0.075019 -0.637672
Cl7   Cl    Cl    0.678674 0.689366 0.676214 -0.596235
Cl8   Cl    Cl    0.321372 0.189294 0.323728 -0.596183
Cl9   Cl    Cl    0.278724 0.351183 0.509579 -0.508620
Cl10  Cl    Cl    0.721258 0.851370 0.490365 -0.508606
Cl11  Cl    Cl    0.476170 0.952377 0.740621 -0.573783
Cl12  Cl    Cl    0.523831 0.452332 0.259386 -0.573807
Cl13  Cl    Cl    0.457936 0.971761 0.902090 -0.412120
Cl14  Cl    Cl    0.542063 0.471663 0.097912 -0.412123

loop_
_geom_bond_atom_site_label_1
_geom_bond_atom_site_label_2
_ccdc_geom_bond_type
O15   C55   A    
C1    C24   S    
O11   V4    S    
O4    V2    S    
C57   H13   S    
C31   C45   A    
C13   C15   A    
C5    C15   A    
C48   C50   A    
O1    C3    A    
O2    C4    A    
C2    O7    A    
O17   V3    S    
C29   C31   A    
C43   H11   S    
C21   Cl9   S    
C49   C56   S    
C5    C19   S    
C32   C46   A    
C18   H4    S    
C7    C9    A    
C51   C57   S    
C38   C48   A    
C39   C41   A    
C27   C33   A    
C40   C42   A    
C48   H10   S    
C28   C34   A    
C47   H9    S    
C6    C8    A    
C42   C44   A    
C27   C29   A    
C43   C45   A    
C44   C46   A    
C52   C58   S    
C34   C36   A    
C47   C49   A    
C2    C23   S    
C58   O22   D    
C45   Cl1   S    
C17   C19   S    
C6    C16   A    
O19   V3    S    
O13   V3    S    
C53   O18   A    
C22   Cl10  S    
O5    V1    S    
O6    V2    S    
C23   C25   A    
C44   H12   S    
C24   C26   A    
C37   C47   A    
C26   C28   A    
C36   C38   A    
C35   C37   A    
C28   C30   A    
C3    C8    S    
C41   C43   A    
C20   Cl8   S    
C19   Cl7   S    
O14   C54   A    
O13   C53   A    
C25   Cl11  S    
C19   H5    S    
C49   C51   A    
C18   C20   S    
O14   V4    S    
O5    C3    A    
C29   C39   A    
C25   C27   A    
O20   V4    S    
C42   C52   A    
O6    C4    A    
C58   H14   S    
C18   Cl6   S    
O1    V2    S    
O19   V4    S    
O2    V1    S    
C6    C20   S    
C41   C51   A    
O4    C2    A    
C21   C31   A    
C8    C10   A    
C9    H1    S    
C17   H3    S    
C35   H7    S    
O3    V1    S    
O12   C56   A    
C9    C11   A    
C33   Cl13  S    
C14   C53   S    
C20   H6    S    
C13   C54   S    
O16   C56   A    
C22   C24   A    
O3    C1    A    
C30   C40   A    
O12   V3    S    
C11   C13   A    
C54   O17   A    
O15   V3    S    
C12   C14   A    
C37   C39   A    
O7    V1    S    
C46   Cl2   S    
C14   C16   A    
C15   C17   S    
O8    V2    S    
C21   C23   A    
C12   Cl4   S    
C16   C18   S    
C11   Cl3   S    
O20   V3    S    
C57   O21   D    
C22   C32   A    
C4    C7    S    
C30   C32   A    
C5    C7    A    
C38   C40   A    
C10   H2    S    
C1    O8    A    
C36   H8    S    
O11   C55   A    
C50   C52   A    
C10   C12   A    
O9    V2    S    
C50   C55   S    
C34   Cl14  S    
O10   V1    S    
O18   V4    S    
O16   V4    S    
C33   C35   A    
C17   Cl5   S    
C26   Cl12  S    
