data_mof_unit_27303.cif
_audit_creation_date              2012-12-11T14:17:31-0500
_audit_creation_method            fapswitch 2.2
_symmetry_space_group_name_H-M    P1
_symmetry_Int_Tables_number       1
_space_group_crystal_system       triclinic
_cell_length_a                    6.948851
_cell_length_b                    13.65504
_cell_length_c                    20.45678
_cell_angle_alpha                 102.21425
_cell_angle_beta                  90.279393
_cell_angle_gamma                 90.852318
_cell_volume                      1896.86572368

loop_
_atom_site_label
_atom_site_type_symbol
_atom_type_description
_atom_site_fract_x
_atom_site_fract_y
_atom_site_fract_z
_atom_type_partial_charge
O1    O     O_R   0.506860 0.599390 0.449240 -0.539520
O2    O     O_R   0.180220 0.594600 0.586780 -0.507351
O3    O     O_R   0.004500 0.400610 0.550760 -0.548375
C1    C     C_R   0.350846 0.617256 0.612919 0.794174
O4    O     O_R   0.177490 0.611290 0.451970 -0.540746
O5    O     O_R   0.001750 0.417420 0.414990 -0.550300
C2    C     C_R   0.347020 0.637815 0.435244 0.720537
O6    O     O_R   0.509610 0.582580 0.585010 -0.545156
O7    O     O_3   0.337420 0.436370 0.488020 -0.370971
V1    V     V_3+5 0.064680 0.511800 0.502220 1.561773
O8    O     O_R   0.671710 0.405400 0.413220 -0.503900
C3    C     C_R   0.840023 0.383432 0.386830 0.666316
O9    O     O_R   0.674440 0.388710 0.548030 -0.541502
C4    C     C_R   0.842278 0.362234 0.564700 0.700224
V2    V     V_3+5 0.564010 0.488200 0.497780 1.573681
O10   O     O_3   0.841140 0.563630 0.511980 -0.369499
C5    C     C_R   0.778174 0.111026 0.607460 -0.118646
H1    H     H_    0.773604 0.165729 0.516686 0.114998
H2    H     H_    0.768142 0.983166 0.686413 0.177651
H3    H     H_    0.748724 0.034433 0.581505 0.123292
C6    C     C_R   0.844300 0.282913 0.602416 -0.052489
C7    C     C_R   0.871782 0.308330 0.923033 -0.225771
C8    C     C_R   0.838858 0.383790 0.888877 -0.089938
C9    C     C_R   0.806502 0.361579 0.820102 0.273204
C10   C     C_R   0.825721 0.261259 0.782792 -0.020476
C11   C     C_R   0.836057 0.181735 0.818840 -0.037897
C12   C     C_R   0.827301 0.236606 0.711307 0.086019
C13   C     C_R   0.796379 0.135934 0.677418 0.066422
C14   C     C_R   0.788455 0.060268 0.713061 -0.131193
C15   C     C_R   0.816699 0.080533 0.781929 0.269328
C16   C     C_R   0.868330 0.307521 0.671911 -0.138807
C17   C     C_R   0.795616 0.184978 0.570387 -0.166597
C18   C     C_R   0.861891 0.207922 0.889899 -0.067702
H4    H     H_    0.921313 0.381807 0.694020 0.159449
H5    H     H_    0.891759 0.328245 0.976853 0.136554
H6    H     H_    0.828052 0.460174 0.916983 0.165113
C19   C     C_2   0.996049 0.294409 0.280808 0.162559
C20   C     C_2   0.845950 0.306479 0.323919 0.450240
C21   C     C_2   0.997124 0.212245 0.220480 -0.131050
C22   C     C_2   0.858864 0.198186 0.172888 0.177914
H7    H     H_    0.123060 0.165039 0.213263 0.176957
C23   C     C_2   0.275620 0.832111 0.767244 0.456504
C24   C     C_2   0.350681 0.809360 0.823037 0.314396
C25   C     C_2   0.240936 0.756784 0.703945 0.607166
C26   C     C_2   0.371546 0.687241 0.678744 -0.386843
H8    H     H_    0.507784 0.686733 0.704954 0.182862
C27   C     C_R   0.425862 0.886007 0.388097 -0.115197
H9    H     H_    0.426708 0.834693 0.480215 0.116690
H10   H     H_    0.444101 0.011726 0.306479 0.187021
H11   H     H_    0.456799 0.962893 0.413117 0.122751
C28   C     C_R   0.360254 0.714982 0.395652 -0.082017
C29   C     C_R   0.338096 0.687095 0.072232 -0.297997
C30   C     C_R   0.342537 0.610492 0.107017 -0.130816
C31   C     C_R   0.359991 0.631578 0.176426 0.663109
C32   C     C_R   0.365041 0.732450 0.213644 -0.127044
C33   C     C_R   0.372203 0.811164 0.177127 -0.123480
C34   C     C_R   0.370438 0.758232 0.285346 0.081458
C35   C     C_R   0.406171 0.859526 0.318173 0.029729
C36   C     C_R   0.419832 0.934211 0.281389 -0.234541
C37   C     C_R   0.398283 0.911610 0.212390 0.587069
C38   C     C_R   0.337209 0.688010 0.326166 -0.111784
C39   C     C_R   0.407217 0.813612 0.426456 -0.159774
C40   C     C_R   0.356683 0.786774 0.106120 -0.080105
H12   H     H_    0.288748 0.612453 0.306178 0.210526
H13   H     H_    0.326882 0.668336 0.018128 0.162129
H14   H     H_    0.337540 0.533385 0.079622 0.168029
O11   O     O_R   0.203230 0.917310 0.915020 -0.536031
O12   O     O_R   0.535500 0.888690 0.048040 -0.538502
O13   O     O_R   0.711080 0.082610 0.085000 -0.504048
C41   C     C_R   0.366345 0.862884 0.065363 0.828966
O14   O     O_R   0.532630 0.905370 0.913230 -0.526245
O15   O     O_R   0.708190 0.099410 0.949230 -0.538989
C42   C     C_R   0.363099 0.884234 0.886671 0.766447
O16   O     O_R   0.206120 0.900510 0.050790 -0.545636
O17   O     O_3   0.375360 0.063570 0.011990 -0.367038
V3    V     V_3+5 0.648170 0.988200 0.997780 1.624471
O18   O     O_R   0.038240 0.111390 0.951940 -0.538773
C43   C     C_R   0.870264 0.134531 0.932563 0.761004
O19   O     O_R   0.041120 0.094710 0.086750 -0.544678
C44   C     C_R   0.872499 0.118376 0.112163 0.679243
V4    V     V_3+5 0.148810 0.011930 0.002180 1.600423
O20   O     O_3   0.871750 0.936430 0.988010 -0.371689
F1    F     F_    0.693577 0.241128 0.311576 -0.641344
Br1   Br    Br    0.647147 0.288854 0.175648 -0.351451
F2    F     F_    0.224354 0.928074 0.768253 -0.664107
F3    F     F_    0.408531 0.714705 0.823235 -0.677917
F4    F     F_    0.081044 0.767386 0.667579 -0.641241
F5    F     F_    0.388118 0.551706 0.204658 -0.655226
F6    F     F_    0.407113 0.989655 0.180917 -0.683222
Br2   Br    Br    0.687247 0.468356 0.786816 -0.492106
Br3   Br    Br    0.821709 0.960566 0.816734 -0.445878
Br4   Br    Br    0.224975 0.377485 0.293745 -0.394792

loop_
_geom_bond_atom_site_label_1
_geom_bond_atom_site_label_2
_ccdc_geom_bond_type
C24   C42   S    
C32   C33   A    
C20   F1    S    
C22   Br1   S    
C28   C38   A    
O15   V3    S    
C27   C39   A    
V4    O20   S    
C21   H7    S    
O18   C43   A    
C29   C30   A    
C7    H5    S    
C6    C16   A    
C19   C20   D    
C4    C6    S    
C13   C14   A    
O5    C3    A    
O14   V3    S    
C18   C43   S    
V2    O10   S    
C5    H3    S    
O13   V3    S    
O15   C43   A    
O8    V2    S    
C30   C31   A    
C41   O16   A    
C8    C9    A    
C22   C44   S    
O11   C42   A    
C25   F4    S    
O7    V1    S    
C1    O6    A    
C36   C37   A    
O9    C4    A    
C3    C20   S    
C5    C13   A    
C28   C39   A    
C23   C25   S    
C27   H11   S    
O4    C2    A    
C1    C26   S    
C6    C17   A    
C33   C40   A    
C12   C16   A    
C9    C10   A    
V3    O20   S    
C21   C22   D    
O14   C42   A    
O17   V4    S    
C35   C36   A    
C26   H8    S    
C33   C37   A    
C38   H12   S    
O2    C1    A    
O17   V3    S    
C14   C15   A    
C11   C18   A    
H9    C39   S    
C40   C41   S    
O18   V4    S    
C16   H4    S    
C23   F2    S    
C30   H14   S    
O3    C4    A    
O1    V2    S    
O11   V4    S    
O6    V2    S    
O9    V2    S    
O12   V3    S    
C23   C24   D    
O16   V4    S    
O2    V1    S    
C25   C26   D    
O19   V4    S    
C7    C18   A    
C37   F6    S    
C31   C32   A    
C19   Br4   S    
O1    C2    A    
C24   F3    S    
C15   Br3   S    
C29   C40   A    
C9    Br2   S    
O5    V1    S    
O8    C3    A    
C34   C38   A    
C10   C12   A    
H10   C36   S    
C32   C34   A    
C10   C11   A    
C2    C28   S    
O4    V1    S    
C19   C21   S    
O3    V1    S    
V1    O10   S    
C27   C35   A    
C31   F5    S    
C34   C35   A    
O7    V2    S    
O19   C44   A    
H1    C17   S    
O12   C41   A    
C8    H6    S    
C12   C13   A    
C5    C17   A    
C7    C8    A    
O13   C44   A    
C29   H13   S    
C11   C15   A    
H2    C14   S    
