data_mof_unit_61474.cif
_audit_creation_date              2012-12-11T16:04:23-0500
_audit_creation_method            fapswitch 2.2
_symmetry_space_group_name_H-M    P1
_symmetry_Int_Tables_number       1
_space_group_crystal_system       triclinic
_cell_length_a                    8.245238
_cell_length_b                    16.408253
_cell_length_c                    17.341303
_cell_angle_alpha                 94.986112
_cell_angle_beta                  95.969151
_cell_angle_gamma                 92.651409
_cell_volume                      2320.93044185

loop_
_atom_site_label
_atom_site_type_symbol
_atom_type_description
_atom_site_fract_x
_atom_site_fract_y
_atom_site_fract_z
_atom_type_partial_charge
Ba1   Ba    Ba6+2 0.150890 0.539190 0.463180 1.670450
Ba2   Ba    Ba6+2 0.659280 0.460800 0.536750 1.667728
C1    C     C_3   0.387218 0.749280 0.171024 -0.215190
C2    C     C_R   0.842218 0.757796 0.502364 0.057889
C3    C     C_R   0.895456 0.841836 0.508236 -0.121017
C4    C     C_3   0.900144 0.762149 0.293406 0.332953
C5    C     C_R   0.793292 0.900866 0.476019 0.249356
C6    C     C_R   0.636052 0.873553 0.440699 -0.159972
C7    C     C_R   0.583303 0.790401 0.436152 -0.012411
C8    C     C_R   0.921135 0.154598 0.483240 -0.111370
C9    C     C_R   0.972751 0.238799 0.490810 0.026271
C10   C     C_R   0.023483 0.095780 0.515886 0.257133
C11   C     C_R   0.123580 0.264087 0.531401 -0.300264
C12   C     C_3   0.384469 0.717833 0.251347 0.289773
C13   C     C_R   0.229688 0.207305 0.559599 -0.021009
C14   C     C_R   0.179414 0.123646 0.552851 -0.166432
C15   C     C_R   0.595387 0.534569 0.279268 -0.299896
C16   C     C_3   0.914148 0.847880 0.266986 -0.307787
C17   C     C_R   0.447367 0.490756 0.255087 0.062993
C18   C     C_R   0.389915 0.480073 0.175564 -0.071472
C19   C     C_R   0.482220 0.512331 0.120406 0.005922
C20   C     C_R   0.634716 0.553541 0.145250 -0.136049
C21   C     C_R   0.692055 0.563323 0.224790 -0.003465
C22   C     C_R   0.412475 0.518203 0.834951 -0.053352
C23   C     C_3   0.529561 0.708271 0.635614 0.282523
C24   C     C_R   0.354990 0.514268 0.755745 0.050170
C25   C     C_R   0.110292 0.436862 0.779576 0.040180
C26   C     C_R   0.167764 0.439853 0.859087 -0.093761
C27   C     C_R   0.318998 0.481245 0.887094 0.018460
C28   C     C_3   0.780729 0.363636 0.302691 0.312505
C29   C     C_1   0.374881 0.490503 0.969569 0.046111
C30   C     C_1   0.423478 0.500114 0.038304 0.056460
C31   C     C_R   0.206222 0.472483 0.728472 -0.259715
C32   C     C_3   0.775004 0.344954 0.214799 -0.029001
C33   C     C_3   0.020796 0.676753 0.716635 0.279798
C34   C     C_3   0.579860 0.798915 0.654570 -0.317579
C35   C     C_3   0.897582 0.682217 0.777485 -0.081961
C36   C     C_3   0.282289 0.292967 0.370067 0.318358
C37   C     C_3   0.267347 0.200775 0.348912 -0.343095
C38   C     C_2   0.179977 0.717329 0.755302 0.882798
C39   C     C_2   0.220155 0.743547 0.126806 0.953635
C40   C     C_2   0.791265 0.106935 0.734910 0.974811
C41   C     C_3   0.932732 0.237208 0.704290 0.291494
C42   C     C_3   0.953478 0.152842 0.733942 -0.300235
C43   C     C_3   0.443943 0.282561 0.747942 0.348341
C44   C     C_3   0.471769 0.256881 0.830184 -0.294011
C45   C     C_R   0.688641 0.733088 0.464372 -0.300397
H1    H     H_    0.311635 0.658509 0.246404 0.088387
H2    H     H_    0.233594 0.168581 0.398895 0.045627
H3    H     H_    0.385856 0.179005 0.332655 0.152062
H4    H     H_    0.512542 0.706882 0.272527 -0.066591
H5    H     H_    0.468376 0.711927 0.136737 0.021295
H6    H     H_    0.633478 0.676994 0.612949 0.010302
H7    H     H_    0.423761 0.702036 0.590085 0.070936
H8    H     H_    0.685851 0.806908 0.700044 0.136656
H9    H     H_    0.614133 0.826033 0.601951 0.053543
H10   H     H_    0.477563 0.832807 0.675656 0.184685
H11   H     H_    0.438844 0.813664 0.177825 0.094341
H12   H     H_    0.748926 0.400728 0.185216 0.023026
H13   H     H_    0.881562 0.893302 0.313299 0.069190
H14   H     H_    0.848256 0.231660 0.649591 0.090789
H15   H     H_    0.054375 0.260083 0.690977 -0.056398
H16   H     H_    0.028058 0.116132 0.695566 0.051371
H17   H     H_    0.021860 0.160398 0.793036 0.066114
H18   H     H_    0.312758 0.293704 0.735376 -0.089809
H19   H     H_    0.517428 0.340421 0.745486 0.080555
H20   H     H_    0.432537 0.305228 0.872019 0.054325
H21   H     H_    0.603368 0.247869 0.845686 0.158787
H22   H     H_    0.985684 0.759986 0.346895 0.090652
H23   H     H_    0.894975 0.324097 0.199666 0.106347
H24   H     H_    0.399830 0.198836 0.834464 0.141360
H25   H     H_    0.803877 0.135490 0.451246 0.116656
H26   H     H_    0.553587 0.917366 0.418009 0.099099
H27   H     H_    0.013052 0.860945 0.539883 0.133312
H28   H     H_    0.262127 0.080048 0.575743 0.118345
H29   H     H_    0.646301 0.669418 0.461768 0.077444
H30   H     H_    0.163172 0.328313 0.536649 0.073264
H31   H     H_    0.526897 0.551854 0.856080 0.101470
H32   H     H_    0.709824 0.576041 0.103107 0.099362
H33   H     H_    0.093087 0.412696 0.898986 0.090537
H34   H     H_    0.034950 0.612199 0.694487 -0.058177
H35   H     H_    0.773254 0.750255 0.306871 -0.063728
H36   H     H_    0.275819 0.445161 0.156658 0.095848
H37   H     H_    0.640681 0.541355 0.340442 0.070960
H38   H     H_    0.161674 0.470608 0.667369 0.064424
H39   H     H_    0.041245 0.862815 0.254951 0.173634
H40   H     H_    0.829769 0.851817 0.213339 0.134523
H41   H     H_    0.658191 0.378416 0.318009 0.004671
H42   H     H_    0.867981 0.417146 0.320385 0.032533
H43   H     H_    0.366909 0.717759 0.840341 0.333551
H44   H     H_    0.030799 0.670357 0.073520 0.338054
H45   H     H_    0.889587 0.747195 0.800375 0.102814
H46   H     H_    0.803462 0.116099 0.852475 0.278299
H47   H     H_    0.775890 0.661690 0.749366 0.131432
H48   H     H_    0.162989 0.313969 0.384616 -0.005323
H49   H     H_    0.375669 0.306648 0.421029 0.059040
H50   H     H_    0.171802 0.185405 0.299059 0.142865
I1    I     I_    0.588690 0.252324 0.171989 -0.411078
I2    I     I_    0.941276 0.613660 0.876309 -0.439194
N1    N     N_2   0.838249 0.987396 0.480078 -0.209888
N2    N     N_2   0.979149 0.009162 0.511561 -0.216658
O1    O     O_2   0.124170 0.696240 0.537320 -0.462848
O2    O     O_2   0.769315 0.438593 0.774127 -0.463916
O3    O     O_3   0.871346 0.290097 0.761279 -0.612788
O4    O     O_3   0.874280 0.596090 0.538840 -0.485136
O5    O     O_3   0.430090 0.459160 0.409230 -0.493942
O6    O     O_2   0.641040 0.538740 0.685130 -0.454679
O7    O     O_3   0.487364 0.675599 0.703461 -0.630860
O8    O     O_2   0.566782 0.208085 0.552121 -0.461035
O9    O     O_3   0.491928 0.220587 0.695264 -0.557750
O10   O     O_3   0.350640 0.647210 0.399890 -0.484980
O11   O     O_2   0.246203 0.792734 0.446690 -0.487479
O12   O     O_3   0.327416 0.330504 0.305662 -0.606224
O13   O     O_3   0.960894 0.724714 0.657873 -0.658288
O14   O     O_3   0.317616 0.775825 0.302040 -0.601366
O15   O     O_2   0.169260 0.461210 0.314850 -0.470183
O16   O     O_3   0.932460 0.606800 0.361650 -0.498616
O17   O     O_2   0.028617 0.554186 0.224743 -0.460527
O18   O     O_2   0.230215 0.782634 0.735195 -0.584805
O19   O     O_R   0.265600 0.683133 0.817240 -0.760395
O20   O     O_2   0.153472 0.805893 0.110907 -0.579155
O21   O     O_R   0.142928 0.666581 0.102673 -0.727322
O22   O     O_2   0.712135 0.081474 0.673391 -0.544879
O23   O     O_3   0.940150 0.705168 0.234114 -0.575862
O24   O     O_R   0.730124 0.091681 0.804800 -0.703730
O25   O     O_2   0.686120 0.303710 0.462660 -0.459720
O26   O     O_3   0.936010 0.403900 0.461090 -0.495325
O27   O     O_3   0.459650 0.352790 0.600040 -0.494110
O28   O     O_3   0.830265 0.294458 0.338549 -0.618219
O29   O     O_3   0.380200 0.540830 0.590710 -0.483267
O30   O     O_3   0.877840 0.393190 0.638290 -0.482091
P1    P     P_3+3 0.954010 0.683680 0.560080 1.007064
P2    P     P_3+3 0.343360 0.437010 0.326580 1.002750
P3    P     P_3+3 0.898629 0.606321 0.260307 0.971815
P4    P     P_3+3 0.856290 0.316310 0.439860 0.999549
P5    P     P_3+3 0.906934 0.391243 0.739589 0.984065
P6    P     P_3+3 0.373703 0.753390 0.397787 0.960521
P7    P     P_3+3 0.463185 0.568830 0.686578 0.958802
P8    P     P_3+3 0.437034 0.246055 0.600475 0.992613

loop_
_geom_bond_atom_site_label_1
_geom_bond_atom_site_label_2
_ccdc_geom_bond_type
C4    H22   S    
C4    H35   S    
C14   H28   S    
C17   C18   A    
C4    O23   S    
O2    P5    D    
Ba1   P1    S    
C26   C27   A    
C33   H34   S    
C5    C6    A    
C2    P1    S    
C43   C44   S    
C25   C31   A    
O10   P6    S    
C16   H39   S    
C25   P5    S    
O9    P8    S    
C33   C35   S    
O27   P8    S    
O1    P1    D    
C45   H29   S    
C12   H4    S    
C36   C37   S    
C37   H50   S    
C13   C14   A    
Ba2   O6    S    
C33   O13   S    
Ba1   Ba2   S    
C39   O20   D    
C3    H27   S    
C31   H38   S    
C41   O3    S    
N1    N2    D    
C40   O24   S    
C32   I1    S    
O28   P4    S    
C7    P6    S    
O5    P2    S    
O14   P6    S    
C6    C7    A    
H44   O21   S    
C36   H48   S    
C35   H45   S    
Ba1   O15   S    
C32   H23   S    
O17   P3    D    
Ba1   O5    S    
Ba2   O26   S    
O12   P2    S    
C19   C20   A    
C40   C42   S    
C28   H42   S    
Ba1   P2    S    
O16   P3    S    
C40   O22   D    
O4    P1    S    
C13   P8    S    
C42   H16   S    
C4    C16   S    
C19   C30   S    
C11   H30   S    
C5    N1    S    
C28   C32   S    
C10   C14   A    
C23   H7    S    
C34   H10   S    
C3    C5    A    
C36   O12   S    
C43   O9    S    
C15   C17   A    
C12   H1    S    
O15   P2    D    
Ba2   O5    S    
C42   H17   S    
Ba2   P4    S    
C44   H20   S    
H43   O19   S    
C39   O21   S    
C41   C42   S    
C44   H21   S    
C34   H9    S    
C9    P4    S    
C24   C31   A    
C29   C30   T    
C37   H3    S    
Ba2   O30   S    
C15   C21   A    
C44   H24   S    
C1    C12   S    
C8    C10   A    
Ba2   O25   S    
C16   H13   S    
C38   O19   S    
O25   P4    D    
Ba1   O29   S    
C11   C13   A    
C43   H18   S    
C32   H12   S    
C8    H25   S    
C26   H33   S    
C28   H41   S    
O29   P7    S    
C35   I2    S    
C41   H14   S    
C22   H31   S    
C1    C39   S    
O3    P5    S    
C21   P3    S    
C37   H2    S    
O13   P1    S    
O11   P6    D    
Ba1   O26   S    
C23   H6    S    
C2    C3    A    
C24   P7    S    
C20   H32   S    
C1    H5    S    
C7    C45   A    
C17   P2    S    
C28   O28   S    
Ba2   O4    S    
C16   H40   S    
O23   P3    S    
O8    P8    D    
C15   H37   S    
O30   P5    S    
O6    P7    D    
C33   C38   S    
C10   N2    S    
C27   C29   S    
C34   H8    S    
Ba1   O10   S    
O7    P7    S    
C9    C11   A    
C22   C24   A    
C6    H26   S    
Ba2   O29   S    
C35   H47   S    
O26   P4    S    
H46   O24   S    
C8    C9    A    
C23   C34   S    
C1    H11   S    
C22   C27   A    
C38   O18   D    
C18   C19   A    
C23   O7    S    
C18   H36   S    
C36   H49   S    
C43   H19   S    
C20   C21   A    
Ba1   O16   S    
Ba1   O1    S    
C12   O14   S    
C41   H15   S    
Ba1   O4    S    
C25   C26   A    
C2    C45   A    
Ba2   O27   S    
