data_mof_unit_28045.cif
_audit_creation_date              2012-12-11T14:50:41-0500
_audit_creation_method            fapswitch 2.2
_symmetry_space_group_name_H-M    P1
_symmetry_Int_Tables_number       1
_space_group_crystal_system       monoclinic
_cell_length_a                    20.719083
_cell_length_b                    7.124511
_cell_length_c                    20.293798
_cell_angle_alpha                 90.0
_cell_angle_beta                  101.664106
_cell_angle_gamma                 90.0
_cell_volume                      2933.77430698

loop_
_atom_site_label
_atom_site_type_symbol
_atom_type_description
_atom_site_fract_x
_atom_site_fract_y
_atom_site_fract_z
_atom_type_partial_charge
O1    O     O_R   0.423690 0.494470 0.435930 -0.533978
O2    O     O_R   0.576310 0.994470 0.564070 -0.533978
O3    O     O_R   0.556070 0.822310 0.435760 -0.547869
O4    O     O_R   0.443930 0.322310 0.564240 -0.547869
C1    C     C_R   0.575569 0.655064 0.420685 0.776249
C2    C     C_R   0.424431 0.155064 0.579315 0.776249
O5    O     O_R   0.422940 0.824080 0.428040 -0.514541
O6    O     O_R   0.577060 0.324080 0.571960 -0.514540
O7    O     O_R   0.442240 0.995960 0.556300 -0.514102
O8    O     O_R   0.557760 0.495960 0.443700 -0.514101
C3    C     C_R   0.397430 0.657105 0.412036 0.788134
C4    C     C_R   0.602570 0.157105 0.587964 0.788133
O9    O     O_3   0.506490 0.661310 0.542090 -0.375177
O10   O     O_3   0.493510 0.161310 0.457910 -0.375177
V1    V     V_3+5 0.498800 0.935560 0.492190 1.613881
V2    V     V_3+5 0.501200 0.435560 0.507810 1.613881
C5    C     C_R   0.837515 0.075797 0.857036 -0.129893
C6    C     C_R   0.162485 0.575797 0.142964 -0.129893
C7    C     C_R   0.665344 0.159030 0.639623 -0.230989
C8    C     C_R   0.334656 0.659030 0.360377 -0.230989
C9    C     C_R   0.762884 0.331426 0.699147 0.307761
C10   C     C_R   0.237116 0.831426 0.300853 0.307760
C11   C     C_R   0.712658 0.304685 0.640858 0.369395
C12   C     C_R   0.287342 0.804684 0.359142 0.369395
C13   C     C_R   0.675273 0.026550 0.691871 -0.225421
C14   C     C_R   0.324727 0.526551 0.308129 -0.225421
C15   C     C_R   0.729213 0.041089 0.746713 0.045960
C16   C     C_R   0.270787 0.541090 0.253287 0.045961
C17   C     C_R   0.772397 0.197036 0.751152 -0.008646
C18   C     C_R   0.227603 0.697036 0.248848 -0.008646
C19   C     C_R   0.825429 0.214667 0.807127 -0.146423
C20   C     C_R   0.174571 0.714667 0.192873 -0.146423
C21   C     C_R   0.794310 0.921765 0.851954 -0.198481
C22   C     C_R   0.205690 0.421766 0.148046 -0.198481
C23   C     C_R   0.740114 0.903609 0.797757 0.401767
C24   C     C_R   0.259886 0.403610 0.202243 0.401767
H1    H     H_    0.859364 0.331626 0.810550 0.179365
H2    H     H_    0.140636 0.831625 0.189450 0.179365
H3    H     H_    0.803136 0.813645 0.890287 0.141434
H4    H     H_    0.196864 0.313646 0.109713 0.141434
H5    H     H_    0.639878 0.913783 0.690195 0.199753
H6    H     H_    0.360122 0.413784 0.309805 0.199752
C25   C     C_3   0.271550 0.220680 0.823809 0.269971
C26   C     C_3   0.728450 0.720680 0.176191 0.269971
C27   C     C_3   0.229123 0.903029 0.774821 0.339941
C28   C     C_3   0.770877 0.403029 0.225179 0.339941
C29   C     C_3   0.275921 0.913044 0.722833 -0.371058
C30   C     C_3   0.724079 0.413044 0.277166 -0.371058
H7    H     H_    0.367916 0.136760 0.801203 0.217124
H8    H     H_    0.632083 0.636760 0.198797 0.217124
H9    H     H_    0.257814 0.839578 0.821450 0.156599
H10   H     H_    0.742186 0.339578 0.178550 0.156599
H11   H     H_    0.321900 0.833404 0.742922 0.143592
H12   H     H_    0.678100 0.333404 0.257078 0.143592
H13   H     H_    0.253353 0.847207 0.674085 0.225975
H14   H     H_    0.746647 0.347207 0.325914 0.225975
C31   C     C_1   0.378930 0.143717 0.624954 -0.111575
C32   C     C_1   0.621070 0.643718 0.375046 -0.111576
C33   C     C_3   0.208244 0.104357 0.792159 -0.043631
C34   C     C_3   0.791756 0.604357 0.207841 -0.043631
C35   C     C_3   0.322756 0.214704 0.777103 -0.376589
C36   C     C_3   0.677244 0.714704 0.222897 -0.376589
C37   C     C_3   0.293162 0.119961 0.709060 0.091530
C38   C     C_3   0.706838 0.619961 0.290940 0.091530
C39   C     C_3   0.228259 0.222026 0.678147 -0.311328
C40   C     C_3   0.771741 0.722026 0.321853 -0.311328
C41   C     C_3   0.177116 0.200223 0.724074 -0.343402
C42   C     C_3   0.822884 0.700223 0.275925 -0.343402
C43   C     C_1   0.340481 0.131728 0.662765 -0.001296
C44   C     C_1   0.659519 0.631728 0.337235 -0.001296
C45   C     C_1   0.160082 0.099616 0.837965 0.178787
C46   C     C_1   0.839918 0.599616 0.162035 0.178787
C47   C     C_1   0.121209 0.090870 0.875444 -0.033288
C48   C     C_1   0.878791 0.590870 0.124555 -0.033287
H15   H     H_    0.156559 0.337354 0.733347 0.253867
H16   H     H_    0.843441 0.837354 0.266653 0.253867
H17   H     H_    0.134671 0.119927 0.696015 0.245128
H18   H     H_    0.865329 0.619927 0.303985 0.245128
H19   H     H_    0.238599 0.373083 0.671437 0.212965
H20   H     H_    0.761401 0.873083 0.328562 0.212964
H21   H     H_    0.256171 0.369306 0.826837 0.159344
H22   H     H_    0.743829 0.869306 0.173162 0.159344
H23   H     H_    0.338517 0.360516 0.768427 0.152615
H24   H     H_    0.661483 0.860516 0.231573 0.152615
H25   H     H_    0.207429 0.163761 0.627399 0.188181
H26   H     H_    0.792571 0.663761 0.372601 0.188182
O11   O     O_R   0.942280 0.741210 0.056360 -0.533307
O12   O     O_R   0.057720 0.241210 0.943640 -0.533307
O13   O     O_R   0.077070 0.409690 0.071960 -0.539726
O14   O     O_R   0.922930 0.909690 0.928040 -0.539727
C49   C     C_R   0.101740 0.577221 0.089026 0.721589
C50   C     C_R   0.898260 0.077220 0.910973 0.721589
O15   O     O_R   0.943940 0.411580 0.064250 -0.527115
O16   O     O_R   0.056060 0.911580 0.935750 -0.527115
O17   O     O_R   0.923670 0.239840 0.935920 -0.539869
O18   O     O_R   0.076330 0.739840 0.064080 -0.539869
C51   C     C_R   0.924354 0.580345 0.078993 0.706315
C52   C     C_R   0.075646 0.080345 0.921007 0.706315
O19   O     O_3   0.993540 0.572620 0.957940 -0.372634
O20   O     O_3   0.006460 0.072620 0.042060 -0.372634
V3    V     V_3+5 0.001200 0.298330 0.007800 1.511603
V4    V     V_3+5 0.998800 0.798330 0.992200 1.511603
O21   O     O_3   0.803906 0.486204 0.706311 -0.614817
H27   H     H_    0.779385 0.593225 0.682072 0.353000
O22   O     O_3   0.196093 0.986203 0.293689 -0.614817
H28   H     H_    0.220614 0.093224 0.317928 0.353000
O23   O     O_3   0.698274 0.750873 0.793127 -0.641242
H29   H     H_    0.713340 0.666814 0.832157 0.308194
O24   O     O_3   0.301726 0.250874 0.206872 -0.641242
H30   H     H_    0.286660 0.166815 0.167842 0.308194
S1    S     S_3+6 0.714669 0.439928 0.567371 -0.003992
O25   O     O_2   0.686296 0.329611 0.505092 -0.348900
O26   O     O_2   0.675270 0.616340 0.569179 -0.358183
O27   O     O_3   0.792801 0.497757 0.564564 -0.473447
H31   H     H_    0.789265 0.576690 0.523797 0.371034
S2    S     S_3+6 0.285331 0.939927 0.432629 -0.003992
O28   O     O_2   0.313704 0.829610 0.494908 -0.348900
O29   O     O_2   0.324730 0.116339 0.430821 -0.358183
O30   O     O_3   0.207199 0.997756 0.435436 -0.473447
H32   H     H_    0.210735 0.076688 0.476204 0.371034
S3    S     S_3+6 0.310891 0.158460 0.908922 0.004826
O31   O     O_2   0.363859 0.300647 0.933625 -0.289843
O32   O     O_2   0.262234 0.161747 0.954682 -0.339521
O33   O     O_3   0.345837 0.944820 0.911528 -0.506388
H33   H     H_    0.366678 0.925079 0.959416 0.393159
S4    S     S_3+6 0.689109 0.658460 0.091078 0.004826
O34   O     O_2   0.636141 0.800647 0.066375 -0.289843
O35   O     O_2   0.737766 0.661747 0.045318 -0.339521
O36   O     O_3   0.654163 0.444819 0.088472 -0.506388
H34   H     H_    0.633322 0.425079 0.040583 0.393159
S5    S     S_3+6 0.159358 0.746217 0.749246 -0.061871
O37   O     O_2   0.163552 0.646755 0.685019 -0.355034
O38   O     O_2   0.161172 0.606097 0.804907 -0.375341
O39   O     O_3   0.086072 0.856380 0.737671 -0.511189
H35   H     H_    0.052835 0.754554 0.731106 0.381069
S6    S     S_3+6 0.840642 0.246217 0.250754 -0.061871
O40   O     O_2   0.836448 0.146755 0.314981 -0.355034
O41   O     O_2   0.838828 0.106097 0.195093 -0.375341
O42   O     O_3   0.913928 0.356380 0.262329 -0.511189
H36   H     H_    0.947165 0.254554 0.268894 0.381069

loop_
_geom_bond_atom_site_label_1
_geom_bond_atom_site_label_2
_ccdc_geom_bond_type
C40   C42   S    
C37   C39   S    
S4    O34   D    
C39   H19   S    
O18   V4    S    
C15   C17   A    
S1    O25   D    
C41   H17   S    
S5    O39   S    
O2    C4    A    
C2    O7    A    
O12   V3    S    
S5    O38   D    
C30   H12   S    
C26   S4    S    
C21   H3    S    
C1    C32   S    
C22   H4    S    
C6    C49   S    
C26   H22   S    
C29   C37   S    
C30   C38   S    
C39   C41   S    
C27   H9    S    
C28   H10   S    
S2    O28   D    
C35   C37   S    
O14   V4    S    
O5    C3    A    
C36   C38   S    
C33   C41   S    
C49   O18   A    
C37   C43   S    
S3    O33   S    
O1    C3    A    
O23   H29   S    
C20   H2    S    
O13   C49   A    
C25   S3    S    
C25   C33   S    
C29   H11   S    
C28   C34   S    
O5    V1    S    
O6    V2    S    
C2    C31   S    
C5    C50   S    
C5    C21   A    
S6    O42   S    
O27   H31   S    
C48   C51   S    
C27   C29   S    
C42   H18   S    
C47   C52   S    
O42   H36   S    
C28   C30   S    
C3    C8    S    
H7    C35   S    
C8    C12   A    
C46   C48   T    
C35   H23   S    
C13   H5    S    
C11   S1    S    
C45   C47   T    
C32   C44   T    
S4    O36   S    
C15   C23   A    
C9    C17   A    
C50   O17   A    
C19   H1    S    
C38   C40   S    
O4    V2    S    
C7    C11   A    
O11   V4    S    
O14   C50   A    
O6    C4    A    
O20   V4    S    
S1    O26   D    
O1    V2    S    
C39   H25   S    
O2    V1    S    
C6    C22   A    
C16   C24   A    
S3    O31   D    
C34   C46   S    
S6    O41   D    
O19   V3    S    
C27   S5    S    
C38   C44   S    
C9    C11   A    
C13   C15   A    
C5    C19   A    
C10   C12   A    
O4    C2    A    
C6    C20   A    
O15   V3    S    
S5    O37   D    
O15   C51   A    
C24   O24   S    
O3    V1    S    
C25   C35   S    
C29   H13   S    
O36   H34   S    
C30   H14   S    
C36   H24   S    
C27   C33   S    
S4    O35   D    
C10   C18   A    
C25   H21   S    
O13   V3    S    
S6    O40   D    
O3    C1    A    
C40   H26   S    
O30   H32   S    
C12   S2    S    
O39   H35   S    
C42   H16   S    
C10   O22   S    
C40   H20   S    
O22   H28   S    
C14   C16   A    
S2    O30   S    
C26   C36   S    
C16   C18   A    
O7    V1    S    
C1    O8    A    
C17   C19   A    
O8    V2    S    
O24   H30   S    
C18   C20   A    
C8    C14   A    
C26   C34   S    
H8    C36   S    
C4    C7    S    
O20   V3    S    
C21   C23   A    
S2    O29   D    
S1    O27   S    
C22   C24   A    
C14   H6    S    
C7    C13   A    
S3    O32   D    
C23   O23   S    
C28   S6    S    
C9    O21   S    
O19   V4    S    
C41   H15   S    
C34   C42   S    
O9    V2    S    
O21   H27   S    
O16   C52   A    
O10   V1    S    
C31   C43   T    
O12   C52   A    
O17   V3    S    
O16   V4    S    
C33   C45   S    
O33   H33   S    
O11   C51   A    
