data_mof_unit_45193.cif
_audit_creation_date              2012-12-10T16:51:32-0500
_audit_creation_method            fapswitch 2.2
_symmetry_space_group_name_H-M    P1
_symmetry_Int_Tables_number       1
_space_group_crystal_system       triclinic
_cell_length_a                    7.863655
_cell_length_b                    8.563208
_cell_length_c                    12.129624
_cell_angle_alpha                 92.692452
_cell_angle_beta                  101.306994
_cell_angle_gamma                 93.936944
_cell_volume                      797.51648608

loop_
_atom_site_label
_atom_site_type_symbol
_atom_type_description
_atom_site_fract_x
_atom_site_fract_y
_atom_site_fract_z
_atom_type_partial_charge
C1    C     C_R   0.044384 0.794535 0.497394 0.946772
C2    C     C_R   0.160423 0.501401 0.831794 -0.122980
C3    C     C_2   0.068249 0.958346 0.497184 -0.396186
C4    C     C_R   0.106070 0.502783 0.710125 0.834385
C5    C     C_2   0.931884 0.041801 0.501450 -0.380970
C6    C     C_R   0.955624 0.205520 0.502312 0.944933
C7    C     C_R   0.892553 0.488321 0.289873 0.861407
C8    C     C_R   0.815648 0.293789 0.000862 -0.185217
C9    C     C_R   0.831057 0.458268 0.170064 -0.064371
C10   C     C_R   0.072506 0.587294 0.900940 -0.188361
C11   C     C_R   0.145086 0.619583 0.014016 -0.130952
C12   C     C_R   0.400095 0.485605 0.988630 0.074306
C13   C     C_R   0.309006 0.572323 0.057645 -0.199965
C14   C     C_3   0.567949 0.758938 0.641070 0.230775
C15   C     C_3   0.649694 0.812705 0.763872 -0.383395
C16   C     C_3   0.822380 0.910927 0.773618 -0.963622
C17   C     C_R   0.314767 0.434619 0.878579 0.082469
C18   C     C_R   0.572701 0.447074 0.025352 0.074133
C19   C     C_R   0.647463 0.338482 0.960452 0.162350
C20   C     C_R   0.551478 0.273324 0.858001 -0.237525
C21   C     C_R   0.386742 0.320300 0.817496 -0.162924
C22   C     C_R   0.673641 0.515096 0.124984 -0.272315
C23   C     C_R   0.905619 0.350233 0.107420 -0.187228
H1    H     H_    0.028884 0.305252 0.142384 0.156721
H2    H     H_    0.647336 0.806305 0.582514 0.138650
H3    H     H_    0.558781 0.884098 0.800158 0.184941
H4    H     H_    0.670730 0.709793 0.815960 0.247126
H5    H     H_    0.915669 0.843860 0.736605 0.285015
H6    H     H_    0.879581 0.942275 0.863715 0.253422
H7    H     H_    0.801647 0.020416 0.728952 0.254893
H8    H     H_    0.358617 0.601062 0.146161 0.135194
H9    H     H_    0.076429 0.685525 0.067298 0.146317
H10   H     H_    0.197631 0.009799 0.494457 0.170947
H11   H     H_    0.802408 0.990703 0.503174 0.163911
H12   H     H_    0.463670 0.397057 0.402033 0.142984
H13   H     H_    0.604208 0.187341 0.808566 0.153847
H14   H     H_    0.873833 0.210472 0.952526 0.140878
H15   H     H_    0.628872 0.607862 0.172697 0.146340
H16   H     H_    0.950269 0.633307 0.866963 0.176264
H17   H     H_    0.315224 0.264419 0.738559 0.162975
H18   H     H_    0.441507 0.811048 0.619250 0.103869
N1    N     N_2   0.434800 0.456690 0.470850 -0.102479
N2    N     N_2   0.565200 0.543310 0.529150 0.101768
O1    O     O_R   0.893060 0.738880 0.507150 -0.628049
O2    O     O_R   0.172250 0.711130 0.488470 -0.627779
O3    O     O_R   0.944700 0.520730 0.667600 -0.593474
O4    O     O_R   0.223890 0.492980 0.648920 -0.558254
O5    O     O_R   0.827750 0.288870 0.511530 -0.628293
O6    O     O_R   0.106940 0.261120 0.492850 -0.621100
O7    O     O_R   0.776110 0.507020 0.351080 -0.637156
O8    O     O_R   0.055300 0.479270 0.332400 -0.627920
O9    O     O_3   0.537312 0.594064 0.630331 -0.508370
Zn1   Zn    Zn3+2 0.813580 0.518530 0.512470 0.968523
Zn2   Zn    Zn3+2 0.186420 0.481470 0.487530 0.962770

loop_
_geom_bond_atom_site_label_1
_geom_bond_atom_site_label_2
_ccdc_geom_bond_type
C12   C17   A    
C16   H5    S    
C2    C4    S    
C23   H1    S    
O2    Zn2   S    
C1    O1    A    
C15   H4    S    
C19   C20   A    
O8    Zn2   S    
C5    H11   S    
C20   C21   A    
C7    O8    A    
C6    O6    A    
C4    O3    A    
N1    Zn2   S    
C2    C17   A    
C11   C13   A    
C1    O2    A    
C5    C6    S    
C21   H17   S    
C6    O5    A    
O4    Zn2   S    
O3    Zn1   S    
C20   H13   S    
N2    Zn1   S    
C11   H9    S    
C14   H18   S    
C14   H2    S    
O5    Zn1   S    
N2    O9    S    
C14   O9    S    
C9    C22   A    
C8    C19   A    
C8    H14   S    
C3    H10   S    
C16   H7    S    
C15   C16   S    
O7    Zn1   S    
C8    C23   A    
C12   C13   A    
C7    O7    A    
C18   C19   A    
C10   C11   A    
C12   C18   A    
C7    C9    S    
H12   N1    S    
C14   C15   S    
C9    C23   A    
C15   H3    S    
C3    C5    D    
C16   H6    S    
C18   C22   A    
O1    Zn1   S    
C13   H8    S    
C2    C10   A    
C17   C21   A    
O6    Zn2   S    
N1    N2    D    
C10   H16   S    
C1    C3    S    
C4    O4    A    
C22   H15   S    
