data_mof_unit_57434.cif
_audit_creation_date              2012-12-10T17:48:18-0500
_audit_creation_method            fapswitch 2.2
_symmetry_space_group_name_H-M    P1
_symmetry_Int_Tables_number       1
_space_group_crystal_system       triclinic
_cell_length_a                    13.855689
_cell_length_b                    14.786816
_cell_length_c                    14.932007
_cell_angle_alpha                 116.189797
_cell_angle_beta                  107.908655
_cell_angle_gamma                 72.506799
_cell_volume                      2563.0417389

loop_
_atom_site_label
_atom_site_type_symbol
_atom_type_description
_atom_site_fract_x
_atom_site_fract_y
_atom_site_fract_z
_atom_type_partial_charge
C1    C     C_R   0.518946 0.118755 0.687910 0.795496
C2    C     C_R   0.484302 0.881458 0.312134 0.819385
C3    C     C_R   0.549210 0.361941 0.917898 0.018741
C4    C     C_R   0.513117 0.645669 0.071909 0.016877
C5    C     C_R   0.620217 0.323120 0.990161 0.119978
C6    C     C_R   0.446020 0.683778 0.997398 0.116882
C7    C     C_R   0.520838 0.469854 0.942424 0.099916
C8    C     C_R   0.555051 0.538404 0.043169 0.097883
C9    C     C_R   0.627949 0.497031 0.112136 -0.276278
C10   C     C_R   0.460610 0.511411 0.869024 -0.269492
C11   C     C_R   0.659880 0.391820 0.085911 -0.175036
C12   C     C_R   0.425133 0.616179 0.895934 -0.171426
C13   C     C_R   0.304643 0.306546 0.349528 -0.310416
C14   C     C_R   0.644348 0.727351 0.694789 -0.309145
C15   C     C_R   0.343313 0.218360 0.370871 0.000339
C16   C     C_R   0.630106 0.799493 0.653717 -0.011561
C17   C     C_R   0.488870 0.288507 0.490213 0.607801
C18   C     C_R   0.516427 0.708879 0.505900 0.629486
C19   C     C_R   0.445176 0.385275 0.479231 -0.104389
C20   C     C_R   0.520840 0.637561 0.548368 -0.117806
C21   C     C_R   0.355816 0.389551 0.402200 0.109867
C22   C     C_R   0.589302 0.647147 0.643217 0.108258
C23   C     C_R   0.686883 0.986505 0.503878 0.785098
C24   C     C_R   0.313072 0.013249 0.495758 0.818237
C25   C     C_R   0.489486 0.476043 0.536844 0.104578
C26   C     C_R   0.462085 0.556591 0.500419 0.068525
C27   C     C_R   0.372021 0.557366 0.423824 -0.192942
C28   C     C_R   0.548481 0.496347 0.636210 -0.188533
C29   C     C_R   0.318708 0.476481 0.377557 -0.191854
C30   C     C_R   0.598847 0.579032 0.687970 -0.167989
C31   C     C_1   0.207264 0.021317 0.493439 -0.160001
C32   C     C_1   0.792685 0.978539 0.506316 -0.153677
C33   C     C_2   0.012537 0.034211 0.489943 -0.152163
C34   C     C_2   0.987416 0.965877 0.510079 -0.160599
C35   C     C_1   0.881672 0.972179 0.508245 0.014004
C36   C     C_1   0.118276 0.027810 0.491647 0.010370
C37   C     C_R   0.544126 0.186068 0.795665 -0.089482
C38   C     C_R   0.475813 0.816007 0.203311 -0.080025
C39   C     C_R   0.651416 0.216112 0.965310 0.408638
C40   C     C_R   0.398902 0.788623 0.025572 0.408176
C41   C     C_R   0.614083 0.148175 0.867006 -0.289736
C42   C     C_R   0.412795 0.853642 0.129127 -0.285514
C43   C     C_R   0.507785 0.291410 0.823530 -0.278820
C44   C     C_R   0.530387 0.715297 0.173884 -0.260070
Cu1   Cu    Cu3+1 0.526370 0.916390 0.524860 0.976457
Cu2   Cu    Cu3+1 0.473630 0.083610 0.475140 0.961465
H1    H     H_    0.046003 0.904926 0.527910 0.161204
H2    H     H_    0.953948 0.095154 0.472099 0.167933
H3    H     H_    0.234356 0.310151 0.292539 0.154133
H4    H     H_    0.695620 0.736179 0.768237 0.154420
H5    H     H_    0.337597 0.622638 0.402475 0.201597
H6    H     H_    0.546397 0.456678 0.680040 0.125296
H7    H     H_    0.715685 0.364559 0.141986 0.198506
H8    H     H_    0.377608 0.643510 0.836796 0.201860
H9    H     H_    0.583570 0.693075 0.233249 0.148835
H10   H     H_    0.447521 0.316215 0.768856 0.158304
H11   H     H_    0.372518 0.932970 0.151867 0.149220
H12   H     H_    0.642172 0.066178 0.845362 0.144187
H13   H     H_    0.663837 0.543894 0.186941 0.141265
H14   H     H_    0.440115 0.465008 0.789204 0.136568
H15   H     H_    0.249117 0.480934 0.319983 0.146420
H16   H     H_    0.644189 0.590609 0.764321 0.144088
H17   H     H_    0.668307 0.864550 0.696488 0.147195
H18   H     H_    0.301461 0.155829 0.332536 0.148642
N1    N     N_R   0.433980 0.209250 0.437830 -0.207713
N2    N     N_R   0.566020 0.790750 0.562170 -0.211806
O1    O     O_R   0.534760 0.019630 0.662610 -0.587364
O2    O     O_R   0.465240 0.980370 0.337390 -0.587844
O3    O     O_R   0.490220 0.160840 0.620610 -0.601753
O4    O     O_R   0.509780 0.839160 0.379390 -0.528404
O5    O     O_R   0.663260 0.919400 0.523940 -0.586358
O6    O     O_R   0.336740 0.080600 0.476060 -0.588974
O7    O     O_R   0.618720 0.060610 0.481950 -0.528776
O8    O     O_R   0.381280 0.939390 0.518050 -0.546196
O9    O     O_3   0.720395 0.179766 0.036785 -0.747125
H19   H     H_    0.733764 0.103601 0.007092 0.324521
O10   O     O_3   0.336307 0.824792 0.951586 -0.746958
H20   H     H_    0.309582 0.899431 0.984332 0.325307
O11   O     O_3   0.465404 0.695598 0.407194 -0.577217
C45   C     C_3   0.525915 0.613904 0.340506 -0.333417
H21   H     H_    0.535758 0.539522 0.346935 0.165480
H22   H     H_    0.603544 0.630507 0.354228 0.155003
H23   H     H_    0.485350 0.603592 0.261099 0.206253
O12   O     O_3   0.595687 0.263835 0.521301 -0.566901
C46   C     C_3   0.627055 0.273978 0.624305 -0.220178
H24   H     H_    0.684052 0.325494 0.664404 0.153079
H25   H     H_    0.669908 0.200110 0.630403 0.182132
H26   H     H_    0.563274 0.304226 0.666183 0.126031

loop_
_geom_bond_atom_site_label_1
_geom_bond_atom_site_label_2
_ccdc_geom_bond_type
C7    C10   A    
C27   C29   A    
C4    C8    A    
C7    C8    A    
C39   C41   A    
O10   H20   S    
C25   C28   A    
Cu2   O2    S    
C3    C43   A    
C26   C27   A    
C19   C21   A    
C41   H12   S    
C5    C11   A    
C3    C7    A    
C2    O2    A    
C6    C12   A    
Cu1   O5    S    
C15   N1    A    
C33   C36   S    
C18   C20   A    
C34   C35   S    
Cu2   O3    S    
C1    O1    A    
C18   O11   S    
Cu1   O1    S    
C15   H18   S    
C16   H17   S    
C39   O9    S    
Cu2   O6    S    
C11   H7    S    
C1    C37   S    
C40   C42   A    
C23   O7    A    
C45   H23   S    
C42   H11   S    
C27   H5    S    
C46   H25   S    
C29   H15   S    
C32   C35   T    
C23   O5    A    
O12   C46   S    
Cu2   N1    S    
C4    C6    A    
C8    C9    A    
C4    C44   A    
C25   C26   A    
C46   H24   S    
C21   C29   A    
C1    O3    A    
Cu1   O8    S    
C9    H13   S    
C37   C43   A    
C10   H14   S    
O9    H19   S    
C38   C44   A    
C2    C38   S    
C33   C34   D    
C13   C21   A    
C9    C11   A    
C10   C12   A    
C13   H3    S    
C45   H22   S    
C20   C22   A    
C13   C15   A    
C6    C40   A    
C16   N2    A    
C24   O6    A    
C46   H26   S    
C5    C39   A    
C22   C30   A    
Cu1   O4    S    
C31   C36   T    
C45   H21   S    
C3    C5    A    
C38   C42   A    
C18   N2    A    
C17   N1    A    
C17   O12   S    
C23   C32   S    
C14   C22   A    
C30   H16   S    
C24   C31   S    
C28   H6    S    
C44   H9    S    
C24   O8    A    
C14   H4    S    
C20   C26   A    
C28   C30   A    
C17   C19   A    
C14   C16   A    
C37   C41   A    
C19   C25   A    
O11   C45   S    
Cu1   Cu2   S    
C43   H10   S    
Cu1   N2    S    
C33   H2    S    
C40   O10   S    
C34   H1    S    
C2    O4    A    
Cu2   O7    S    
C12   H8    S    
