data_mof_unit_16769.cif
_audit_creation_date              2013-03-05T16:48:39-0500
_audit_creation_method            fapswitch 2.2
_symmetry_space_group_name_H-M    P1
_symmetry_Int_Tables_number       1
_space_group_crystal_system       triclinic
_cell_length_a                    27.684213
_cell_length_b                    8.918579
_cell_length_c                    8.09425
_cell_angle_alpha                 89.947966
_cell_angle_beta                  89.998446
_cell_angle_gamma                 90.004573
_cell_volume                      1998.50058128

loop_
_atom_site_label
_atom_site_type_symbol
_atom_site_description
_atom_site_fract_x
_atom_site_fract_y
_atom_site_fract_z
_atom_type_partial_charge
O1    O     O_R   0.500000 0.285350 0.636850 -0.620481
O2    O     O_R   0.500000 0.714650 0.363150 -0.618078
O3    O     O_R   0.500000 0.714650 0.636850 -0.602144
O4    O     O_R   0.500000 0.285350 0.363150 -0.594751
C1    C     C_R   0.499985 0.217969 0.500074 0.981365
C2    C     C_R   0.499998 0.782030 0.499955 0.970684
O5    O     O_R   0.428760 0.500000 0.636860 -0.597475
O6    O     O_R   0.571240 0.500000 0.363140 -0.597097
O7    O     O_R   0.571240 0.500000 0.636860 -0.597586
O8    O     O_R   0.428760 0.500000 0.363140 -0.597019
C3    C     C_R   0.405975 0.499474 0.499972 0.994176
C4    C     C_R   0.594023 0.499494 0.499967 0.994509
Zn1   Zn    Zn3+2 0.500000 0.500000 0.682780 1.079149
Zn2   Zn    Zn3+2 0.500000 0.500000 0.317220 1.081721
C5    C     C_R   0.178203 0.404597 0.635390 0.515569
C6    C     C_R   0.821856 0.488282 0.355553 0.518926
C7    C     C_R   0.178081 0.490348 0.355996 0.518913
C8    C     C_R   0.821793 0.404554 0.635698 0.515494
O9    O     O_2   0.203391 0.367043 0.772147 -0.519820
O10   O     O_2   0.796769 0.533061 0.221238 -0.519861
O11   O     O_2   0.203140 0.536308 0.222080 -0.520607
O12   O     O_2   0.796639 0.368032 0.772843 -0.519170
N1    N     N_R   0.201987 0.452810 0.497555 -0.345632
N2    N     N_R   0.797981 0.451787 0.497507 -0.345706
C9    C     C_R   0.275300 0.597882 0.556560 0.128063
C10   C     C_R   0.718383 0.340875 0.446916 0.129114
C11   C     C_R   0.281511 0.341878 0.445748 0.128684
C12   C     C_R   0.724761 0.597618 0.555480 0.128482
C13   C     C_R   0.325830 0.609038 0.556568 0.202243
C14   C     C_R   0.667970 0.354302 0.445479 0.205151
C15   C     C_R   0.331934 0.354995 0.444475 0.205103
C16   C     C_R   0.674237 0.609022 0.555556 0.202186
C17   C     C_R   0.253402 0.463967 0.500995 0.229658
C18   C     C_R   0.746571 0.463192 0.501058 0.229542
C19   C     C_R   0.102066 0.434645 0.491229 -0.049567
C20   C     C_R   0.897907 0.433874 0.491168 -0.049441
C21   C     C_R   0.127778 0.394806 0.634929 -0.036669
C22   C     C_R   0.872245 0.479699 0.349581 -0.035297
C23   C     C_R   0.127696 0.481553 0.349987 -0.035414
C24   C     C_R   0.872220 0.394804 0.635176 -0.036533
C25   C     C_R   0.102820 0.346934 0.774803 -0.143723
C26   C     C_R   0.897210 0.516732 0.205823 -0.141530
C27   C     C_R   0.102704 0.519464 0.206559 -0.141239
C28   C     C_R   0.897207 0.347831 0.775343 -0.144162
C29   C     C_R   0.353725 0.488140 0.499864 -0.233295
C30   C     C_R   0.646266 0.487912 0.499849 -0.233340
H1    H     H_    0.121867 0.314542 0.886256 0.194618
H2    H     H_    0.878190 0.551102 0.095063 0.196210
H3    H     H_    0.121699 0.554911 0.096119 0.196179
H4    H     H_    0.878182 0.316101 0.887045 0.194479
C31   C     C_R   0.974378 0.383353 0.633902 0.044435
C32   C     C_R   0.025593 0.470468 0.343245 0.044560
C33   C     C_R   0.974360 0.469839 0.343096 0.044815
C34   C     C_R   0.025625 0.383216 0.633789 0.044180
C35   C     C_R   0.949112 0.428485 0.489205 0.077148
C36   C     C_R   0.050865 0.428911 0.489233 0.077045
C37   C     C_R   0.947207 0.341878 0.775069 -0.229463
C38   C     C_R   0.052732 0.513891 0.202728 -0.230384
C39   C     C_R   0.947188 0.511670 0.202090 -0.230778
C40   C     C_R   0.052822 0.340877 0.774581 -0.229187
H5    H     H_    0.963160 0.305015 0.889151 0.145991
H6    H     H_    0.036784 0.546229 0.086955 0.146706
H7    H     H_    0.963112 0.542716 0.085891 0.146416
H8    H     H_    0.036892 0.302902 0.888300 0.146260
C41   C     C_1   0.499984 0.065200 0.500130 -0.074637
C42   C     C_1   0.499990 0.934784 0.499960 -0.082103
N3    N     N_1   0.500000 0.500000 0.073640 -0.000676
N4    N     N_1   0.500000 0.500000 0.926360 -0.001937
Br1   Br    Br    0.371297 0.188471 0.371271 -0.449188
Br2   Br    Br    0.643158 0.792260 0.626584 -0.448410
Br3   Br    Br    0.357017 0.791734 0.628821 -0.448189
Br4   Br    Br    0.628500 0.187648 0.373320 -0.449070
C43   C     C_3   0.258309 0.197408 0.388386 -0.707124
H9    H     H_    0.268079 0.176055 0.257466 0.270452
H10   H     H_    0.271328 0.102936 0.465902 0.258219
H11   H     H_    0.218371 0.198231 0.396489 0.211183
C44   C     C_3   0.754786 0.729596 0.612107 -0.718928
H12   H     H_    0.745659 0.757345 0.742102 0.270288
H13   H     H_    0.794198 0.708811 0.606581 0.213971
H14   H     H_    0.747130 0.828127 0.532446 0.247384
C45   C     C_3   0.245363 0.729566 0.614524 -0.717722
H15   H     H_    0.254530 0.756225 0.744774 0.270369
H16   H     H_    0.253066 0.828716 0.535839 0.247464
H17   H     H_    0.205938 0.709038 0.608888 0.213850
C46   C     C_3   0.741486 0.195826 0.390941 -0.707785
H18   H     H_    0.731744 0.173584 0.260180 0.270394
H19   H     H_    0.781422 0.196422 0.399232 0.211220
H20   H     H_    0.728363 0.102060 0.469266 0.258652

loop_
_geom_bond_atom_site_label_1
_geom_bond_atom_site_label_2
_geom_bond_distance
_ccdc_geom_bond_type
C38   H6    1.075085 S    
C43   H9    1.110288 S    
O3    C2    1.260047 A    
C45   H15   1.110363 S    
C33   C39   1.416685 A    
C34   C40   1.416856 A    
C46   H18   1.110279 S    
C11   C17   1.411431 A    
C5    O9    1.350245 S    
C7    N1    1.364686 A    
C2    C42   1.362346 S    
C21   C25   1.393025 A    
O1    C1    1.260164 A    
C19   C21   1.408971 A    
C22   C26   1.392830 A    
C44   H14   1.109910 S    
C7    C23   1.397903 A    
C8    C24   1.398742 A    
C5    C21   1.398698 A    
C20   C24   1.408896 A    
O7    Zn1   2.006930 S    
C27   C38   1.384673 A    
C10   C18   1.411326 A    
N1    C17   1.427127 S    
Zn2   N3    1.971597 S    
C31   C37   1.416820 A    
O3    Zn1   1.949805 S    
C6    O10   1.350220 S    
C33   C35   1.422089 A    
C12   C18   1.413161 A    
C6    N2    1.364660 A    
C9    C45   1.512439 S    
C43   H10   1.110216 S    
O2    C2    1.260364 A    
C45   H16   1.109957 S    
O5    C3    1.275000 A    
C44   H13   1.107633 S    
C9    C13   1.402395 A    
C34   C36   1.422119 A    
C46   H19   1.107630 S    
C11   C15   1.400834 A    
N3    N4    1.192120 T    
C12   C16   1.402415 A    
C4    C30   1.449979 S    
O8    Zn2   2.006932 S    
C27   H3    1.083979 S    
C16   Br2   1.934790 S    
C44   H12   1.110277 S    
C7    O11   1.350319 S    
C13   C29   1.403789 A    
C19   C23   1.408741 A    
C15   Br1   1.935501 S    
C14   Br4   1.935359 S    
C24   C28   1.393001 A    
C28   C37   1.385246 A    
O6    C4    1.274551 A    
C25   H1    1.083936 S    
C26   H2    1.083754 S    
C12   C44   1.512392 S    
C32   C38   1.416765 A    
C1    C41   1.362482 S    
C10   C14   1.400813 A    
C43   H11   1.107611 S    
C8    N2    1.364705 A    
C3    C29   1.450034 S    
O1    Zn1   1.950469 S    
C45   H17   1.107616 S    
C32   C33   1.418351 A    
C46   H20   1.110058 S    
C28   H4    1.083714 S    
O6    Zn2   2.006949 S    
C19   C36   1.418468 A    
C8    O12   1.350029 S    
C16   C30   1.403705 A    
C14   C30   1.405597 A    
C25   C40   1.385223 A    
O4    C1    1.260257 A    
C26   C39   1.384677 A    
C23   C27   1.392910 A    
C37   H5    1.074856 S    
C39   H7    1.074753 S    
C40   H8    1.075100 S    
C31   C34   1.418745 A    
C20   C22   1.408679 A    
C20   C35   1.418497 A    
C10   C46   1.512961 S    
C5    N1    1.364630 A    
C31   C35   1.422054 A    
O4    Zn2   1.949806 S    
O2    Zn2   1.950468 S    
O7    C4    1.274986 A    
N2    C18   1.427160 S    
O8    C3    1.274570 A    
O5    Zn1   2.006952 S    
C41   C42   1.163126 T    
C15   C29   1.405657 A    
C9    C17   1.413184 A    
C11   C43   1.513036 S    
C32   C36   1.422137 A    
C6    C22   1.397921 A    
C13   Br3   1.934927 S    
Zn1   N4    1.971597 S    
