data_mof_unit_13689.cif
_audit_creation_date              2012-12-10T18:16:22-0500
_audit_creation_method            fapswitch 2.2
_symmetry_space_group_name_H-M    P1
_symmetry_Int_Tables_number       1
_space_group_crystal_system       triclinic
_cell_length_a                    12.655992
_cell_length_b                    13.237449
_cell_length_c                    27.516507
_cell_angle_alpha                 92.007513
_cell_angle_beta                  103.424858
_cell_angle_gamma                 82.043923
_cell_volume                      4440.7786925

loop_
_atom_site_label
_atom_site_type_symbol
_atom_type_description
_atom_site_fract_x
_atom_site_fract_y
_atom_site_fract_z
_atom_type_partial_charge
C1    C     C_R   0.438872 0.690976 0.496115 0.861558
C2    C     C_R   0.549028 0.549720 0.733944 -0.090850
C3    C     C_R   0.476601 0.488844 0.745829 0.264577
C4    C     C_R   0.413286 0.501372 0.889643 -0.054474
C5    C     C_R   0.387913 0.589032 0.859472 -0.021760
C6    C     C_R   0.342164 0.680569 0.877591 -0.138041
C7    C     C_R   0.457791 0.408863 0.870900 -0.022657
C8    C     C_R   0.503212 0.492795 0.647653 -0.056194
C9    C     C_R   0.482103 0.518905 0.351174 -0.092757
C10   C     C_R   0.356751 0.609470 0.009875 -0.004968
C11   C     C_R   0.401840 0.422729 0.017326 0.054242
C12   C     C_R   0.501774 0.499267 0.594187 0.866515
C13   C     C_R   0.378791 0.519805 0.039115 0.072953
C14   C     C_R   0.338105 0.704371 0.033540 -0.187937
C15   C     C_R   0.343618 0.712504 0.084593 0.119642
C16   C     C_R   0.367554 0.623444 0.114449 -0.069241
C17   C     C_R   0.381113 0.527000 0.090926 -0.074500
C18   C     C_R   0.400130 0.437120 0.119494 -0.017678
C19   C     C_R   0.412216 0.444254 0.171090 0.515150
C20   C     C_R   0.382244 0.626071 0.167055 0.500818
C21   C     C_R   0.350802 0.552300 0.271975 -0.153407
C22   C     C_R   0.373741 0.542443 0.323252 -0.273254
C23   C     C_R   0.561094 0.309356 0.507650 0.885005
C24   C     C_R   0.570116 0.512220 0.326519 0.150180
C25   C     C_R   0.546026 0.524797 0.273834 0.236993
C26   C     C_R   0.435367 0.541254 0.247079 0.290998
C27   C     C_R   0.358574 0.601938 0.958456 0.053998
C28   C     C_R   0.395908 0.506597 0.938782 0.076594
C29   C     C_R   0.418262 0.416852 0.968087 0.043882
C30   C     C_R   0.327513 0.687084 0.926117 -0.218114
C31   C     C_R   0.481154 0.321198 0.900280 -0.137327
C32   C     C_R   0.410448 0.334592 0.046134 -0.218390
C33   C     C_R   0.409819 0.341852 0.096351 -0.136522
C34   C     C_R   0.496709 0.503115 0.405574 0.870111
C35   C     C_R   0.461457 0.324800 0.947883 -0.216571
C36   C     C_R   0.703576 0.057781 0.482652 -0.198571
C37   C     C_R   0.598364 0.200428 0.513107 -0.053093
C38   C     C_R   0.330975 0.824761 0.537318 0.200872
C39   C     C_R   0.339786 0.913333 0.565951 -0.138139
C40   C     C_R   0.416298 0.976198 0.562078 -0.267919
C41   C     C_R   0.475269 0.961636 0.524179 0.081834
C42   C     C_R   0.470016 0.870294 0.496048 0.043563
C43   C     C_R   0.544659 0.031314 0.515155 0.048492
C44   C     C_R   0.624929 0.996688 0.487385 0.138644
C45   C     C_R   0.408723 0.582906 0.811572 0.505865
C46   C     C_R   0.620066 0.905497 0.460866 -0.235904
C47   C     C_R   0.537499 0.847927 0.461747 -0.183472
C48   C     C_R   0.530302 0.136765 0.527103 0.039683
C49   C     C_R   0.691510 0.159315 0.496674 -0.255438
C50   C     C_R   0.403947 0.798677 0.505327 -0.131371
C51   C     C_R   0.091060 0.335396 0.433729 0.026038
C52   C     C_R   0.800183 0.637601 0.555086 0.277786
C53   C     C_R   0.905117 0.665979 0.565751 -0.298169
C54   C     C_R   0.986738 0.609801 0.546507 -0.200526
C55   C     C_R   0.964523 0.524159 0.515789 0.043548
C56   C     C_R   0.479765 0.406631 0.823262 0.507821
C57   C     C_R   0.856361 0.498560 0.505640 0.149337
C58   C     C_R   0.043998 0.466704 0.493001 -0.088269
C59   C     C_R   0.013756 0.384612 0.459720 0.105556
C60   C     C_R   0.905650 0.358235 0.451952 0.161898
C61   C     C_R   0.830173 0.416774 0.474409 -0.241871
C62   C     C_R   0.152801 0.489406 0.501706 -0.098802
C63   C     C_R   0.191565 0.373054 0.438440 0.272993
C64   C     C_R   0.420927 0.427200 0.709358 -0.109446
C65   C     C_R   0.434658 0.428587 0.660901 -0.267175
C66   C     C_R   0.562727 0.553007 0.684950 0.154788
H1    H     H_    0.364739 0.379971 0.718333 0.156020
H2    H     H_    0.515994 0.249245 0.886807 0.189916
H3    H     H_    0.417496 0.258539 0.030832 0.143970
H4    H     H_    0.420174 0.271972 0.117309 0.189931
H5    H     H_    0.485652 0.254752 0.968763 0.144682
H6    H     H_    0.748063 0.207824 0.489545 0.172195
H7    H     H_    0.676098 0.881761 0.436940 0.153012
H8    H     H_    0.768938 0.029493 0.464276 0.147940
H9    H     H_    0.592256 0.596514 0.762890 0.146393
H10   H     H_    0.430937 0.032909 0.590753 0.155629
H11   H     H_    0.292587 0.930468 0.594120 0.153571
H12   H     H_    0.530706 0.782299 0.437138 0.158986
H13   H     H_    0.184708 0.543122 0.529557 0.147290
H14   H     H_    0.318874 0.748356 0.854550 0.189438
H15   H     H_    0.065277 0.637004 0.555666 0.151719
H16   H     H_    0.923180 0.732171 0.588879 0.155715
H17   H     H_    0.748317 0.399752 0.465138 0.220353
H18   H     H_    0.305090 0.552143 0.341007 0.176806
H19   H     H_    0.266320 0.565929 0.251151 0.155666
H20   H     H_    0.323821 0.775540 0.013751 0.154479
H21   H     H_    0.290503 0.760023 0.936944 0.142930
H22   H     H_    0.389068 0.380765 0.633296 0.174042
N1    N     N_R   0.455502 0.493026 0.794801 -0.349093
N2    N     N_R   0.407602 0.537447 0.193703 -0.344634
N3    N     N_R   0.222180 0.444690 0.474320 -0.109196
N4    N     N_R   0.776980 0.554780 0.525420 -0.120206
O1    O     O_R   0.366730 0.627160 0.487740 -0.606823
O2    O     O_2   0.374289 0.715273 0.191930 -0.581309
O3    O     O_2   0.526045 0.319171 0.805671 -0.564711
O4    O     O_2   0.431536 0.358730 0.198898 -0.560446
O5    O     O_R   0.544830 0.662520 0.504140 -0.593571
O6    O     O_R   0.410970 0.482310 0.563040 -0.623970
O7    O     O_R   0.589070 0.517670 0.579450 -0.589099
O8    O     O_R   0.455170 0.337480 0.495860 -0.593518
O9    O     O_R   0.633270 0.372840 0.512260 -0.645409
O10   O     O_R   0.410930 0.482330 0.420550 -0.622995
O11   O     O_R   0.589030 0.517690 0.436960 -0.632143
O12   O     O_2   0.382018 0.665935 0.781858 -0.567384
Zn1   Zn    Zn3+2 0.381080 0.476390 0.489050 0.937025
Zn2   Zn    Zn3+2 0.618920 0.523610 0.510950 0.945325
C67   C     C_3   0.636051 0.624110 0.673296 -0.881429
H23   H     H_    0.670399 0.669592 0.706460 0.232819
H24   H     H_    0.705851 0.579056 0.660946 0.259019
H25   H     H_    0.588448 0.678228 0.643700 0.251375
C68   C     C_3   0.687088 0.487659 0.355924 -0.871832
H26   H     H_    0.748815 0.474007 0.333020 0.241580
H27   H     H_    0.709813 0.551162 0.381955 0.259454
H28   H     H_    0.693528 0.416508 0.376745 0.243470
C69   C     C_3   0.636900 0.519743 0.246038 -0.880856
H29   H     H_    0.692904 0.576137 0.262093 0.240992
H30   H     H_    0.683229 0.441754 0.248855 0.248717
H31   H     H_    0.606647 0.538127 0.205806 0.236003
N5    N     N_3   0.438253 0.185018 0.545589 -0.448197
H32   H     H_    0.455911 0.184980 0.584592 0.174785
H33   H     H_    0.364868 0.158409 0.527908 0.205731
C70   C     C_3   0.252831 0.754949 0.546310 -0.897929
H34   H     H_    0.198498 0.791568 0.570180 0.226055
H35   H     H_    0.199297 0.735230 0.510202 0.249414
H36   H     H_    0.299347 0.684730 0.565655 0.250825
C71   C     C_3   0.261247 0.339496 0.401366 -0.805731
H37   H     H_    0.346029 0.310163 0.419592 0.273255
H38   H     H_    0.233400 0.277040 0.376086 0.192313
H39   H     H_    0.257847 0.404297 0.376500 0.238467
C72   C     C_3   0.864124 0.271276 0.418839 -0.889232
H40   H     H_    0.777395 0.263979 0.417743 0.210003
H41   H     H_    0.866710 0.284554 0.379563 0.260956
H42   H     H_    0.912522 0.197472 0.433044 0.261308
N6    N     N_3   0.067666 0.248750 0.402238 -0.471825
H43   H     H_    0.058918 0.268256 0.364891 0.194822
H44   H     H_    0.130499 0.188137 0.412909 0.197967
N7    N     N_3   0.716894 0.697239 0.574866 -0.396216
H45   H     H_    0.748173 0.706778 0.613100 0.158054
H46   H     H_    0.703196 0.769803 0.558920 0.185616
N8    N     N_3   0.325438 0.813452 0.104337 -0.449550
H47   H     H_    0.396801 0.829363 0.129519 0.238286
H48   H     H_    0.259943 0.818649 0.121880 0.233857

loop_
_geom_bond_atom_site_label_1
_geom_bond_atom_site_label_2
_ccdc_geom_bond_type
C10   C27   A    
C58   C62   A    
C56   O3    S    
C21   C26   A    
C8    C66   A    
C71   H37   S    
C57   N4    A    
C67   H24   S    
C41   C42   A    
N3    Zn1   S    
C68   H26   S    
C66   C67   S    
C23   O9    A    
C53   C54   A    
N7    H46   S    
O8    Zn1   S    
C34   O10   A    
O6    Zn1   S    
C39   H11   S    
C28   C29   A    
N8    H48   S    
C25   C69   S    
C5    C6    A    
C51   N6    S    
C9    C22   A    
C15   C16   A    
O10   Zn1   S    
C18   C19   A    
C12   O7    A    
O1    Zn1   S    
C54   C55   A    
C16   C17   A    
C69   H30   S    
C49   H6    S    
C67   H23   S    
O11   Zn2   S    
C45   N1    A    
C43   C48   A    
C12   O6    A    
C8    C12   S    
C23   O8    A    
C35   H5    S    
C59   C60   A    
C2    H9    S    
C21   C22   A    
C27   C30   A    
C41   C43   A    
C24   C68   S    
C7    C56   A    
C30   H21   S    
C4    C7    A    
C4    C28   A    
C44   C46   A    
C17   C18   A    
C48   N5    S    
N5    H33   S    
C31   H2    S    
C21   H19   S    
C7    C31   A    
C64   H1    S    
C62   H13   S    
C51   C63   A    
N8    H47   S    
C14   H20   S    
C10   C14   A    
C1    O5    A    
C39   C40   A    
N6    H44   S    
C71   H39   S    
C25   C26   A    
C23   C37   S    
C20   N2    A    
C40   H10   S    
C60   C61   A    
C22   H18   S    
C72   H41   S    
C43   C44   A    
C45   O12   S    
C37   C49   A    
C6    H14   S    
C16   C20   A    
C69   H31   S    
C62   N3    A    
C52   N7    S    
C68   H27   S    
C24   C25   A    
C37   C48   A    
C38   C70   S    
C36   H8    S    
C33   H4    S    
C42   C50   A    
O5    Zn2   S    
N4    Zn2   S    
C40   C41   A    
C6    C30   A    
C11   C32   A    
C55   C57   A    
C61   H17   S    
C9    C34   S    
C67   H25   S    
C31   C35   A    
C36   C44   A    
C72   H42   S    
C51   C59   A    
C60   C72   S    
C52   C53   A    
C65   H22   S    
C15   N8    S    
C1    C50   S    
O9    Zn2   S    
O7    Zn2   S    
C20   O2    S    
C46   C47   A    
C56   N1    A    
C71   H38   S    
C32   H3    S    
C4    C5    A    
C2    C66   A    
C10   C13   A    
N5    H32   S    
C9    C24   A    
C57   C61   A    
N6    H43   S    
C38   C50   A    
C26   N2    S    
N7    H45   S    
C29   C35   A    
C34   O11   A    
C13   C17   A    
C3    N1    S    
C64   C65   A    
C70   H36   S    
C72   H40   S    
C58   C59   A    
C19   N2    A    
C32   C33   A    
C11   C13   A    
C38   C39   A    
C5    C45   A    
C2    C3    A    
C68   H28   S    
C42   C47   A    
C54   H15   S    
C3    C64   A    
C18   C33   A    
C63   C71   S    
C52   N4    A    
C19   O4    S    
C8    C65   A    
C11   C29   A    
C1    O1    A    
C55   C58   A    
C63   N3    A    
C27   C28   A    
C14   C15   A    
C53   H16   S    
C47   H12   S    
C70   H34   S    
C70   H35   S    
C46   H7    S    
C36   C49   A    
C69   H29   S    
