data_mof_unit_32570.cif
_audit_creation_date              2013-03-05T15:41:46-0500
_audit_creation_method            fapswitch 2.2
_symmetry_space_group_name_H-M    P1
_symmetry_Int_Tables_number       1
_space_group_crystal_system       triclinic
_cell_length_a                    19.294849
_cell_length_b                    8.701631
_cell_length_c                    7.511628
_cell_angle_alpha                 103.348535
_cell_angle_beta                  93.639139
_cell_angle_gamma                 93.033929
_cell_volume                      1221.66088392

loop_
_atom_site_label
_atom_site_type_symbol
_atom_site_description
_atom_site_fract_x
_atom_site_fract_y
_atom_site_fract_z
_atom_type_partial_charge
O1    O     O_R   0.505010 0.286130 0.619770 -0.569656
O2    O     O_R   0.494990 0.713870 0.380230 -0.571080
O3    O     O_R   0.491990 0.256780 0.308370 -0.614847
O4    O     O_R   0.508010 0.743220 0.691630 -0.609704
C1    C     C_R   0.494900 0.199817 0.453952 0.874446
C2    C     C_R   0.504950 0.800213 0.546106 0.878159
O5    O     O_R   0.406650 0.514660 0.655750 -0.551568
O6    O     O_R   0.593350 0.485340 0.344250 -0.556303
O7    O     O_R   0.393640 0.485310 0.344340 -0.535011
O8    O     O_R   0.606360 0.514690 0.655660 -0.525514
C3    C     C_R   0.367874 0.501223 0.503093 0.948092
C4    C     C_R   0.632148 0.499044 0.496798 0.952023
Cu1   Cu    Cu3+1 0.507710 0.517380 0.684380 1.140260
Cu2   Cu    Cu3+1 0.492290 0.482620 0.315620 1.134081
C5    C     C_R   0.261586 0.626979 0.626075 0.245150
C6    C     C_R   0.738763 0.378039 0.370415 0.243195
C7    C     C_R   0.188609 0.628113 0.624328 0.216777
C8    C     C_R   0.811702 0.381641 0.366028 0.213329
C9    C     C_R   0.146367 0.507520 0.501040 -0.263874
C10   C     C_R   0.853673 0.509732 0.478207 -0.245604
C11   C     C_R   0.176723 0.387071 0.377637 0.376807
C12   C     C_R   0.822860 0.635459 0.592035 0.367583
C13   C     C_R   0.249315 0.380488 0.386404 0.226346
C14   C     C_R   0.750437 0.628008 0.604101 0.209870
C15   C     C_R   0.291887 0.502222 0.507715 -0.327936
C16   C     C_R   0.708158 0.501332 0.490243 -0.315894
N1    N     N_R   0.031041 0.376179 0.503295 -0.157427
N2    N     N_R   0.969435 0.641256 0.477804 -0.180637
N3    N     N_R   0.962035 0.376715 0.497395 -0.178525
N4    N     N_R   0.038415 0.640968 0.484173 -0.161688
C17   C     C_R   0.930014 0.509209 0.484105 0.544833
C18   C     C_R   0.070333 0.508523 0.497392 0.500432
C19   C     C_2   0.483738 0.031451 0.436286 0.238022
C20   C     C_2   0.515906 0.968654 0.564078 0.239532
N5    N     N_2   0.480680 0.456420 0.038530 -0.018559
N6    N     N_2   0.519320 0.543580 0.961470 -0.017640
N7    N     N_R   0.304480 0.752640 0.748119 0.164008
O9    O     O_R   0.291074 0.799180 0.919083 -0.246244
O10   O     O_R   0.352432 0.831392 0.684710 -0.355031
N8    N     N_R   0.696255 0.247438 0.255406 0.161402
O11   O     O_R   0.708140 0.196492 0.083904 -0.249760
O12   O     O_R   0.649920 0.169886 0.325548 -0.360492
N9    N     N_R   0.157434 0.753167 0.746284 0.185235
O13   O     O_R   0.114276 0.720366 0.860758 -0.309265
O14   O     O_R   0.172040 0.900142 0.742916 -0.228500
N10   N     N_R   0.843112 0.254112 0.248498 0.181260
O15   O     O_R   0.884768 0.282898 0.128672 -0.315639
O16   O     O_R   0.830206 0.108883 0.261187 -0.270480
O17   O     O_3   0.135481 0.268501 0.255989 -0.514155
C21   C     C_3   0.115258 0.323632 0.098949 -0.040153
H1    H     H_    0.160544 0.372623 0.039605 0.170412
H2    H     H_    0.076391 0.413968 0.129814 0.144769
H3    H     H_    0.090228 0.222378 0.992326 0.220823
O18   O     O_3   0.864494 0.760185 0.702584 -0.531300
C22   C     C_3   0.862484 0.892120 0.622929 -0.016811
H4    H     H_    0.811276 0.944645 0.634817 0.200693
H5    H     H_    0.874657 0.861705 0.476443 0.164740
H6    H     H_    0.902529 0.984288 0.698428 0.207060
N11   N     N_R   0.279572 0.245552 0.278794 0.180880
O19   O     O_R   0.260784 0.193394 0.104895 -0.223707
O20   O     O_R   0.322715 0.167645 0.358088 -0.294838
N12   N     N_R   0.720128 0.751319 0.730459 0.154914
O21   O     O_R   0.671866 0.829933 0.671243 -0.330152
O22   O     O_R   0.745894 0.796990 0.900074 -0.202025
O23   O     O_3   0.427970 0.947231 0.322879 -0.555046
C23   C     C_3   0.442022 0.927515 0.137665 -0.020917
H7    H     H_    0.498317 0.920490 0.115921 0.100305
H8    H     H_    0.419813 0.023394 0.082022 0.215145
H9    H     H_    0.416180 0.813483 0.058816 0.231973
O24   O     O_3   0.571462 0.053120 0.678147 -0.556990
C24   C     C_3   0.556883 0.073620 0.863133 -0.022729
H10   H     H_    0.578766 0.977983 0.919793 0.217183
H11   H     H_    0.500510 0.080809 0.883840 0.103269
H12   H     H_    0.582762 0.187646 0.942006 0.229441
N13   N     N_R   0.414129 0.415010 0.954722 0.258950
O25   O     O_R   0.365229 0.511523 0.995776 -0.309707
O26   O     O_R   0.396837 0.268042 0.873046 -0.320847
N14   N     N_R   0.585834 0.585259 0.045406 0.260176
O27   O     O_R   0.634782 0.488802 0.004716 -0.301364
O28   O     O_R   0.603063 0.732401 0.126463 -0.323957

loop_
_geom_bond_atom_site_label_1
_geom_bond_atom_site_label_2
_geom_bond_distance
_ccdc_geom_bond_type
C23   H8    1.109285 S    
C22   H4    1.110531 S    
N1    N3    1.329684 A    
N5    N6    1.289876 D    
N9    O13   1.301297 A    
C11   O17   1.384988 S    
C19   O23   1.390144 S    
C12   O18   1.385523 S    
C13   N11   1.437731 S    
N5    N13   1.385175 S    
N12   O21   1.299358 A    
O1    C1    1.294318 A    
C9    C11   1.409305 A    
C14   C16   1.411705 A    
N14   O28   1.299952 A    
C5    C15   1.413607 A    
C23   H9    1.105789 S    
C3    C15   1.469204 S    
O4    Cu1   1.953012 S    
C5    N7    1.437374 S    
N12   O22   1.301250 A    
O18   C22   1.412966 S    
C1    C19   1.443464 S    
C21   H2    1.111023 S    
O24   C24   1.407926 S    
C20   O24   1.390200 S    
O7    C3    1.301795 A    
N8    O12   1.300924 A    
C23   H7    1.111403 S    
N11   O19   1.300942 A    
Cu1   Cu2   2.711425 S    
O2    C2    1.294600 A    
C9    C18   1.466107 S    
C8    N10   1.436985 S    
C19   C20   1.344532 D    
C6    C16   1.413698 A    
N7    O10   1.300792 A    
N10   O16   1.301324 A    
N11   O20   1.300208 A    
C21   H3    1.109510 S    
Cu1   N6    2.037319 S    
O4    C2    1.299836 A    
Cu2   N5    2.037319 S    
C24   H11   1.111487 S    
O7    Cu2   1.929941 S    
N14   O27   1.300763 A    
O6    Cu2   1.946432 S    
C2    C20   1.443417 S    
C4    C16   1.469793 S    
O5    C3    1.307015 A    
N13   O25   1.300707 A    
C7    N9    1.436696 S    
N7    O9    1.301249 A    
N13   O26   1.299910 A    
O6    C4    1.306234 A    
C21   H1    1.114321 S    
N9    O14   1.301304 A    
O3    Cu2   1.953012 S    
O8    C4    1.302932 A    
C6    N8    1.438255 S    
N8    O11   1.301263 A    
C10   C12   1.408156 A    
O17   C21   1.413013 S    
C22   H5    1.113956 S    
C12   C14   1.405108 A    
O1    Cu1   1.955037 S    
C5    C7    1.407902 A    
N10   O15   1.301352 A    
C14   N12   1.435568 S    
N1    C18   1.355857 A    
N2    C17   1.355806 A    
O3    C1    1.300059 A    
O8    Cu1   1.929940 S    
C24   H12   1.106063 S    
C11   C13   1.402845 A    
C24   H10   1.109003 S    
N3    C17   1.357066 A    
N6    N14   1.385114 S    
N4    C18   1.355570 A    
N2    N4    1.328936 A    
C7    C9    1.409977 A    
C8    C10   1.411507 A    
C13   C15   1.412209 A    
O2    Cu2   1.955037 S    
O5    Cu1   1.946432 S    
C6    C8    1.408681 A    
O23   C23   1.407528 S    
C22   H6    1.109324 S    
C10   C17   1.471109 S    
