data_mof_unit_40674.cif
_audit_creation_date              2012-12-11T16:05:06-0500
_audit_creation_method            fapswitch 2.2
_symmetry_space_group_name_H-M    P1
_symmetry_Int_Tables_number       1
_space_group_crystal_system       triclinic
_cell_length_a                    10.717287
_cell_length_b                    10.612661
_cell_length_c                    16.875105
_cell_angle_alpha                 98.813768
_cell_angle_beta                  98.557411
_cell_angle_gamma                 61.762054
_cell_volume                      1664.53647533

loop_
_atom_site_label
_atom_site_type_symbol
_atom_type_description
_atom_site_fract_x
_atom_site_fract_y
_atom_site_fract_z
_atom_type_partial_charge
C1    C     C_R   0.355228 0.775863 0.399681 0.535200
C2    C     C_3   0.329528 0.720785 0.250174 -0.119083
C3    C     C_3   0.346170 0.821357 0.322478 0.059876
C4    C     C_R   0.372267 0.347216 0.358548 0.573071
C5    C     C_3   0.453637 0.839124 0.280467 0.010267
C6    C     C_3   0.329277 0.970977 0.244370 -0.114722
C7    C     C_3   0.222822 0.951780 0.287650 -0.149717
C8    C     C_3   0.204955 0.852368 0.214877 -0.103874
C9    C     C_3   0.313780 0.868997 0.173216 0.044735
C10   C     C_3   0.479221 0.280274 0.794041 -0.097987
C11   C     C_3   0.427858 0.426924 0.762238 0.051933
C12   C     C_3   0.690034 0.410211 0.253604 -0.129646
C13   C     C_3   0.379738 0.368646 0.681121 0.046495
C14   C     C_3   0.430486 0.222271 0.712597 -0.117010
C15   C     C_3   0.281513 0.276771 0.740223 -0.126821
C16   C     C_R   0.777441 0.375712 0.401852 0.560757
C17   C     C_3   0.230335 0.423534 0.708268 -0.119751
C18   C     C_3   0.278571 0.481404 0.790729 -0.107346
C19   C     C_3   0.330814 0.334860 0.820918 0.038791
C20   C     C_1   0.851982 0.325591 0.704542 -0.019547
C21   C     C_1   0.898084 0.292163 0.772033 -0.031529
C22   C     C_1   0.319125 0.850020 0.704250 -0.017175
C23   C     C_3   0.812129 0.348156 0.319652 0.064496
C24   C     C_1   0.282546 0.895614 0.771306 -0.024940
C25   C     C_R   0.887899 0.312213 0.089013 0.559427
C26   C     C_R   0.319460 0.300619 0.119774 0.538951
C27   C     C_R   0.288855 0.900218 0.091147 0.562666
C28   C     C_R   0.352638 0.780185 0.625189 0.548638
C29   C     C_R   0.943916 0.275181 0.855816 0.543824
C30   C     C_R   0.309548 0.295846 0.893816 0.538551
C31   C     C_R   0.246816 0.943090 0.852794 0.540112
C32   C     C_R   0.408973 0.378756 0.601361 0.582191
C33   C     C_R   0.780992 0.376023 0.628073 0.560749
C34   C     C_3   0.881399 0.205225 0.268040 -0.148016
C35   C     C_1   0.346352 0.337335 0.274710 -0.049339
C36   C     C_1   0.333260 0.328360 0.203401 -0.059257
C37   C     C_3   0.760879 0.266916 0.200338 -0.136578
C38   C     C_3   0.589256 0.845626 0.318971 -0.240065
C39   C     C_3   0.651993 0.893362 0.260163 -0.292828
C40   C     C_3   0.772575 0.924292 0.301053 -0.431006
C41   C     C_3   0.967481 0.265235 0.234508 -0.096133
C42   C     C_3   0.895812 0.407740 0.286657 0.081081
C43   C     C_3   0.775958 0.469956 0.220114 -0.114552
C44   C     C_3   0.845784 0.327695 0.168434 0.039648
C45   C     C_3   0.437586 0.738641 0.207596 -0.136500
Cr1   Cr    Cr6+3 0.608340 0.611040 0.520430 1.037137
Cr2   Cr    Cr6+3 0.287650 0.601120 0.489350 1.054663
Cr3   Cr    Cr6+3 0.604040 0.287870 0.490280 1.005271
Cr4   Cr    Cr6+3 0.054020 0.052700 0.970850 1.021254
Cr5   Cr    Cr6+3 0.059230 0.375120 0.993390 1.033410
Cr6   Cr    Cr6+3 0.374950 0.061200 0.992340 1.025718
H1    H     H_    0.576633 0.466212 0.265455 0.111355
H2    H     H_    0.704529 0.210758 0.162791 0.132046
H3    H     H_    0.919618 0.099358 0.290459 0.108690
H4    H     H_    0.080655 0.211299 0.222611 0.118936
H5    H     H_    0.741861 0.574897 0.197854 0.123713
H6    H     H_    0.327112 0.618562 0.254106 0.122434
H7    H     H_    0.513459 0.655544 0.166683 0.106116
H8    H     H_    0.730875 0.022041 0.344141 0.185332
H9    H     H_    0.853693 0.833204 0.333803 0.189810
H10   H     H_    0.824002 0.941916 0.254416 0.136797
H11   H     H_    0.691972 0.809043 0.209425 0.167600
H12   H     H_    0.327640 0.074389 0.238942 0.109892
H13   H     H_    0.569397 0.993000 0.234385 0.183947
H14   H     H_    0.562426 0.923722 0.373478 0.165578
H15   H     H_    0.667674 0.738324 0.337679 0.189357
H16   H     H_    0.146377 0.035830 0.328073 0.115145
H17   H     H_    0.102553 0.857197 0.186585 0.137500
H18   H     H_    0.581175 0.221955 0.830575 0.152695
H19   H     H_    0.492841 0.114874 0.680736 0.145743
H20   H     H_    0.220377 0.214920 0.733039 0.096445
H21   H     H_    0.128235 0.481982 0.671931 0.148943
H22   H     H_    0.216281 0.586743 0.824524 0.155568
I1    I     I_    0.544499 0.544908 0.796234 -0.343719
I2    I     I_    0.990440 0.527644 0.357450 -0.398042
O1    O     O_R   0.751220 0.499230 0.435170 -0.496608
O2    O     O_R   0.412990 0.180750 0.091610 -0.526576
O3    O     O_R   0.366620 0.943130 0.065760 -0.497044
O4    O     O_R   0.477220 0.727600 0.436870 -0.515486
O5    O     O_R   0.160510 0.906330 0.879210 -0.504512
O6    O     O_R   0.930190 0.179050 0.889450 -0.501698
O7    O     O_R   0.909140 0.398170 0.896710 -0.470866
O8    O     O_R   0.186190 0.363460 0.918830 -0.520403
O9    O     O_R   0.401670 0.173200 0.913310 -0.520795
O10   O     O_R   0.356120 0.936130 0.900470 -0.463537
O11   O     O_3   0.162740 0.163010 0.985530 -0.303961
O12   O     O_R   0.297880 0.469080 0.560050 -0.484136
O13   O     O_R   0.258650 0.745120 0.411470 -0.508942
O14   O     O_R   0.297070 0.467240 0.395960 -0.459447
O15   O     O_R   0.488830 0.252610 0.387790 -0.530915
O16   O     O_R   0.724400 0.302390 0.420980 -0.518974
O17   O     O_R   0.752100 0.501210 0.612190 -0.487858
O18   O     O_R   0.478040 0.729440 0.600970 -0.483507
O19   O     O_R   0.259530 0.747110 0.588490 -0.513716
O20   O     O_R   0.489720 0.254590 0.564810 -0.520060
O21   O     O_R   0.725220 0.304230 0.585080 -0.511506
O22   O     O_3   0.500010 0.500010 0.500020 -0.284270
O23   O     O_R   0.171830 0.913880 0.057510 -0.518491
O24   O     O_R   0.940690 0.186050 0.054730 -0.500534
O25   O     O_R   0.920470 0.405720 0.075010 -0.505517
O26   O     O_R   0.196690 0.370460 0.084120 -0.488013

loop_
_geom_bond_atom_site_label_1
_geom_bond_atom_site_label_2
_ccdc_geom_bond_type
C27   O23   A    
C9    C45   S    
C31   O10   A    
Cr3   O20   S    
C34   C37   S    
C14   H19   S    
C41   C42   S    
C13   C32   S    
C35   C36   T    
C27   O3    A    
Cr6   O10   S    
C6    C9    S    
Cr1   O1    S    
C2    H6    S    
C31   O5    A    
C11   C18   S    
C15   C19   S    
C39   H13   S    
C12   C23   S    
C9    C27   S    
C42   I2    S    
C23   C42   S    
C40   H9    S    
C12   C43   S    
C3    C7    S    
C26   O26   A    
Cr1   O4    S    
Cr1   O17   S    
C30   O8    A    
Cr6   O11   S    
C28   O19   A    
C18   C19   S    
Cr4   O6    S    
C12   C37   S    
C41   H4    S    
Cr4   O23   S    
C25   O24   A    
C38   H15   S    
C8    C9    S    
Cr3   O16   S    
C37   H2    S    
C1    O13   A    
C4    C35   S    
C40   H8    S    
C22   C28   S    
C13   C14   S    
Cr2   O14   S    
C34   C41   S    
C25   C44   S    
C12   H1    S    
Cr5   O8    S    
C4    O15   A    
C2    C45   S    
C38   C39   S    
C45   H7    S    
C26   O2    A    
C7    C8    S    
C10   C14   S    
C33   O17   A    
C39   C40   S    
C32   O12   A    
C21   C29   S    
C40   H10   S    
C28   O18   A    
C1    C3    S    
Cr2   O12   S    
C6    H12   S    
C43   C44   S    
Cr6   O2    S    
C29   O6    A    
Cr3   O22   S    
Cr4   O24   S    
C25   O25   A    
C38   H14   S    
C10   C19   S    
C23   C34   S    
C17   C18   S    
C17   H21   S    
C20   C33   S    
C26   C36   S    
Cr1   O22   S    
C16   O16   A    
C34   H3    S    
C16   C23   S    
C1    O4    A    
C41   C44   S    
C22   C24   T    
C42   C43   S    
C33   O21   A    
Cr5   O7    S    
C4    O14   A    
C15   C17   S    
C39   H11   S    
Cr3   O21   S    
C16   O1    A    
Cr4   O11   S    
C2    C8    S    
C3    C5    S    
C11   I1    S    
C8    H17   S    
C6    C7    S    
C18   H22   S    
C15   H20   S    
Cr5   O25   S    
Cr2   O22   S    
Cr4   O5    S    
C13   C17   S    
Cr2   O13   S    
C37   C44   S    
C2    C3    S    
Cr6   O3    S    
C29   O7    A    
C11   C13   S    
C5    C6    S    
Cr1   O18   S    
C5    C45   S    
Cr2   O19   S    
C30   O9    A    
C24   C31   S    
C10   C11   S    
Cr5   O11   S    
C7    H16   S    
C10   H18   S    
C43   H5    S    
C32   O20   A    
C20   C21   T    
Cr5   O26   S    
C14   C15   S    
Cr3   O15   S    
C5    C38   S    
C19   C30   S    
Cr6   O9    S    
