data_mof_unit_11247.cif
_audit_creation_date              2012-12-11T16:27:26-0500
_audit_creation_method            fapswitch 2.2
_symmetry_space_group_name_H-M    P1
_symmetry_Int_Tables_number       1
_space_group_crystal_system       triclinic
_cell_length_a                    21.685119
_cell_length_b                    6.957587
_cell_length_c                    14.762764
_cell_angle_alpha                 89.998719
_cell_angle_beta                  104.742127
_cell_angle_gamma                 90.000979
_cell_volume                      2154.02601854

loop_
_atom_site_label
_atom_site_type_symbol
_atom_type_description
_atom_site_fract_x
_atom_site_fract_y
_atom_site_fract_z
_atom_type_partial_charge
O1    O     O_R   0.835850 0.638310 0.002120 -0.536279
O2    O     O_R   0.164150 0.361690 0.997880 -0.536279
O3    O     O_R   0.664150 0.138310 0.997880 -0.536282
O4    O     O_R   0.335850 0.861690 0.002120 -0.536282
O5    O     O_R   0.717530 0.306070 0.861970 -0.524042
O6    O     O_R   0.282470 0.693930 0.138030 -0.524042
O7    O     O_R   0.782470 0.806070 0.138030 -0.524032
O8    O     O_R   0.217530 0.193930 0.861970 -0.524032
C1    C     C_R   0.704906 0.476597 0.825273 0.733316
C2    C     C_R   0.295094 0.523403 0.174726 0.733316
C3    C     C_R   0.795091 0.976596 0.174728 0.733321
C4    C     C_R   0.204909 0.023404 0.825272 0.733321
O9    O     O_R   0.838690 0.308440 0.993250 -0.530506
O10   O     O_R   0.161310 0.691560 0.006750 -0.530505
O11   O     O_R   0.661310 0.808440 0.006750 -0.530503
O12   O     O_R   0.338690 0.191560 0.993250 -0.530504
O13   O     O_R   0.786170 0.140510 0.130090 -0.532662
O14   O     O_R   0.213830 0.859490 0.869910 -0.532662
O15   O     O_R   0.713830 0.640510 0.869910 -0.532659
O16   O     O_R   0.286170 0.359490 0.130090 -0.532659
C5    C     C_R   0.865778 0.477506 0.001467 0.701277
C6    C     C_R   0.134222 0.522494 0.998533 0.701277
C7    C     C_R   0.634222 0.977503 0.998530 0.701270
C8    C     C_R   0.365778 0.022497 0.001470 0.701270
O17   O     O_3   0.732630 0.472520 0.044740 -0.361371
O18   O     O_3   0.267370 0.527480 0.955260 -0.361371
O19   O     O_3   0.767370 0.972520 0.955260 -0.361375
O20   O     O_3   0.232630 0.027480 0.044740 -0.361375
V1    V     V_3+5 0.753220 0.196740 0.991700 1.564796
V2    V     V_3+5 0.246780 0.803260 0.008300 1.564796
V3    V     V_3+5 0.746780 0.696740 0.008300 1.564812
V4    V     V_3+5 0.253220 0.303260 0.991700 1.564812
H1    H     H_    0.621408 0.126832 0.312606 0.146438
H2    H     H_    0.378591 0.873168 0.687394 0.146438
H3    H     H_    0.878596 0.627181 0.687412 0.146453
H4    H     H_    0.121404 0.372819 0.312588 0.146453
C9    C     C_R   0.528590 0.952688 0.821425 -0.016174
C10   C     C_R   0.471410 0.047312 0.178575 -0.016173
C11   C     C_R   0.971412 0.452567 0.178572 -0.016181
C12   C     C_R   0.028588 0.547433 0.821428 -0.016181
C13   C     C_R   0.478635 0.917896 0.742181 -0.103880
C14   C     C_R   0.521365 0.082104 0.257819 -0.103880
C15   C     C_R   0.021364 0.417663 0.257809 -0.103851
C16   C     C_R   0.978636 0.582337 0.742191 -0.103851
C17   C     C_R   0.416527 0.903508 0.749229 -0.053953
C18   C     C_R   0.583473 0.096492 0.250771 -0.053953
C19   C     C_R   0.083470 0.403244 0.250758 -0.053941
C20   C     C_R   0.916530 0.596756 0.749242 -0.053941
C21   C     C_R   0.402503 0.935072 0.834456 -0.086656
C22   C     C_R   0.597497 0.064928 0.165544 -0.086656
C23   C     C_R   0.097497 0.434885 0.165537 -0.086693
C24   C     C_R   0.902503 0.565115 0.834463 -0.086693
C25   C     C_R   0.451101 0.972461 0.916920 0.077024
C26   C     C_R   0.548899 0.027539 0.083080 0.077024
C27   C     C_R   0.048899 0.472374 0.083078 0.077025
C28   C     C_R   0.951101 0.527626 0.916922 0.077024
C29   C     C_R   0.516261 0.971594 0.912294 0.053967
C30   C     C_R   0.483739 0.028406 0.087706 0.053967
C31   C     C_R   0.983740 0.471529 0.087704 0.053972
C32   C     C_R   0.016260 0.528471 0.912295 0.053972
C33   C     C_R   0.434652 0.008383 0.002724 -0.155722
C34   C     C_R   0.565348 0.991617 0.997275 -0.155722
C35   C     C_R   0.065348 0.508370 0.997276 -0.155718
C36   C     C_R   0.934652 0.491630 0.002724 -0.155718
H5    H     H_    0.487931 0.899636 0.673866 0.130629
H6    H     H_    0.512069 0.100364 0.326134 0.130629
H7    H     H_    0.012065 0.399332 0.326120 0.130646
H8    H     H_    0.987934 0.600668 0.673880 0.130646
H9    H     H_    0.352732 0.928327 0.834555 0.088584
H10   H     H_    0.647268 0.071673 0.165445 0.088584
H11   H     H_    0.147268 0.428115 0.165438 0.088617
H12   H     H_    0.852732 0.571885 0.834562 0.088617
C37   C     C_R   0.174449 0.016807 0.725128 -0.034509
C38   C     C_R   0.825551 0.983193 0.274872 -0.034508
C39   C     C_R   0.325554 0.516806 0.274870 -0.034504
C40   C     C_R   0.674446 0.483194 0.725130 -0.034504
C41   C     C_R   0.187271 0.969212 0.569952 -0.103479
C42   C     C_R   0.812729 0.030788 0.430048 -0.103479
C43   C     C_R   0.312730 0.469364 0.430047 -0.103504
C44   C     C_R   0.687270 0.530636 0.569953 -0.103504
C45   C     C_R   0.213493 0.994557 0.664600 -0.166253
C46   C     C_R   0.786507 0.005443 0.335400 -0.166253
C47   C     C_R   0.286509 0.494648 0.335398 -0.166289
C48   C     C_R   0.713491 0.505352 0.664602 -0.166289
C49   C     C_R   0.107447 0.027367 0.691119 0.063770
C50   C     C_R   0.892553 0.972633 0.308881 0.063770
C51   C     C_R   0.392555 0.527334 0.308878 0.063773
C52   C     C_R   0.607445 0.472666 0.691122 0.063773
C53   C     C_R   0.079457 0.012756 0.591695 0.032011
C54   C     C_R   0.920543 0.987244 0.408305 0.032011
C55   C     C_R   0.420545 0.512770 0.408303 0.032023
C56   C     C_R   0.579454 0.487230 0.591697 0.032023
C57   C     C_R   0.120925 0.967708 0.533274 0.058694
C58   C     C_R   0.879075 0.032292 0.466726 0.058694
C59   C     C_R   0.379074 0.467814 0.466726 0.058689
C60   C     C_R   0.620926 0.532186 0.533273 0.058689
C61   C     C_R   0.012528 0.031598 0.547198 0.018045
C62   C     C_R   0.987472 0.968402 0.452802 0.018044
C63   C     C_R   0.487474 0.531574 0.452800 0.018052
C64   C     C_R   0.512526 0.468426 0.547200 0.018052
C65   C     C_R   0.030067 0.884602 0.407487 -0.164689
C66   C     C_R   0.969933 0.115398 0.592512 -0.164690
C67   C     C_R   0.469925 0.384709 0.592522 -0.164693
C68   C     C_R   0.530075 0.615291 0.407478 -0.164693
C69   C     C_R   0.095331 0.907723 0.440657 0.136161
C70   C     C_R   0.904669 0.092277 0.559342 0.136161
C71   C     C_R   0.404664 0.407863 0.559347 0.136170
C72   C     C_R   0.595336 0.592137 0.440653 0.136170
H13   H     H_    0.735239 0.012318 0.308469 0.130579
H14   H     H_    0.264761 0.987682 0.691531 0.130579
H15   H     H_    0.764760 0.512191 0.691534 0.130625
H16   H     H_    0.235240 0.487809 0.308466 0.130625
H17   H     H_    0.219872 0.942447 0.526919 0.171715
H18   H     H_    0.780127 0.057553 0.473081 0.171715
H19   H     H_    0.280127 0.442687 0.473083 0.171738
H20   H     H_    0.719873 0.557313 0.526917 0.171738
H21   H     H_    0.013785 0.795802 0.346907 0.179122
H22   H     H_    0.986215 0.204198 0.653093 0.179122
H23   H     H_    0.486199 0.295916 0.653105 0.179110
H24   H     H_    0.513801 0.704084 0.346894 0.179110
C73   C     C_1   0.590650 0.968751 0.802827 0.300924
N1    N     N_1   0.639717 0.980771 0.785803 -0.296713
C74   C     C_1   0.409350 0.031249 0.197173 0.300924
N2    N     N_1   0.360283 0.019229 0.214197 -0.296713
C75   C     C_1   0.909355 0.468697 0.197174 0.300920
N3    N     N_1   0.860289 0.480774 0.214197 -0.296708
C76   C     C_1   0.090645 0.531303 0.802826 0.300920
N4    N     N_1   0.139711 0.519225 0.785803 -0.296708
I1    I     I_    0.151315 0.842777 0.345288 -0.486418
I2    I     I_    0.848685 0.157222 0.654712 -0.486418
I3    I     I_    0.348671 0.342950 0.654709 -0.486372
I4    I     I_    0.651329 0.657049 0.345291 -0.486372
I5    I     I_    0.943201 0.973033 0.199590 -0.433831
I6    I     I_    0.056799 0.026967 0.800410 -0.433831
I7    I     I_    0.556796 0.473152 0.800409 -0.433824
I8    I     I_    0.443204 0.526848 0.199591 -0.433823

loop_
_geom_bond_atom_site_label_1
_geom_bond_atom_site_label_2
_ccdc_geom_bond_type
O17   V3    S    
O1    C5    A    
C8    C33   S    
C12   C32   A    
C27   C31   A    
O19   V1    S    
O13   V1    S    
O3    C7    A    
C56   C60   A    
C44   C48   A    
O15   V3    S    
C40   C48   A    
C61   C62   A    
C74   N2    T    
O7    C3    A    
C31   C36   A    
C22   C26   A    
C32   C35   A    
C11   C75   S    
O9    V1    S    
O10   V2    S    
C10   C14   A    
C43   H19   S    
C9    C13   A    
O16   V4    S    
O4    C8    A    
O1    V3    S    
H4    C19   S    
O2    V4    S    
C14   C18   A    
O3    V1    S    
C5    C36   S    
C57   C69   A    
C6    C35   S    
C10   C30   A    
C25   C33   A    
C1    O15   A    
C7    C34   S    
C58   C70   A    
C52   C56   A    
C2    O16   A    
C27   C35   A    
O2    C6    A    
C28   C36   A    
O14   V2    S    
C1    C40   S    
C41   C45   A    
C44   C60   A    
C40   C52   A    
C12   C16   A    
C61   C66   A    
C66   H22   S    
C49   I6    S    
C30   C33   A    
O11   C7    A    
C63   C68   A    
C60   C72   A    
O12   C8    A    
C21   H9    S    
C4    C37   S    
O17   V1    S    
H1    C18   S    
C42   H18   S    
C23   H11   S    
C38   C46   A    
C41   H17   S    
H3    C20   S    
C37   C45   A    
C54   C58   A    
O5    V1    S    
C65   C69   A    
C48   H15   S    
O7    V3    S    
C51   C55   A    
O19   V3    S    
O8    V4    S    
C46   H13   S    
C44   H20   S    
C29   C34   A    
C71   I3    S    
C50   C54   A    
C25   C29   A    
O18   V4    S    
C19   C23   A    
C26   C34   A    
C12   C76   S    
C64   C67   A    
C28   C32   A    
C53   C61   A    
C43   C59   A    
C24   H12   S    
C2    C39   S    
C42   C46   A    
C50   I5    S    
C63   C64   A    
O20   V4    S    
O8    C4    A    
C11   C31   A    
C17   C21   A    
O9    C5    A    
H2    C17   S    
C38   C50   A    
C37   C49   A    
C73   N1    T    
C59   C71   A    
C9    C73   S    
C39   C51   A    
O6    V2    S    
O18   V2    S    
C69   I1    S    
C75   N3    T    
C16   H8    S    
C76   N4    T    
C68   C72   A    
C56   C64   A    
C26   C30   A    
C70   I2    S    
C3    O13   A    
C49   C53   A    
C51   I8    S    
C67   H23   S    
C10   C74   S    
C52   I7    S    
O5    C1    A    
C3    C38   S    
O6    C2    A    
C13   H5    S    
O11   V3    S    
O12   V4    S    
C62   C65   A    
C18   C22   A    
C65   H21   S    
O10   C6    A    
O20   V2    S    
C22   H10   S    
C43   C47   A    
C39   C47   A    
C42   C58   A    
C21   C25   A    
C41   C57   A    
C66   C70   A    
C23   C27   A    
C53   C57   A    
O4    V2    S    
C72   I4    S    
C55   C59   A    
C16   C20   A    
C20   C24   A    
C45   H14   S    
C11   C15   A    
C15   H7    S    
C4    O14   A    
C14   H6    S    
C13   C17   A    
C47   H16   S    
C67   C71   A    
C55   C63   A    
C15   C19   A    
C54   C62   A    
C9    C29   A    
C24   C28   A    
C68   H24   S    
