data_mof_unit_49594.cif
_audit_creation_date              2012-12-10T18:03:31-0500
_audit_creation_method            fapswitch 2.2
_symmetry_space_group_name_H-M    P1
_symmetry_Int_Tables_number       1
_space_group_crystal_system       triclinic
_cell_length_a                    10.92119
_cell_length_b                    9.529111
_cell_length_c                    19.41125
_cell_angle_alpha                 90.019911
_cell_angle_beta                  90.199319
_cell_angle_gamma                 90.140166
_cell_volume                      2020.09547864

loop_
_atom_site_label
_atom_site_type_symbol
_atom_type_description
_atom_site_fract_x
_atom_site_fract_y
_atom_site_fract_z
_atom_type_partial_charge
C1    C     C_R   0.873038 0.500693 0.500246 -0.390215
C2    C     C_R   0.128975 0.500235 0.500109 -0.378047
C3    C     C_R   0.385919 0.504049 0.963791 -0.027423
C4    C     C_R   0.607655 0.503728 0.036165 -0.021713
C5    C     C_R   0.385607 0.499115 0.035453 -0.028301
C6    C     C_R   0.607934 0.498936 0.964512 -0.027298
C7    C     C_R   0.496493 0.501300 0.071908 0.127530
C8    C     C_R   0.497078 0.501411 0.928078 0.120793
C9    C     C_R   0.262397 0.499950 0.499986 0.965686
C10   C     C_R   0.738319 0.500223 0.500119 0.907828
C11   C     C_R   0.499634 0.499968 0.367687 0.853758
C12   C     C_R   0.499926 0.500036 0.632324 0.861736
C13   C     C_R   0.062772 0.379021 0.480823 0.291322
C14   C     C_R   0.940190 0.628685 0.502126 0.209847
C15   C     C_R   0.939440 0.372764 0.498524 0.293544
C16   C     C_R   0.064065 0.621948 0.519543 0.310016
C17   C     C_R   0.465002 0.379484 0.743947 -0.229843
C18   C     C_R   0.461069 0.619701 0.256254 -0.200539
C19   C     C_R   0.533887 0.380147 0.255832 -0.255482
C20   C     C_R   0.532511 0.621459 0.744061 -0.245601
C21   C     C_R   0.462769 0.378469 0.815855 0.345434
C22   C     C_R   0.459047 0.621555 0.184370 0.388058
C23   C     C_R   0.534071 0.378962 0.183909 0.349878
C24   C     C_R   0.532980 0.623336 0.815960 0.350187
C25   C     C_R   0.497472 0.501115 0.852447 -0.159195
C26   C     C_R   0.496358 0.500553 0.147567 -0.176324
C27   C     C_R   0.462686 0.074037 0.443260 0.088136
C28   C     C_R   0.537333 0.925914 0.556731 0.074503
C29   C     C_R   0.536798 0.074306 0.556827 0.057900
C30   C     C_R   0.461891 0.925601 0.443416 0.096423
C31   C     C_R   0.499245 0.500257 0.707882 -0.118902
C32   C     C_R   0.498308 0.499941 0.292151 -0.145167
Cu1   Cu    Cu3+1 0.500000 0.640660 0.500000 1.059522
Cu2   Cu    Cu3+1 0.500000 0.359340 0.500000 1.059285
H1    H     H_    0.431946 0.128926 0.397732 0.135371
H2    H     H_    0.568436 0.871009 0.602195 0.124912
H3    H     H_    0.566190 0.129346 0.602621 0.140031
H4    H     H_    0.430100 0.870420 0.398112 0.129818
H5    H     H_    0.439003 0.286056 0.715714 0.185295
H6    H     H_    0.432424 0.711709 0.284578 0.204086
H7    H     H_    0.562703 0.287733 0.283865 0.191246
H8    H     H_    0.559190 0.714572 0.715941 0.178193
H9    H     H_    0.299745 0.507585 0.936081 0.173099
H10   H     H_    0.693868 0.507338 0.063838 0.172335
H11   H     H_    0.299185 0.495087 0.062555 0.173809
H12   H     H_    0.694338 0.495335 0.937370 0.171995
N1    N     N_R   0.500000 0.852070 0.500000 -0.165666
N2    N     N_R   0.500000 0.147930 0.500000 -0.172155
O1    O     O_R   0.319640 0.618740 0.500000 -0.540457
O2    O     O_R   0.680360 0.381260 0.500000 -0.517351
O3    O     O_R   0.680360 0.618740 0.500000 -0.520470
O4    O     O_R   0.319640 0.381260 0.500000 -0.530459
O5    O     O_R   0.500020 0.618830 0.400190 -0.595041
O6    O     O_R   0.499980 0.381170 0.599810 -0.597119
O7    O     O_R   0.499980 0.618830 0.599810 -0.600394
O8    O     O_R   0.500020 0.381170 0.400190 -0.593474
S1    S     S_3+6 0.123517 0.247899 0.425237 0.081387
O9    O     O_2   0.190615 0.139573 0.466857 -0.210548
O10   O     O_2   0.021556 0.177927 0.385835 -0.205286
O11   O     O_3   0.220504 0.322257 0.368754 -0.563886
H13   H     H_    0.246951 0.244612 0.338349 0.367721
S2    S     S_3+6 0.881433 0.792633 0.473050 0.130933
O12   O     O_2   0.810985 0.859967 0.530505 -0.206704
O13   O     O_2   0.984032 0.888417 0.451887 -0.138604
O14   O     O_3   0.788533 0.770288 0.404538 -0.492492
H14   H     H_    0.837251 0.714982 0.371281 0.335098
S3    S     S_3+6 0.881662 0.210823 0.530662 0.119341
O15   O     O_2   0.805553 0.140127 0.476058 -0.190156
O16   O     O_2   0.985551 0.116329 0.551093 -0.155089
O17   O     O_3   0.795692 0.240864 0.600892 -0.548835
H15   H     H_    0.790925 0.149289 0.624881 0.369733
S4    S     S_3+6 0.127738 0.752855 0.574954 0.097226
O18   O     O_2   0.196065 0.860019 0.533169 -0.213828
O19   O     O_2   0.027977 0.824675 0.614655 -0.202776
O20   O     O_3   0.224561 0.677355 0.631375 -0.547966
H16   H     H_    0.267761 0.756471 0.654058 0.374239
S5    S     S_3+6 0.419362 0.220719 0.857954 0.092325
O21   O     O_2   0.518858 0.177459 0.907162 -0.137397
O22   O     O_2   0.303216 0.242617 0.897771 -0.274030
O23   O     O_3   0.396149 0.091103 0.800477 -0.447116
H17   H     H_    0.312986 0.107539 0.781654 0.355095
S6    S     S_3+6 0.411396 0.778090 0.142755 0.075739
O24   O     O_2   0.505596 0.821773 0.090667 -0.163715
O25   O     O_2   0.291185 0.753119 0.106859 -0.276555
O26   O     O_3   0.393025 0.907444 0.200762 -0.494817
H18   H     H_    0.350328 0.983247 0.175437 0.412295
S7    S     S_3+6 0.579652 0.222559 0.141497 0.063751
O27   O     O_2   0.484304 0.181355 0.089220 -0.177480
O28   O     O_2   0.699239 0.245815 0.105120 -0.266468
O29   O     O_3   0.597110 0.090732 0.198292 -0.465020
H19   H     H_    0.680347 0.103323 0.217817 0.366990
S8    S     S_3+6 0.575635 0.781505 0.858134 0.092512
O30   O     O_2   0.475831 0.824629 0.906780 -0.139181
O31   O     O_2   0.691681 0.760259 0.898562 -0.271162
O32   O     O_3   0.598669 0.910891 0.800648 -0.451052
H20   H     H_    0.682052 0.894892 0.782371 0.350840

loop_
_geom_bond_atom_site_label_1
_geom_bond_atom_site_label_2
_ccdc_geom_bond_type
C27   N2    A    
Cu1   O7    S    
S7    O27   D    
C28   N1    A    
Cu2   O8    S    
O32   H20   S    
C16   S4    S    
O29   H19   S    
S5    O21   D    
C3    H9    S    
C7    C26   S    
C22   S6    S    
C28   C29   A    
S4    O20   S    
S1    O10   D    
C13   S1    S    
C10   O3    A    
Cu1   O1    S    
C14   S2    S    
C30   H4    S    
C17   H5    S    
C23   C26   A    
C2    C13   A    
C18   H6    S    
S2    O13   D    
C20   C24   A    
O17   H15   S    
C1    C15   A    
C2    C16   A    
C11   O5    A    
C23   S7    S    
C27   C30   A    
C8    C25   S    
C9    O4    A    
C4    C7    A    
C19   C32   A    
C24   S8    S    
S5    O22   D    
Cu1   O5    S    
Cu2   O2    S    
C29   N2    A    
S3    O15   D    
C30   N1    A    
C9    O1    A    
C24   C25   A    
S4    O19   D    
C3    C8    A    
C5    C7    A    
O23   H17   S    
S1    O11   S    
C6    C8    A    
C4    H10   S    
C27   H1    S    
O26   H18   S    
C5    H11   S    
S8    O32   S    
C17   C21   A    
O11   H13   S    
S3    O16   D    
C19   C23   A    
O20   H16   S    
S2    O12   D    
C15   S3    S    
S8    O31   D    
Cu1   Cu2   S    
C4    C6    A    
C11   C32   S    
Cu2   O6    S    
S6    O25   D    
C13   C15   A    
C12   C31   S    
C17   C31   A    
C14   C16   A    
Cu2   N2    S    
C21   S5    S    
C10   O2    A    
S5    O23   S    
C21   C25   A    
C6    H12   S    
S2    O14   S    
C18   C22   A    
C1    C10   S    
S4    O18   D    
C3    C5    A    
C20   H8    S    
Cu1   O3    S    
S6    O26   S    
Cu2   O4    S    
S3    O17   S    
S7    O28   D    
S1    O9    D    
Cu1   N1    S    
S8    O30   D    
O14   H14   S    
C12   O7    A    
C18   C32   A    
C28   H2    S    
S6    O24   D    
C22   C26   A    
S7    O29   S    
C29   H3    S    
C1    C14   A    
C2    C9    S    
C12   O6    A    
C11   O8    A    
C19   H7    S    
C20   C31   A    
