data_mof_unit_47384.cif
_audit_creation_date              2012-12-11T15:42:47-0500
_audit_creation_method            fapswitch 2.2
_symmetry_space_group_name_H-M    P1
_symmetry_Int_Tables_number       1
_space_group_crystal_system       triclinic
_cell_length_a                    6.923141
_cell_length_b                    14.575362
_cell_length_c                    16.194913
_cell_angle_alpha                 90.403716
_cell_angle_beta                  90.314343
_cell_angle_gamma                 90.045149
_cell_volume                      1634.11900266

loop_
_atom_site_label
_atom_site_type_symbol
_atom_type_description
_atom_site_fract_x
_atom_site_fract_y
_atom_site_fract_z
_atom_type_partial_charge
O1    O     O_R   0.505810 0.583360 0.413880 -0.544103
O2    O     O_R   0.175870 0.595480 0.585520 -0.533094
O3    O     O_R   0.005540 0.416640 0.586120 -0.539253
C1    C     C_R   0.345700 0.615656 0.616116 0.765524
O4    O     O_R   0.176100 0.594390 0.414490 -0.548286
O5    O     O_R   0.005770 0.415540 0.413870 -0.546870
C2    C     C_R   0.344697 0.615858 0.385421 0.679559
O6    O     O_R   0.505580 0.584460 0.586130 -0.511493
O7    O     O_3   0.339190 0.441320 0.500000 -0.379936
V1    V     V_3+5 0.064350 0.510890 0.500000 1.458824
O8    O     O_R   0.676050 0.404520 0.414480 -0.550225
C3    C     C_R   0.844871 0.382090 0.385654 0.663776
O9    O     O_R   0.675830 0.405610 0.585510 -0.534914
C4    C     C_R   0.845338 0.383628 0.613724 0.800025
V2    V     V_3+5 0.564340 0.489110 0.500000 1.458653
O10   O     O_3   0.839370 0.558680 0.500000 -0.356956
C5    C     C_2   0.719985 0.209209 0.785874 -0.114633
C6    C     C_2   0.885330 0.181772 0.822580 -0.288233
H1    H     H_    0.583635 0.180810 0.806584 0.138378
H2    H     H_    0.023328 0.209470 0.803918 0.128009
C7    C     C_2   0.708144 0.277676 0.717938 -0.110487
C8    C     C_2   0.862088 0.315545 0.680620 -0.286591
H3    H     H_    0.563935 0.296877 0.697793 0.136813
H4    H     H_    0.007521 0.297144 0.698881 0.127232
C9    C     C_R   0.047700 0.223296 0.219667 -0.156572
H5    H     H_    0.188718 0.204910 0.196210 0.115923
C10   C     C_R   0.036133 0.287264 0.284408 -0.149444
H6    H     H_    0.168955 0.316338 0.308648 0.117305
C11   C     C_R   0.856094 0.313373 0.317250 -0.040272
C12   C     C_R   0.687945 0.273770 0.283404 -0.157024
H7    H     H_    0.546927 0.292164 0.306856 0.115447
C13   C     C_R   0.699513 0.209800 0.218664 -0.148758
H8    H     H_    0.566691 0.180734 0.194416 0.118518
C14   C     C_R   0.879560 0.183649 0.185856 -0.041138
C15   C     C_R   0.207915 0.744819 0.699122 -0.176364
H9    H     H_    0.084038 0.744322 0.657950 0.183045
C16   C     C_R   0.214551 0.809929 0.763151 0.278923
C17   C     C_R   0.375922 0.813612 0.817614 -0.155585
C18   C     C_R   0.527013 0.751019 0.805012 -0.184479
H10   H     H_    0.650920 0.751674 0.846120 0.179133
C19   C     C_R   0.520095 0.685710 0.741128 0.280645
C20   C     C_R   0.359215 0.682354 0.686383 -0.155906
C21   C     C_R   0.201921 0.740144 0.296601 -0.166167
H11   H     H_    0.071065 0.739148 0.332937 0.127501
C22   C     C_R   0.216502 0.802418 0.231557 -0.182942
H12   H     H_    0.096291 0.848280 0.220540 0.122442
C23   C     C_R   0.383833 0.807188 0.182443 -0.060981
C24   C     C_R   0.538441 0.744888 0.199572 0.088084
C25   C     C_R   0.522122 0.684469 0.266707 -0.171865
H13   H     H_    0.639297 0.637428 0.279866 0.114750
C26   C     C_R   0.355790 0.681499 0.315691 -0.061217
O11   O     O_R   0.230120 0.912300 0.917180 -0.514680
O12   O     O_R   0.559740 0.902430 0.088770 -0.547019
O13   O     O_R   0.729930 0.081310 0.089370 -0.545128
C27   C     C_R   0.391623 0.878043 0.115914 0.665611
O14   O     O_R   0.559840 0.901330 0.917750 -0.531905
O15   O     O_R   0.730030 0.080210 0.917120 -0.534848
C28   C     C_R   0.389891 0.880749 0.887475 0.755020
O16   O     O_R   0.230020 0.913400 0.089430 -0.545676
O17   O     O_3   0.396460 0.055470 0.003290 -0.375880
V3    V     V_3+5 0.671360 0.985960 0.003250 1.444714
O18   O     O_R   0.059740 0.091300 0.917690 -0.536922
C29   C     C_R   0.890747 0.113292 0.889498 0.803035
O19   O     O_R   0.059640 0.092400 0.088720 -0.548351
C30   C     C_R   0.890809 0.114839 0.117527 0.667399
V4    V     V_3+5 0.171350 0.007820 0.003190 1.443774
O20   O     O_3   0.896380 0.938200 0.003220 -0.363904
Br1   Br    Br    0.000953 0.894117 0.768011 -0.559504
Br2   Br    Br    0.732235 0.600700 0.736868 -0.574947
C31   C     C_3   0.720376 0.737176 0.147732 -0.361762
C32   C     C_3   0.677724 0.694661 0.062518 -0.297893
C33   C     C_3   0.862049 0.684788 0.011885 -0.716257
H14   H     H_    0.927703 0.753079 0.000821 0.243091
H15   H     H_    0.968173 0.640810 0.044683 0.217727
H16   H     H_    0.827464 0.652400 0.951330 0.234161
H17   H     H_    0.612513 0.625583 0.070577 0.192333
H18   H     H_    0.573349 0.737348 0.027532 0.187105
H19   H     H_    0.793885 0.804389 0.142643 0.192412
H20   H     H_    0.828183 0.692545 0.179008 0.163571

loop_
_geom_bond_atom_site_label_1
_geom_bond_atom_site_label_2
_ccdc_geom_bond_type
C27   O16   A    
C3    C11   S    
C31   H19   S    
C19   C20   A    
C15   H9    S    
C1    O6    A    
C18   C19   A    
O13   C30   A    
C22   H12   S    
O18   C29   A    
C19   Br2   S    
C15   C16   A    
C16   C17   A    
O16   V4    S    
O5    C3    A    
C12   H7    S    
C6    C29   S    
C10   C11   A    
V2    O10   S    
C16   Br1   S    
C15   C20   A    
C17   C28   S    
O8    V2    S    
C25   C26   A    
C31   C32   S    
O1    V2    S    
O7    V1    S    
C9    C14   A    
C22   C23   A    
V4    O20   S    
O17   V4    S    
O9    C4    A    
O12   V3    S    
C33   H16   S    
C14   C30   S    
O15   C29   A    
O12   C27   A    
C17   C18   A    
O18   V4    S    
C33   H15   S    
C18   H10   S    
O4    C2    A    
C9    H5    S    
C5    C7    S    
O17   V3    S    
C13   C14   A    
O2    C1    A    
C21   H11   S    
C11   C12   A    
V3    O20   S    
C23   C24   A    
C5    C6    D    
C21   C22   A    
O3    C4    A    
O11   C28   A    
C24   C25   A    
O6    V2    S    
O9    V2    S    
C8    H4    S    
O2    V1    S    
C32   H18   S    
O11   V4    S    
C23   C27   S    
C31   H20   S    
O1    C2    A    
C24   C31   S    
C33   H14   S    
O5    V1    S    
O8    C3    A    
O15   V3    S    
O13   V3    S    
C9    C10   A    
C13   H8    S    
C4    C8    S    
C7    H3    S    
O7    V2    S    
C2    C26   S    
O4    V1    S    
O3    V1    S    
V1    O10   S    
O19   C30   A    
C12   C13   A    
C21   C26   A    
C32   H17   S    
C1    C20   S    
C5    H1    S    
O14   C28   A    
C6    H2    S    
C32   C33   S    
C25   H13   S    
C10   H6    S    
O14   V3    S    
C7    C8    D    
O19   V4    S    
