data_mof_unit_48977.cif
_audit_creation_date              2012-12-11T21:29:30-0500
_audit_creation_method            fapswitch 2.2
_symmetry_space_group_name_H-M    P1
_symmetry_Int_Tables_number       1
_space_group_crystal_system       triclinic
_cell_length_a                    8.165539
_cell_length_b                    18.911487
_cell_length_c                    18.743044
_cell_angle_alpha                 103.852674
_cell_angle_beta                  91.329431
_cell_angle_gamma                 92.143758
_cell_volume                      2806.65449842

loop_
_atom_site_label
_atom_site_type_symbol
_atom_type_description
_atom_site_fract_x
_atom_site_fract_y
_atom_site_fract_z
_atom_type_partial_charge
Ba1   Ba    Ba6+2 0.844980 0.532260 0.467660 1.681357
Ba2   Ba    Ba6+2 0.344840 0.467800 0.532350 1.650431
C1    C     C_3   0.620477 0.790521 0.301846 -0.366928
C2    C     C_R   0.908910 0.428365 0.089916 0.032316
C3    C     C_R   0.753743 0.396763 0.064249 -0.081167
C4    C     C_3   0.090261 0.674165 0.281894 0.357008
C5    C     C_R   0.691980 0.399622 0.994817 -0.085643
C6    C     C_R   0.785204 0.433160 0.949096 0.031354
C7    C     C_R   0.940595 0.465562 0.974294 0.013753
C8    C     C_R   0.726307 0.433384 0.878237 -0.107857
C9    C     C_R   0.821893 0.464100 0.830520 -0.041465
C10   C     C_R   0.975943 0.499139 0.856484 0.002540
C11   C     C_R   0.034710 0.499430 0.928595 -0.008880
C12   C     C_3   0.604311 0.717316 0.321806 0.358165
C13   C     C_R   0.770361 0.459094 0.756897 -0.003022
C14   C     C_R   0.872544 0.487176 0.710283 -0.281274
C15   C     C_R   0.017438 0.527984 0.736204 0.008603
C16   C     C_3   0.086591 0.693229 0.207565 -0.367883
C17   C     C_R   0.072313 0.533052 0.810413 -0.055100
C18   C     C_R   0.156799 0.496323 0.071023 -0.006456
C19   C     C_R   0.215736 0.496793 0.143048 -0.006991
C20   C     C_R   0.118974 0.463562 0.189390 -0.044930
C21   C     C_R   0.970516 0.425977 0.159916 -0.039434
C22   C     C_R   0.222916 0.568354 0.839569 -0.046719
C23   C     C_3   0.498521 0.350546 0.303039 0.310025
C24   C     C_R   0.283743 0.566311 0.909532 0.044520
C25   C     C_R   0.189669 0.531843 0.954426 0.003968
C26   C     C_R   0.251125 0.529935 0.025240 0.013690
C27   C     C_R   0.439565 0.597371 0.934778 -0.074425
C28   C     C_3   0.268503 0.702459 0.728818 0.287868
C29   C     C_R   0.501252 0.594639 0.004157 -0.093240
C30   C     C_R   0.407315 0.561710 0.050077 0.031072
C31   C     C_R   0.370916 0.531006 0.168588 -0.043267
C32   C     C_R   0.466766 0.561181 0.120659 -0.105364
C33   C     C_R   0.423951 0.535291 0.241849 0.003374
C34   C     C_3   0.480627 0.326337 0.219730 -0.396755
C35   C     C_R   0.322572 0.507228 0.288576 -0.299241
C36   C     C_R   0.172909 0.470362 0.263824 0.043035
C37   C     C_R   0.707194 0.948365 0.522572 -0.049581
C38   C     C_R   0.787337 0.907156 0.564825 -0.096189
C39   C     C_R   0.931879 0.044669 0.544660 -0.093377
C40   C     C_3   0.205895 0.738757 0.804524 -0.174115
C41   C     C_R   0.772087 0.018093 0.517906 0.035661
C42   C     C_R   0.983741 0.116756 0.550233 -0.084685
C43   C     C_R   0.881249 0.164862 0.526669 -0.035006
C44   C     C_R   0.728280 0.137268 0.491405 -0.000962
C45   C     C_3   0.105050 0.324183 0.719939 0.362390
C46   C     C_R   0.673005 0.063945 0.487296 0.028303
C47   C     C_R   0.926978 0.239617 0.536431 -0.001979
C48   C     C_R   0.821240 0.285055 0.510992 -0.297455
C49   C     C_R   0.678747 0.257161 0.470004 0.017136
C50   C     C_R   0.630200 0.183090 0.460347 -0.032982
C51   C     C_R   0.548444 0.923422 0.492837 0.023326
C52   C     C_3   0.004860 0.306001 0.364004 0.309700
C53   C     C_R   0.482960 0.853976 0.499032 -0.036498
C54   C     C_R   0.570629 0.811986 0.539768 -0.103362
C55   C     C_R   0.709839 0.846954 0.582416 0.451861
C56   C     C_3   0.119485 0.306006 0.794528 -0.358929
C57   C     C_R   0.486585 0.153513 0.420404 -0.035331
C58   C     C_R   0.431206 0.082707 0.417352 -0.100736
C59   C     C_R   0.517684 0.037651 0.453816 0.013983
C60   C     C_R   0.453906 0.967647 0.457704 0.036507
C61   C     C_R   0.294205 0.941908 0.431189 -0.105191
C62   C     C_R   0.326692 0.828024 0.466748 -0.018275
C63   C     C_R   0.233075 0.873774 0.435161 -0.089995
C64   C     C_3   0.999740 0.223183 0.339140 -0.393461
C65   C     C_R   0.267456 0.757269 0.467300 0.016530
C66   C     C_R   0.364066 0.712734 0.498841 -0.265361
C67   C     C_3   0.588416 0.279891 0.673169 0.348986
C68   C     C_R   0.514143 0.738080 0.535004 0.034703
C69   C     C_3   0.696026 0.628290 0.690017 0.319171
C70   C     C_3   0.723909 0.652019 0.773305 -0.403132
C71   C     C_3   0.569392 0.204907 0.689040 -0.344708
C72   C     C_R   0.001993 0.463679 0.045219 0.008499
H1    H     H_    0.673218 0.721397 0.374487 0.080022
H2    H     H_    0.602146 0.582877 0.676825 0.053255
H3    H     H_    0.751731 0.805370 0.296509 0.144125
H4    H     H_    0.840651 0.684719 0.787013 0.098792
H5    H     H_    0.728691 0.604338 0.797623 0.053983
H6    H     H_    0.623011 0.685670 0.799159 0.149975
H7    H     H_    0.472691 0.705245 0.329068 -0.071017
H8    H     H_    0.567911 0.833367 0.345183 0.073806
H9    H     H_    0.377119 0.366383 0.325315 0.016723
H10   H     H_    0.586720 0.398303 0.317483 0.061993
H11   H     H_    0.386864 0.280833 0.203630 0.130098
H12   H     H_    0.135375 0.786963 0.801006 0.119135
H13   H     H_    0.442126 0.372302 0.196873 0.055685
H14   H     H_    0.599746 0.307766 0.196339 0.119970
H15   H     H_    0.553363 0.787679 0.248939 0.113779
H16   H     H_    0.127954 0.646842 0.164591 0.075650
H17   H     H_    0.177419 0.375605 0.722490 0.097725
H18   H     H_    0.974279 0.332248 0.708411 -0.065569
H19   H     H_    0.249816 0.298803 0.808345 0.148041
H20   H     H_    0.072220 0.350738 0.837616 0.071993
H21   H     H_    0.046801 0.254950 0.793595 0.120346
H22   H     H_    0.720797 0.292259 0.668214 -0.066201
H23   H     H_    0.123055 0.699964 0.823888 0.084159
H24   H     H_    0.523363 0.278229 0.620136 0.093811
H25   H     H_    0.622058 0.163559 0.644138 0.078208
H26   H     H_    0.437612 0.190106 0.693012 0.152795
H27   H     H_    0.008759 0.625083 0.278142 0.100452
H28   H     H_    0.634840 0.204834 0.741630 0.119721
H29   H     H_    0.679378 0.370193 0.098096 0.063349
H30   H     H_    0.571697 0.374855 0.976557 0.073465
H31   H     H_    0.833690 0.480711 0.653441 0.063203
H32   H     H_    0.606844 0.407875 0.860468 0.108328
H33   H     H_    0.898493 0.396093 0.191434 0.098428
H34   H     H_    0.883778 0.324313 0.383299 0.003623
H35   H     H_    0.298928 0.595600 0.807727 0.086754
H36   H     H_    0.514265 0.623553 0.900684 0.077424
H37   H     H_    0.622063 0.618925 0.022173 0.073712
H38   H     H_    0.587365 0.585642 0.137845 0.110687
H39   H     H_    0.217563 0.661594 0.294693 -0.067286
H40   H     H_    0.363695 0.511925 0.344871 0.072682
H41   H     H_    0.855585 0.342315 0.518993 0.065688
H42   H     H_    0.105131 0.134141 0.573572 0.112542
H43   H     H_    0.412271 0.184936 0.392077 0.095196
H44   H     H_    0.109422 0.858405 0.414035 0.109903
H45   H     H_    0.097512 0.323455 0.409531 0.075182
H46   H     H_    0.320420 0.657345 0.495990 0.076652
H47   H     H_    0.020932 0.010918 0.561806 0.079398
H48   H     H_    0.899230 0.927649 0.595514 0.120415
H49   H     H_    0.319485 0.065071 0.385398 0.062482
H50   H     H_    0.959881 0.705345 0.192868 0.143165
H51   H     H_    0.210353 0.973608 0.408037 0.069479
H52   H     H_    0.169431 0.741641 0.209518 0.112165
H53   H     H_    0.372423 0.668466 0.734079 0.051055
H54   H     H_    0.319526 0.746046 0.704276 0.104834
H55   H     H_    0.408793 0.804571 0.843359 0.225269
H56   H     H_    0.901099 0.204026 0.296303 0.129901
H57   H     H_    0.294886 0.782615 0.908902 0.191270
H58   H     H_    0.898705 0.784162 0.732498 0.350042
H59   H     H_    0.975807 0.198533 0.386024 0.061029
H60   H     H_    0.119353 0.204662 0.316223 0.119374
H61   H     H_    0.811556 0.610148 0.663928 0.026038
N1    N     N_3   0.343157 0.761531 0.857337 -0.526202
O1    O     O_2   0.885040 0.450540 0.321170 -0.468486
O2    O     O_2   0.268073 0.247322 0.533288 -0.494287
O3    O     O_3   0.165960 0.266889 0.666373 -0.600073
O4    O     O_3   0.133000 0.456200 0.410860 -0.493493
O5    O     O_3   0.556800 0.589310 0.543550 -0.506588
O6    O     O_2   0.384750 0.321010 0.451130 -0.467409
O7    O     O_3   0.555619 0.292616 0.330038 -0.645224
O8    O     O_2   0.429097 0.465650 0.754507 -0.498863
O9    O     O_3   0.520822 0.331602 0.730316 -0.602227
O10   O     O_3   0.639000 0.584840 0.375630 -0.493167
O11   O     O_2   0.764778 0.531336 0.246140 -0.496002
O12   O     O_3   0.642906 0.687963 0.665726 -0.559072
O13   O     O_3   0.044048 0.334405 0.304046 -0.641464
O14   O     O_3   0.669192 0.663861 0.265475 -0.604774
O15   O     O_2   0.804950 0.679010 0.548920 -0.409933
O16   O     O_3   0.051170 0.624120 0.414780 -0.483584
O17   O     O_2   0.924311 0.752885 0.467020 -0.495867
O18   O     O_2   0.806384 0.918059 0.719469 -0.297057
O19   O     O_2   0.590426 0.823663 0.707638 -0.323707
O20   O     O_3   0.893022 0.785295 0.680063 -0.492501
O21   O     O_3   0.034913 0.733223 0.335149 -0.613210
O22   O     O_2   0.304650 0.549490 0.678880 -0.496589
O23   O     O_3   0.056690 0.543860 0.589150 -0.453793
O24   O     O_3   0.550690 0.415220 0.624380 -0.477610
O25   O     O_3   0.138799 0.666035 0.681611 -0.615871
O26   O     O_3   0.632900 0.410750 0.456460 -0.479739
O27   O     O_3   0.138520 0.375940 0.585230 -0.486077
P1    P     P_3+3 0.058010 0.429760 0.330690 0.969716
P2    P     P_3+3 0.631910 0.669560 0.569730 1.080485
P3    P     P_3+3 0.069524 0.717538 0.422555 0.960482
P4    P     P_3+3 0.131690 0.570300 0.669320 0.986185
P5    P     P_3+3 0.124486 0.282072 0.579348 0.939925
P6    P     P_3+3 0.623505 0.577907 0.281444 0.931954
P7    P     P_3+3 0.566717 0.319117 0.426167 0.934654
P8    P     P_3+3 0.568465 0.418725 0.717700 0.933076
S1    S     S_3+6 0.746536 0.843995 0.675145 -0.072999

loop_
_geom_bond_atom_site_label_1
_geom_bond_atom_site_label_2
_ccdc_geom_bond_type
C71   H26   S    
C53   C54   A    
O9    P8    S    
O12   P2    S    
O17   P3    D    
C32   H38   S    
C45   H18   S    
C67   H22   S    
Ba2   O26   S    
C61   C63   A    
C5    C6    A    
C43   C44   A    
C34   H14   S    
O8    P8    D    
C24   C25   A    
C35   C36   A    
Ba1   O23   S    
C40   N1    S    
C33   C35   A    
C56   H19   S    
C22   C24   A    
C48   H41   S    
C70   H5    S    
C69   H61   S    
C69   H2    S    
O14   P6    S    
C19   C31   A    
C13   C14   A    
C64   H59   S    
C44   C50   A    
C70   H6    S    
C67   O9    S    
C54   C55   A    
Ba1   O16   S    
O2    P5    D    
Ba1   Ba2   S    
C4    H27   S    
C39   H47   S    
C7    C11   A    
C70   H4    S    
C31   C33   A    
C64   H60   S    
C9    C13   A    
O19   S1    D    
Ba1   P1    S    
C6    C7    A    
C66   H46   S    
C23   H10   S    
C63   H44   S    
C67   C71   S    
C40   H12   S    
C43   C47   A    
C41   C46   A    
Ba1   O15   S    
C2    C72   A    
C59   C60   A    
O6    P7    D    
C55   S1    S    
C67   H24   S    
C36   P1    S    
C69   O12   S    
C57   C58   A    
C57   H43   S    
C52   H45   S    
C3    H29   S    
C39   C41   A    
Ba1   O10   S    
C23   O7    S    
O22   P4    D    
C48   C49   A    
C52   O13   S    
C44   C46   A    
C51   C53   A    
C34   H13   S    
C4    C16   S    
C28   H54   S    
O18   S1    D    
C49   C50   A    
C16   H16   S    
C62   C65   A    
C27   H36   S    
C26   C30   A    
Ba1   O5    S    
C47   P5    S    
H57   N1    S    
C15   P4    S    
C68   P2    S    
C37   C38   A    
C3    C5    A    
C2    C21   A    
Ba2   O23   S    
C37   C41   A    
C35   H40   S    
C18   C26   A    
O15   P2    D    
O20   S1    S    
C65   C66   A    
C58   C59   A    
C30   C32   A    
O21   P3    S    
C58   H49   S    
C56   H21   S    
C4    H39   S    
C60   C61   A    
C50   C57   A    
H55   N1    S    
C51   C60   A    
C29   C30   A    
O26   P7    S    
Ba1   P2    S    
Ba2   O22   S    
C21   H33   S    
C53   C62   A    
C12   O14   S    
C1    H8    S    
C31   C32   A    
C13   P8    S    
O13   P1    S    
C61   H51   S    
C10   C11   A    
Ba1   O4    S    
O25   P4    S    
C1    C12   S    
C14   H31   S    
C52   C64   S    
C65   P3    S    
C6    C8    A    
C71   H28   S    
Ba1   O26   S    
C54   C68   A    
C5    H30   S    
Ba2   O6    S    
C39   C42   A    
C40   H23   S    
C7    C72   A    
C1    H3    S    
C4    O21   S    
Ba1   O1    S    
C42   C43   A    
C71   H25   S    
C28   H53   S    
C38   C55   A    
C45   H17   S    
C49   P7    S    
C28   C40   S    
C22   H35   S    
O7    P7    S    
C2    C3    A    
Ba2   O27   S    
O1    P1    D    
O16   P3    S    
C9    C10   A    
C18   C72   A    
C34   H11   S    
O4    P1    S    
C38   H48   S    
O5    P2    S    
C12   H7    S    
C52   H34   S    
C1    H15   S    
Ba2   O4    S    
C12   H1    S    
C17   C22   A    
C56   H20   S    
C69   C70   S    
C27   C29   A    
C62   C63   A    
C45   C56   S    
C46   C59   A    
C37   C51   A    
C33   P6    S    
Ba2   O5    S    
C10   C17   A    
C15   C17   A    
O24   P8    S    
O23   P4    S    
O27   P5    S    
O3    P5    S    
H58   O20   S    
C8    H32   S    
C8    C9    A    
C23   C34   S    
C18   C19   A    
C42   H42   S    
C24   C27   A    
Ba2   O24   S    
C47   C48   A    
O10   P6    S    
C45   O3    S    
C25   C26   A    
C23   H9    S    
C66   C68   A    
C29   H37   S    
C20   C21   A    
C11   C25   A    
C28   O25   S    
C19   C20   A    
Ba2   P4    S    
C16   H52   S    
O11   P6    D    
C14   C15   A    
C16   H50   S    
C64   H56   S    
C20   C36   A    
