data_mof_unit_41815.cif
_audit_creation_date              2012-12-10T17:22:10-0500
_audit_creation_method            fapswitch 2.2
_symmetry_space_group_name_H-M    P1
_symmetry_Int_Tables_number       1
_space_group_crystal_system       triclinic
_cell_length_a                    15.879397
_cell_length_b                    10.775941
_cell_length_c                    9.608107
_cell_angle_alpha                 89.978925
_cell_angle_beta                  89.789038
_cell_angle_gamma                 92.688086
_cell_volume                      1642.2750513

loop_
_atom_site_label
_atom_site_type_symbol
_atom_type_description
_atom_site_fract_x
_atom_site_fract_y
_atom_site_fract_z
_atom_type_partial_charge
C1    C     C_R   0.496788 0.262558 0.500090 0.784041
C2    C     C_3   0.952828 0.578495 0.625667 -0.357398
C3    C     C_3   0.917549 0.513907 0.492176 0.090254
C4    C     C_3   0.955077 0.581650 0.358950 0.209730
C5    C     C_3   0.054267 0.600785 0.373268 0.213252
C6    C     C_1   0.825080 0.507952 0.496132 0.021234
C7    C     C_1   0.175674 0.509788 0.499668 0.044260
C8    C     C_1   0.250956 0.504342 0.500793 -0.086245
C9    C     C_R   0.364673 0.119578 0.652474 -0.259598
C10   C     C_R   0.303865 0.050425 0.728075 -0.197987
C11   C     C_R   0.303868 0.921099 0.728893 0.433769
C12   C     C_R   0.340380 0.499989 0.500319 0.796907
C13   C     C_R   0.365178 0.860818 0.653103 -0.226706
C14   C     C_R   0.428788 0.929258 0.578477 0.038428
C15   C     C_R   0.428593 0.060437 0.578339 0.109723
C16   C     C_R   0.490895 0.128290 0.500065 -0.078830
C17   C     C_R   0.549259 0.067517 0.418989 -0.158277
C18   C     C_R   0.549440 0.939573 0.419016 -0.142090
C19   C     C_R   0.491251 0.870421 0.500114 -0.047515
C20   C     C_R   0.609824 0.668576 0.142937 -0.202033
C21   C     C_R   0.661604 0.753746 0.070553 -0.207128
C22   C     C_R   0.661960 0.754084 0.926739 0.433570
C23   C     C_R   0.497403 0.737075 0.500036 0.783602
C24   C     C_R   0.609941 0.668490 0.855403 -0.233283
C25   C     C_R   0.553914 0.582992 0.924931 0.145441
C26   C     C_R   0.553893 0.582953 0.074329 0.207233
C27   C     C_R   0.448576 0.421187 0.074200 -0.030126
C28   C     C_R   0.448571 0.421246 0.926376 -0.012228
C29   C     C_R   0.659665 0.500500 0.499719 0.816446
C30   C     C_3   0.049485 0.566474 0.635181 -0.274519
C31   C     C_3   0.045378 0.382152 0.476140 -0.482656
C32   C     C_3   0.948343 0.379513 0.490730 -0.423342
C33   C     C_1   0.749417 0.503709 0.498788 -0.094175
C34   C     C_3   0.083741 0.516392 0.495825 0.081248
Cu1   Cu    Cu3+1 0.499990 0.499990 0.640660 0.964129
Cu2   Cu    Cu3+1 0.500010 0.500010 0.359340 0.965673
H1    H     H_    0.922459 0.536091 0.720046 0.201307
H2    H     H_    0.080417 0.657731 0.662007 0.278245
H3    H     H_    0.937978 0.678030 0.625377 0.251836
H4    H     H_    0.596295 0.119662 0.357884 0.164477
H5    H     H_    0.359943 0.219279 0.651312 0.156752
H6    H     H_    0.256044 0.097970 0.785091 0.180878
H7    H     H_    0.361618 0.760590 0.651659 0.190388
H8    H     H_    0.406405 0.356521 0.129548 0.140567
H9    H     H_    0.063919 0.501724 0.721266 0.185937
H10   H     H_    0.702636 0.818580 0.127597 0.224455
H11   H     H_    0.062693 0.346771 0.371525 0.193222
H12   H     H_    0.919254 0.325487 0.403066 0.201697
H13   H     H_    0.082530 0.565580 0.275523 0.083218
N1    N     N_R   0.500800 0.501210 0.147910 -0.190711
N2    N     N_R   0.500820 0.501290 0.852040 -0.185002
O1    O     O_R   0.499990 0.319640 0.618810 -0.573251
O2    O     O_R   0.500000 0.319660 0.381240 -0.579768
O3    O     O_R   0.379430 0.499990 0.618840 -0.577829
O4    O     O_R   0.379440 0.500020 0.381260 -0.567294
O5    O     O_R   0.500000 0.680340 0.618760 -0.598917
O6    O     O_R   0.500010 0.680360 0.381190 -0.596732
O7    O     O_R   0.620560 0.499980 0.618740 -0.584566
O8    O     O_R   0.620570 0.500010 0.381160 -0.577290
H14   H     H_    0.945454 0.514343 0.271776 0.086697
S1    S     S_3+6 0.226791 0.835353 0.825876 0.034528
O9    O     O_2   0.140960 0.876567 0.786660 -0.226188
O10   O     O_2   0.231222 0.698404 0.798800 -0.316555
O11   O     O_3   0.242063 0.863338 0.996250 -0.457228
H15   H     H_    0.298975 0.833866 0.015917 0.342749
H16   H     H_    0.596669 0.894288 0.358057 0.145714
H17   H     H_    0.616918 0.673659 0.252537 0.220369
S2    S     S_3+6 0.730198 0.858818 0.834658 0.021338
O12   O     O_2   0.690821 0.893176 0.698739 -0.322458
O13   O     O_2   0.748076 0.974045 0.919741 -0.253308
O14   O     O_3   0.820957 0.789499 0.803102 -0.514372
H18   H     H_    0.856563 0.852272 0.751880 0.391539
H19   H     H_    0.616415 0.672602 0.745799 0.227302
H20   H     H_    0.406385 0.356643 0.871559 0.131239
H21   H     H_    0.071233 0.318266 0.554691 0.213543
H22   H     H_    0.928993 0.330716 0.588756 0.220071
S3    S     S_3+6 0.096416 0.760936 0.388706 0.075223
O15   O     O_2   0.185664 0.763993 0.440501 -0.300217
O16   O     O_2   0.097330 0.822249 0.248268 -0.165328
O17   O     O_3   0.039337 0.843172 0.500106 -0.471446
H23   H     H_    0.066296 0.927938 0.498873 0.388644
S4    S     S_3+6 0.895715 0.711154 0.298581 0.069719
O18   O     O_2   0.940075 0.776640 0.179422 -0.141622
O19   O     O_2   0.812171 0.660558 0.245139 -0.337067
O20   O     O_3   0.878152 0.813720 0.426173 -0.463066
H24   H     H_    0.825431 0.782721 0.472454 0.353757

loop_
_geom_bond_atom_site_label_1
_geom_bond_atom_site_label_2
_ccdc_geom_bond_type
C10   H6    S    
C20   H17   S    
Cu1   Cu2   S    
C3    C6    S    
C28   H20   S    
C7    C8    T    
S3    O15   D    
Cu1   O7    S    
C26   N1    A    
C28   N2    A    
C24   H19   S    
C15   C16   A    
C29   C33   S    
C30   H2    S    
C18   C19   A    
S1    O10   D    
C1    O2    A    
Cu2   O2    S    
C30   H9    S    
C2    H3    S    
C29   O8    A    
C16   C17   A    
C9    C10   A    
C27   N1    A    
Cu2   O8    S    
C31   H11   S    
C13   C14   A    
Cu1   O3    S    
C32   H12   S    
C5    H13   S    
C3    C32   S    
C27   H8    S    
S3    O16   D    
C30   C34   S    
C23   O5    A    
C24   C25   A    
Cu2   O6    S    
S2    O12   D    
C25   C26   A    
O20   H24   S    
C17   H4    S    
S1    O11   S    
C19   C23   S    
C25   N2    A    
C31   H21   S    
C31   C32   S    
C8    C12   S    
C5    C34   S    
C4    H14   S    
C17   C18   A    
C31   C34   S    
C1    C16   S    
C20   C21   A    
C22   S2    S    
S4    O19   D    
Cu1   N2    S    
C7    C34   S    
C22   C24   A    
C5    S3    S    
C3    C4    S    
C13   H7    S    
Cu2   N1    S    
C21   H10   S    
S3    O17   S    
C23   O6    A    
Cu1   O5    S    
C14   C19   A    
O17   H23   S    
C11   S1    S    
C32   H22   S    
C18   H16   S    
S4    O20   S    
C9    H5    S    
C6    C33   T    
C2    C30   S    
O11   H15   S    
C2    C3    S    
C9    C15   A    
O14   H18   S    
Cu2   O4    S    
C11   C13   A    
C2    H1    S    
C20   C26   A    
S2    O14   S    
S1    O9    D    
C1    O1    A    
C12   O4    A    
C10   C11   A    
C4    C5    S    
C4    S4    S    
C29   O7    A    
S2    O13   D    
S4    O18   D    
Cu1   O1    S    
C14   C15   A    
C21   C22   A    
C12   O3    A    
C27   C28   A    
