data_mof_unit_46061.cif
_audit_creation_date              2012-12-10T17:56:19-0500
_audit_creation_method            fapswitch 2.2
_symmetry_space_group_name_H-M    P1
_symmetry_Int_Tables_number       1
_space_group_crystal_system       triclinic
_cell_length_a                    13.012546
_cell_length_b                    10.834996
_cell_length_c                    9.529806
_cell_angle_alpha                 89.847402
_cell_angle_beta                  96.324575
_cell_angle_gamma                 90.455462
_cell_volume                      1335.39389904

loop_
_atom_site_label
_atom_site_type_symbol
_atom_type_description
_atom_site_fract_x
_atom_site_fract_y
_atom_site_fract_z
_atom_type_partial_charge
C1    C     C_R   0.498250 0.262229 0.500123 0.827291
C2    C     C_R   0.501750 0.737771 0.499877 0.827291
C3    C     C_R   0.502425 0.871635 0.498996 -0.044146
C4    C     C_R   0.497575 0.128365 0.501004 -0.044146
C5    C     C_R   0.435340 0.422782 0.064543 0.273956
C6    C     C_R   0.564660 0.577218 0.935457 0.273955
C7    C     C_R   0.435615 0.423260 0.915576 -0.122217
C8    C     C_R   0.564385 0.576740 0.084424 -0.122217
C9    C     C_R   0.300500 0.499597 0.473547 0.817506
C10   C     C_R   0.699500 0.500403 0.526453 0.817507
C11   C     C_R   0.812264 0.502664 0.541816 -0.099194
C12   C     C_R   0.187736 0.497336 0.458184 -0.099194
C13   C     C_R   0.024132 0.464986 0.313871 0.158229
C14   C     C_R   0.975868 0.535014 0.686129 0.158229
C15   C     C_R   0.132048 0.472094 0.327291 -0.220427
C16   C     C_R   0.867952 0.527906 0.672709 -0.220427
C17   C     C_R   0.135846 0.517760 0.576672 -0.257371
C18   C     C_R   0.864154 0.482239 0.423328 -0.257371
C19   C     C_R   0.028189 0.513467 0.566307 0.112694
C20   C     C_R   0.971811 0.486533 0.433693 0.112694
C21   C     C_R   0.539597 0.066697 0.392108 -0.294423
C22   C     C_R   0.460403 0.933303 0.607892 -0.294423
C23   C     C_R   0.542888 0.938636 0.390450 0.168490
C24   C     C_R   0.457112 0.061364 0.609550 0.168490
Cu1   Cu    Cu3+1 0.500000 0.500020 0.640660 0.972425
Cu2   Cu    Cu3+1 0.500000 0.499980 0.359340 0.972425
H1    H     H_    0.820014 0.462938 0.322602 0.186211
H2    H     H_    0.179986 0.537062 0.677398 0.186211
H3    H     H_    0.827426 0.544379 0.764081 0.159272
H4    H     H_    0.172574 0.455621 0.235918 0.159272
H5    H     H_    0.571844 0.117888 0.309159 0.159861
H6    H     H_    0.428156 0.882112 0.690840 0.159861
H7    H     H_    0.384087 0.362033 0.851190 0.156523
H8    H     H_    0.615913 0.637967 0.148810 0.156523
N1    N     N_R   0.500030 0.500030 0.852080 -0.161004
N2    N     N_R   0.499970 0.499970 0.147920 -0.161004
O1    O     O_R   0.499990 0.319660 0.618740 -0.556476
O2    O     O_R   0.500010 0.680340 0.381260 -0.556476
O3    O     O_R   0.499990 0.319630 0.381170 -0.572052
O4    O     O_R   0.500010 0.680370 0.618830 -0.572052
O5    O     O_R   0.349000 0.499990 0.599490 -0.594528
O6    O     O_R   0.651000 0.500010 0.400510 -0.594528
O7    O     O_R   0.348990 0.499960 0.361920 -0.560738
O8    O     O_R   0.651010 0.500040 0.638080 -0.560738
N3    N     N_3   0.967789 0.435262 0.179583 -0.617007
H9    H     H_    0.936081 0.346966 0.188285 0.212117
H10   H     H_    0.017981 0.429397 0.101466 0.223263
N4    N     N_3   0.032211 0.564738 0.820417 -0.617007
H11   H     H_    0.063919 0.653034 0.811715 0.212117
H12   H     H_    0.982019 0.570602 0.898534 0.223263
N5    N     N_3   0.589782 0.877535 0.280705 -0.590289
H13   H     H_    0.550300 0.903327 0.183660 0.210498
H14   H     H_    0.666118 0.909070 0.283274 0.208780
N6    N     N_3   0.410217 0.122465 0.719293 -0.590290
H15   H     H_    0.333880 0.090931 0.716723 0.208780
H16   H     H_    0.449697 0.096672 0.816339 0.210498
N7    N     N_3   0.367385 0.340684 0.127964 -0.530803
H17   H     H_    0.385375 0.250517 0.101038 0.190499
H18   H     H_    0.291908 0.358305 0.083303 0.183061
N8    N     N_3   0.632615 0.659316 0.872036 -0.530805
H19   H     H_    0.708092 0.641697 0.916698 0.183061
H20   H     H_    0.614623 0.749483 0.898961 0.190500

loop_
_geom_bond_atom_site_label_1
_geom_bond_atom_site_label_2
_ccdc_geom_bond_type
C12   C17   A    
C14   N4    S    
C11   C18   A    
C1    O1    A    
C9    O5    A    
C10   O6    A    
C7    H7    S    
C11   C16   A    
C2    O2    A    
C23   N5    S    
C19   C20   A    
C12   C15   A    
C5    N7    S    
C1    C4    S    
C22   C24   A    
N4    H12   S    
C2    C3    S    
C16   H3    S    
Cu1   O4    S    
C8    H8    S    
N3    H9    S    
C13   N3    S    
C4    C21   A    
C21   H5    S    
N7    H17   S    
C22   H6    S    
Cu1   N1    S    
Cu1   O8    S    
Cu2   N2    S    
N4    H11   S    
C17   C19   A    
Cu2   O7    S    
C14   C16   A    
C13   C15   A    
C21   C23   A    
C8    N2    A    
C4    C24   A    
C9    C12   S    
N6    H16   S    
Cu2   O3    S    
C9    O7    A    
N7    H18   S    
C10   C11   S    
C1    O3    A    
C24   N6    S    
N5    H13   S    
C5    N2    A    
C6    N8    S    
C7    N1    A    
C6    N1    A    
Cu2   O6    S    
C18   C20   A    
N8    H20   S    
C15   H4    S    
N3    H10   S    
Cu1   O5    S    
C5    C7    A    
C3    C23   A    
N6    H15   S    
Cu2   O2    S    
C3    C22   A    
C6    C8    A    
C13   C20   A    
Cu1   O1    S    
Cu1   Cu2   S    
C17   H2    S    
C10   O8    A    
C14   C19   A    
C18   H1    S    
C2    O4    A    
N8    H19   S    
N5    H14   S    
