data_mof_unit_15532.cif
_audit_creation_date              2012-12-10T16:57:48-0500
_audit_creation_method            fapswitch 2.2
_symmetry_space_group_name_H-M    P1
_symmetry_Int_Tables_number       1
_space_group_crystal_system       triclinic
_cell_length_a                    7.733297
_cell_length_b                    8.480878
_cell_length_c                    19.220763
_cell_angle_alpha                 91.128273
_cell_angle_beta                  84.666449
_cell_angle_gamma                 93.941444
_cell_volume                      1252.05785948

loop_
_atom_site_label
_atom_site_type_symbol
_atom_type_description
_atom_site_fract_x
_atom_site_fract_y
_atom_site_fract_z
_atom_type_partial_charge
C1    C     C_R   0.545598 0.793851 0.508774 0.958257
C2    C     C_R   0.663686 0.483026 0.175784 0.206739
C3    C     C_R   0.493207 0.526205 0.855098 0.082395
C4    C     C_R   0.510871 0.513764 0.144884 0.081874
C5    C     C_R   0.647770 0.496615 0.814311 -0.210954
C6    C     C_R   0.355548 0.535778 0.186525 -0.208876
C7    C     C_R   0.651069 0.488203 0.742170 -0.205796
C8    C     C_R   0.350851 0.530136 0.258584 -0.201091
C9    C     C_R   0.499588 0.509841 0.710165 -0.065229
C10   C     C_R   0.501772 0.502090 0.289791 -0.083963
C11   C     C_R   0.506811 0.518585 0.069669 0.289412
C12   C     C_R   0.454917 0.206904 0.512217 0.961262
C13   C     C_R   0.495502 0.527456 0.930441 0.289907
C14   C     C_3   0.173575 0.593218 0.864627 -0.897679
C15   C     C_3   0.831654 0.450015 0.133176 -0.894416
C16   C     C_3   0.754193 0.016643 0.543887 -0.868005
C17   C     C_3   0.247854 0.988116 0.563804 -0.878873
C18   C     C_2   0.570409 0.956194 0.530505 -0.039546
C19   C     C_2   0.431084 0.046798 0.536079 -0.031030
C20   C     C_R   0.500466 0.501743 0.634534 0.843876
C21   C     C_R   0.499750 0.499825 0.365472 0.893245
C22   C     C_R   0.345521 0.542661 0.750716 -0.189335
C23   C     C_R   0.657089 0.477942 0.248363 -0.185218
C24   C     C_R   0.340343 0.551704 0.823237 0.206447
H1    H     H_    0.228669 0.561982 0.725890 0.157439
H2    H     H_    0.076294 0.629722 0.830154 0.229621
H3    H     H_    0.114321 0.489267 0.894420 0.257365
H4    H     H_    0.807422 0.355252 0.093879 0.253304
H5    H     H_    0.888460 0.559013 0.106508 0.256576
H6    H     H_    0.929885 0.409845 0.166362 0.229936
H7    H     H_    0.818007 0.925517 0.571258 0.226812
H8    H     H_    0.832844 0.043640 0.493698 0.253037
H9    H     H_    0.754162 0.122057 0.579120 0.259036
H10   H     H_    0.184061 0.082184 0.595698 0.238641
H11   H     H_    0.168409 0.955649 0.519779 0.255021
H12   H     H_    0.773750 0.454719 0.272544 0.158761
H13   H     H_    0.249139 0.886657 0.599400 0.251413
H14   H     H_    0.765438 0.476884 0.838478 0.157214
H15   H     H_    0.237819 0.559147 0.163145 0.156782
H16   H     H_    0.771425 0.463747 0.711640 0.161249
H17   H     H_    0.229705 0.548904 0.289719 0.164065
H18   H     H_    0.014382 0.381031 0.447506 0.192275
H19   H     H_    0.985630 0.618955 0.552516 0.186378
H20   H     H_    0.200169 0.693228 0.901109 0.252847
N1    N     N_R   0.633658 0.596972 0.960341 -0.174404
N2    N     N_R   0.368601 0.449406 0.039743 -0.174011
N3    N     N_R   0.638701 0.593310 0.029069 -0.166240
N4    N     N_R   0.363543 0.453103 0.971072 -0.165825
N5    N     N_2   0.950330 0.457950 0.481240 -0.172954
N6    N     N_2   0.049670 0.542050 0.518760 -0.174671
O1    O     O_R   0.389250 0.738570 0.504600 -0.616318
O2    O     O_R   0.610750 0.261430 0.495400 -0.618886
O3    O     O_R   0.678400 0.711620 0.492580 -0.616478
O4    O     O_R   0.321600 0.288380 0.507420 -0.619058
O5    O     O_R   0.355380 0.513500 0.607880 -0.635365
O6    O     O_R   0.644620 0.486500 0.392120 -0.616788
O7    O     O_R   0.644530 0.486550 0.595850 -0.638801
O8    O     O_R   0.355470 0.513450 0.404150 -0.620074
Zn1   Zn    Zn3+2 0.306930 0.517990 0.508030 0.928426
Zn2   Zn    Zn3+2 0.693070 0.482010 0.491970 0.930271

loop_
_geom_bond_atom_site_label_1
_geom_bond_atom_site_label_2
_ccdc_geom_bond_type
C13   N4    A    
C2    C4    A    
C7    H16   S    
H19   N6    S    
O5    Zn1   S    
C16   H9    S    
C16   H8    S    
C5    C7    A    
C9    C20   S    
C11   N3    A    
C3    C13   S    
C16   H7    S    
C15   H4    S    
C21   O8    A    
C17   H13   S    
C5    H14   S    
C14   H2    S    
C4    C11   S    
C13   N1    A    
C2    C15   S    
C1    O1    A    
C21   O6    A    
C1    C18   S    
N5    Zn2   S    
O2    Zn2   S    
C20   O5    A    
N6    Zn1   S    
C12   C19   S    
C8    C10   A    
C12   O2    A    
O3    Zn2   S    
C15   H5    S    
C14   H20   S    
N2    N4    A    
O4    Zn1   S    
N1    N3    A    
C10   C21   S    
C14   H3    S    
C22   C24   A    
C9    C22   A    
C4    C6    A    
O1    Zn1   S    
C17   H10   S    
H18   N5    S    
C23   H12   S    
C3    C5    A    
O7    Zn2   S    
C8    H17   S    
C15   H6    S    
C16   C18   S    
N5    N6    D    
C14   C24   S    
C2    C23   A    
C7    C9    A    
C1    O3    A    
C6    H15   S    
C18   C19   D    
C10   C23   A    
C6    C8    A    
C17   H11   S    
C17   C19   S    
O8    Zn1   S    
C20   O7    A    
C12   O4    A    
O6    Zn2   S    
C3    C24   A    
C11   N2    A    
C22   H1    S    
