data_mof_unit_65678.cif
_audit_creation_date              2012-10-26T18:35:35-0400
_audit_creation_method            fapswitch 2.2
_symmetry_space_group_name_H-M    P1
_symmetry_Int_Tables_number       1
_space_group_crystal_system       triclinic
_cell_length_a                    19.69895
_cell_length_b                    19.6485
_cell_length_c                    12.757235
_cell_angle_alpha                 89.999141
_cell_angle_beta                  101.310127
_cell_angle_gamma                 89.999778
_cell_volume                      4841.85824168

loop_
_atom_site_label
_atom_site_type_symbol
_atom_type_description
_atom_site_fract_x
_atom_site_fract_y
_atom_site_fract_z
_atom_type_partial_charge
C1    C     C_R   0.407426 0.091572 0.483434 0.546817
C2    C     C_1   0.480582 1.000000 0.143608 0.144969
C3    C     C_1   0.019418 0.500000 0.856392 0.144970
C4    C     C_1   0.980582 0.500000 0.143608 0.144975
C5    C     C_1   0.644378 0.143006 0.526190 -0.025400
C6    C     C_1   0.355586 0.857028 0.473803 -0.025270
C7    C     C_1   0.355626 0.143012 0.473807 -0.025350
C8    C     C_1   0.644535 0.857147 0.526221 -0.025311
C9    C     C_1   0.144410 0.642975 0.526196 -0.025277
C10   C     C_1   0.855617 0.356998 0.473809 -0.025392
C11   C     C_1   0.855470 0.642858 0.473779 -0.025318
C12   C     C_R   0.592594 0.908448 0.516569 0.546860
C13   C     C_1   0.144378 0.356992 0.526193 -0.025344
C14   C     C_2   0.740797 0.238834 0.545140 0.303060
C15   C     C_2   0.259088 0.761278 0.454838 0.303097
C16   C     C_2   0.259209 0.238842 0.454860 0.303072
C17   C     C_2   0.741303 0.761660 0.545230 0.303099
C18   C     C_2   0.240900 0.738733 0.545160 0.303097
C19   C     C_2   0.759184 0.261184 0.454857 0.303061
C20   C     C_2   0.758716 0.738359 0.454773 0.303098
C21   C     C_2   0.240806 0.261172 0.545142 0.303073
C22   C     C_1   0.311890 0.813703 0.464760 -0.008098
C23   C     C_R   0.592575 0.091570 0.516565 0.546747
C24   C     C_1   0.688040 0.186366 0.535228 -0.008173
C25   C     C_1   0.688350 0.813937 0.535287 -0.008112
C26   C     C_1   0.311967 0.186374 0.464769 -0.008149
C27   C     C_1   0.811950 0.313645 0.464771 -0.008168
C28   C     C_1   0.188103 0.686304 0.535239 -0.008103
C29   C     C_1   0.188041 0.313634 0.535231 -0.008144
C30   C     C_1   0.811661 0.686074 0.464714 -0.008117
C31   C     C_2   0.472902 1.000000 0.025692 -0.158682
C32   C     C_2   0.527098 0.000000 0.974307 -0.158686
C33   C     C_2   0.972902 0.499999 0.025693 -0.158685
C34   C     C_R   0.407421 0.908433 0.483434 0.546925
C35   C     C_2   0.027098 0.500000 0.974307 -0.158681
C36   C     C_3   0.751014 0.260941 0.268890 -0.118821
C37   C     C_3   0.249431 0.738622 0.731199 -0.118757
C38   C     C_3   0.248861 0.260807 0.731085 -0.118797
C39   C     C_3   0.748498 0.736604 0.268440 -0.118794
C40   C     C_3   0.250501 0.761444 0.268788 -0.118762
C41   C     C_3   0.748871 0.239170 0.731088 -0.118814
C42   C     C_3   0.751618 0.763511 0.731577 -0.118800
C43   C     C_3   0.251226 0.239279 0.268932 -0.118791
C44   C     C_R   0.907406 0.591552 0.483431 0.546852
C45   C     C_R   0.092574 0.408428 0.516565 0.546824
C46   C     C_R   0.092579 0.591567 0.516565 0.546918
C47   C     C_R   0.907425 0.408430 0.483435 0.546755
C48   C     C_1   0.519418 0.000000 0.856392 0.144975
Cu1   Cu    Cu3+1 0.493900 0.000000 0.394780 1.005517
Cu2   Cu    Cu3+1 0.506100 0.000000 0.605220 1.005522
Cu3   Cu    Cu3+1 0.993900 0.500000 0.394780 1.005522
Cu4   Cu    Cu3+1 0.006100 0.500000 0.605220 1.005518
H1    H     H_    0.579352 0.000001 0.021475 0.130248
H2    H     H_    0.277545 0.763267 0.805346 0.148232
H3    H     H_    0.192692 0.250407 0.724800 0.123869
H4    H     H_    0.259808 0.316321 0.738792 0.122323
H5    H     H_    0.276792 0.235980 0.805193 0.148195
H6    H     H_    0.737711 0.681011 0.262599 0.122337
H7    H     H_    0.804489 0.747067 0.272846 0.123801
H8    H     H_    0.719693 0.760576 0.194179 0.148285
H9    H     H_    0.306638 0.751096 0.274578 0.123906
H10   H     H_    0.239523 0.816969 0.261565 0.122313
H11   H     H_    0.222370 0.736816 0.194639 0.148230
H12   H     H_    0.420648 0.999999 0.978525 0.130262
H13   H     H_    0.759842 0.183659 0.738775 0.122298
H14   H     H_    0.692699 0.249547 0.724824 0.123857
H15   H     H_    0.776801 0.263995 0.805197 0.148191
H16   H     H_    0.695626 0.753112 0.727290 0.123841
H17   H     H_    0.762463 0.819096 0.737310 0.122300
H18   H     H_    0.780450 0.739565 0.805843 0.148282
H19   H     H_    0.240321 0.183759 0.261143 0.122354
H20   H     H_    0.307394 0.249724 0.275305 0.123833
H21   H     H_    0.223316 0.264126 0.194828 0.148198
H22   H     H_    0.079352 0.500001 0.021475 0.130261
H23   H     H_    0.920648 0.499999 0.978525 0.130248
H24   H     H_    0.807188 0.250626 0.275037 0.123899
H25   H     H_    0.739987 0.316445 0.261308 0.122261
H26   H     H_    0.723059 0.236142 0.194776 0.148189
H27   H     H_    0.260377 0.683094 0.738486 0.122335
H28   H     H_    0.193294 0.749006 0.725339 0.123878
N1    N     N_1   0.484760 0.000000 0.236650 -0.183164
N2    N     N_1   0.515240 0.000000 0.763350 -0.183164
N3    N     N_1   0.984760 0.500000 0.236650 -0.183164
N4    N     N_1   0.015240 0.500000 0.763350 -0.183164
O1    O     O_R   0.425190 0.068890 0.398580 -0.499518
O2    O     O_R   0.564530 0.931090 0.423710 -0.477430
O3    O     O_R   0.564530 0.068910 0.423710 -0.477492
O4    O     O_R   0.435470 0.931090 0.576290 -0.477394
O5    O     O_R   0.935470 0.568910 0.576290 -0.477434
O6    O     O_R   0.064530 0.431090 0.423710 -0.477450
O7    O     O_R   0.064530 0.568910 0.423710 -0.477400
O8    O     O_R   0.935470 0.431090 0.576290 -0.477487
O9    O     O_3   0.726859 0.233070 0.356727 -0.584575
O10   O     O_3   0.273459 0.766619 0.643337 -0.584545
O11   O     O_3   0.273140 0.233062 0.643272 -0.584565
O12   O     O_R   0.574810 0.931110 0.601420 -0.499492
O13   O     O_3   0.725253 0.765363 0.356446 -0.584571
O14   O     O_3   0.226532 0.733390 0.356662 -0.584549
O15   O     O_3   0.773127 0.266944 0.643272 -0.584572
O16   O     O_3   0.774760 0.734650 0.643556 -0.584573
O17   O     O_3   0.226871 0.266949 0.356729 -0.584562
O18   O     O_R   0.574810 0.068890 0.601420 -0.499552
O19   O     O_R   0.425190 0.931110 0.398580 -0.499460
O20   O     O_R   0.925190 0.568890 0.398580 -0.499496
O21   O     O_R   0.074810 0.431110 0.601420 -0.499514
O22   O     O_R   0.074810 0.568890 0.601420 -0.499464
O23   O     O_R   0.925190 0.431110 0.398580 -0.499548
O24   O     O_R   0.435470 0.068910 0.576290 -0.477455

loop_
_geom_bond_atom_site_label_1
_geom_bond_atom_site_label_2
_ccdc_geom_bond_type
C10   C27   T    
C43   H21   S    
C15   C18   D    
Cu2   O24   S    
C35   H22   S    
C43   H20   S    
C47   O8    A    
Cu1   O3    S    
C44   O20   A    
C14   O15   S    
C41   H15   S    
C20   C30   S    
C37   H27   S    
C16   C21   D    
C40   H11   S    
C13   C29   T    
C36   H25   S    
Cu3   O6    S    
C40   O14   S    
C39   O13   S    
C23   O18   A    
Cu1   N1    S    
C6    C22   T    
C42   H18   S    
C17   C20   D    
C40   H10   S    
C14   C24   S    
Cu4   N4    S    
C36   H24   S    
Cu3   O7    S    
C36   O9    S    
C33   H23   S    
C15   C22   S    
C38   H3    S    
C11   C30   T    
C38   O11   S    
C41   O15   S    
C19   C27   S    
C19   O9    S    
Cu2   O4    S    
Cu4   O22   S    
C9    C46   S    
C23   O3    A    
C42   H16   S    
C8    C25   T    
C32   C48   S    
Cu4   O5    S    
Cu1   O2    S    
C45   O21   A    
C1    O1    A    
C37   H28   S    
C4    N3    T    
C20   O13   S    
Cu3   Cu4   S    
Cu1   O1    S    
C18   C28   S    
C14   C19   D    
C41   H13   S    
C46   O7    A    
C21   O11   S    
Cu3   O20   S    
C39   H6    S    
C21   C29   S    
C42   H17   S    
C40   H9    S    
C6    C34   S    
C2    C31   S    
C43   O17   S    
C42   O16   S    
C38   H5    S    
C31   C32   D    
C5    C23   S    
C3    C35   S    
C8    C12   S    
C39   H7    S    
C11   C44   S    
C34   O4    A    
C45   O6    A    
C7    C26   T    
C37   H2    S    
Cu4   O21   S    
Cu2   O18   S    
C47   O23   A    
C18   O10   S    
Cu4   O8    S    
C15   O14   S    
Cu3   N3    S    
C32   H1    S    
C3    N4    T    
Cu2   N2    S    
C4    C33   S    
C43   H19   S    
C1    C7    S    
C31   H12   S    
C16   C26   S    
Cu1   O19   S    
C41   H14   S    
C34   O19   A    
C12   O2    A    
C17   C25   S    
C36   H26   S    
C13   C45   S    
Cu2   O12   S    
C5    C24   T    
C39   H8    S    
C46   O22   A    
C33   C35   D    
C48   N2    T    
C37   O10   S    
C17   O16   S    
C1    O24   A    
C16   O17   S    
C38   H4    S    
Cu3   O23   S    
Cu1   Cu2   S    
C10   C47   S    
C12   O12   A    
C2    N1    T    
C44   O5    A    
C9    C28   T    
