data_mof_unit_26917.cif
_audit_creation_date              2013-03-05T16:07:30-0500
_audit_creation_method            fapswitch 2.2
_symmetry_space_group_name_H-M    P1
_symmetry_Int_Tables_number       1
_space_group_crystal_system       triclinic
_cell_length_a                    8.503703
_cell_length_b                    15.178166
_cell_length_c                    18.874021
_cell_angle_alpha                 102.768193
_cell_angle_beta                  91.552562
_cell_angle_gamma                 98.364915
_cell_volume                      2346.1323181

loop_
_atom_site_label
_atom_site_type_symbol
_atom_site_description
_atom_site_fract_x
_atom_site_fract_y
_atom_site_fract_z
_atom_type_partial_charge
P1    P     P_3+3 0.039440 0.410950 0.333260 0.581044
O1    O     O_2   0.871970 0.437290 0.322980 -0.353969
O2    O     O_3   0.121420 0.444460 0.412460 -0.382867
O3    O     O_3   0.661430 0.607560 0.372520 -0.335901
O4    O     O_2   0.722300 0.514078 0.245789 -0.380771
O5    O     O_3   0.995950 0.291180 0.314396 -0.450015
O6    O     O_3   0.715811 0.679119 0.238725 -0.636927
C1    C     C_3   0.721229 0.819636 0.197664 -0.071227
H1    H     H_    0.850948 0.841260 0.210559 0.139073
P2    P     P_3+3 0.676740 0.714970 0.563520 0.507637
P3    P     P_3+3 0.143857 0.770483 0.407558 0.649095
O7    O     O_2   0.852280 0.726960 0.542370 -0.336595
O8    O     O_3   0.083990 0.657360 0.410240 -0.401868
O9    O     O_2   0.028299 0.823824 0.455618 -0.250897
O10   O     O_3   0.726140 0.770223 0.653881 -0.639640
O11   O     O_3   0.095564 0.774503 0.317054 -0.439479
C2    C     C_3   0.060075 0.683913 0.274617 0.541787
H2    H     H_    0.948656 0.649618 0.291084 0.146344
H3    H     H_    0.150180 0.641539 0.283350 0.028594
C3    C     C_3   0.048677 0.681676 0.193442 -0.748194
H4    H     H_    0.950673 0.627516 0.165694 0.230318
H5    H     H_    0.030880 0.748771 0.183593 0.296619
C4    C     C_3   0.098086 0.755078 0.664070 0.699383
H6    H     H_    0.980703 0.711474 0.650678 0.043401
C5    C     C_3   0.069017 0.841181 0.720473 -0.718054
H7    H     H_    0.989390 0.878275 0.693863 0.235226
H8    H     H_    0.005423 0.819819 0.766178 0.162345
Ba1   Ba    Ba6+2 0.853510 0.540900 0.466480 1.736699
C6    C     C_3   0.960889 0.259488 0.377666 0.239825
H9    H     H_    0.838267 0.269134 0.391435 0.079433
H10   H     H_    0.043460 0.294836 0.425138 0.099495
C7    C     C_3   0.976029 0.158020 0.364289 -0.023809
H11   H     H_    0.927067 0.129775 0.410052 0.111321
H12   H     H_    0.103820 0.150444 0.362701 0.107966
C8    C     C_3   0.611801 0.750414 0.700353 0.395247
H13   H     H_    0.490999 0.732870 0.673306 0.140023
C9    C     C_3   0.618284 0.836690 0.761523 -0.944308
H14   H     H_    0.745061 0.869073 0.777610 0.255980
H15   H     H_    0.560789 0.822964 0.811373 0.299588
H16   H     H_    0.556106 0.887874 0.741249 0.244117
P4    P     P_3+3 0.150270 0.589130 0.666750 0.545137
O12   O     O_2   0.317740 0.562750 0.677070 -0.278873
O13   O     O_3   0.068290 0.555610 0.587550 -0.373604
O14   O     O_3   0.528280 0.392520 0.627490 -0.373696
O15   O     O_3   0.207193 0.708877 0.691749 -0.609313
P5    P     P_3+3 0.059808 0.224405 0.583620 0.507092
O16   O     O_3   0.609300 0.386850 0.459730 -0.323305
O17   O     O_3   0.105720 0.342720 0.589770 -0.371211
O18   O     O_2   0.159276 0.176671 0.523795 -0.389756
O19   O     O_3   0.118843 0.188489 0.661679 -0.546650
Ba2   Ba    Ba6+2 0.336320 0.459170 0.533530 1.683327
P6    P     P_3+3 0.622662 0.589215 0.277177 0.503053
C10   C     C_3   0.649417 0.761744 0.250907 0.771609
H17   H     H_    0.668663 0.883980 0.206029 0.191962
O20   O     O_3   0.580410 0.613230 0.540280 -0.356330
C11   C     C_3   0.471400 0.225024 0.287584 0.782255
C12   C     C_3   0.392698 0.127939 0.243401 -0.156336
H18   H     H_    0.270489 0.109668 0.260966 0.144881
H19   H     H_    0.461384 0.075508 0.255644 0.200552
P7    P     P_3+3 0.520244 0.270453 0.441566 0.494571
O21   O     O_2   0.337420 0.273080 0.457680 -0.381376
O22   O     O_3   0.545373 0.210650 0.351639 -0.658233
H20   H     H_    0.158630 0.663764 0.168052 0.244237
C13   C     C_3   0.130823 0.255976 0.727171 0.719021
H21   H     H_    0.220683 0.315065 0.723623 0.102638
C14   C     C_3   0.182777 0.212469 0.788354 -0.705364
H22   H     H_    0.294564 0.184497 0.776672 0.259479
H23   H     H_    0.200040 0.263754 0.841256 0.261247
H24   H     H_    0.090017 0.154555 0.793129 0.243026
P8    P     P_3+3 0.555610 0.410547 0.721702 0.485403
C15   C     C_3   0.565393 0.234093 0.704197 0.311706
H25   H     H_    0.671725 0.258944 0.678002 0.102996
O23   O     O_2   0.422278 0.465617 0.750466 -0.386956
O24   O     O_3   0.497350 0.306017 0.746757 -0.568809
H26   H     H_    0.714151 0.138631 0.731010 0.192938
C16   C     C_3   0.614126 0.172963 0.753653 -0.703389
H27   H     H_    0.515450 0.119395 0.759960 0.252361
H28   H     H_    0.651210 0.214414 0.809262 0.292387
C17   C     C_R   0.992054 0.441657 0.044994 0.018626
C18   C     C_R   0.900740 0.395583 0.091504 -0.161384
C19   C     C_R   0.770432 0.422298 0.952160 -0.146734
C20   C     C_R   0.931414 0.449321 0.975021 0.069394
C21   C     C_R   0.706920 0.438972 0.888142 -0.043781
C22   C     C_R   0.807452 0.472470 0.837388 -0.046177
C23   C     C_R   0.970231 0.504320 0.860145 0.069281
C24   C     C_R   0.029942 0.494514 0.930135 0.081787
C25   C     C_R   0.754718 0.472624 0.764648 0.263563
C26   C     C_R   0.864266 0.506258 0.717770 -0.286240
C27   C     C_R   0.022781 0.545755 0.740133 0.150211
C28   C     C_R   0.072331 0.550038 0.815267 -0.195720
C29   C     C_R   0.150415 0.481483 0.069891 0.054207
C30   C     C_R   0.208287 0.483050 0.142198 0.006327
C31   C     C_R   0.107192 0.446005 0.190397 -0.099700
C32   C     C_R   0.957718 0.397436 0.162093 0.036397
H29   H     H_    0.826473 0.498017 0.661003 0.171841
H30   H     H_    0.882007 0.360623 0.194241 0.222107
C33   C     C_R   0.215798 0.600959 0.850377 0.442835
C34   C     C_R   0.270144 0.592078 0.918451 -0.289365
C35   C     C_R   0.186711 0.533624 0.956389 -0.009515
C36   C     C_R   0.250401 0.522826 0.023913 0.096862
C37   C     C_R   0.413010 0.551025 0.046603 -0.110693
C38   C     C_R   0.367181 0.522852 0.166407 -0.024738
C39   C     C_R   0.470205 0.549285 0.115730 -0.093932
C40   C     C_R   0.417498 0.536291 0.240576 0.263774
C41   C     C_R   0.310309 0.509058 0.289143 -0.333469
C42   C     C_R   0.159213 0.459407 0.265076 0.247655
H31   H     H_    0.596021 0.570157 0.128858 0.194763
H32   H     H_    0.347832 0.523824 0.346316 0.173110
H33   H     H_    0.686465 0.396927 0.987603 0.154015
H34   H     H_    0.783811 0.356704 0.075176 0.168778
H35   H     H_    0.376659 0.637382 0.943396 0.199687
H36   H     H_    0.500031 0.573696 0.011276 0.135258
C43   C     C_R   0.354503 0.817913 0.444698 0.287395
H37   H     H_    0.392874 0.685284 0.459540 0.154127
C44   C     C_R   0.584316 0.788719 0.511656 0.272901
C45   C     C_R   0.757956 0.233425 0.529332 -0.530302
C46   C     C_R   0.849583 0.177206 0.554966 0.249774
C47   C     C_R   0.786357 0.085325 0.553796 -0.246318
C48   C     C_R   0.636959 0.043737 0.514079 0.049905
C49   C     C_R   0.550965 0.103259 0.484591 -0.015484
C50   C     C_R   0.570773 0.946509 0.499481 0.117462
C51   C     C_R   0.421058 0.913113 0.457349 -0.081965
C52   C     C_R   0.347058 0.975749 0.427484 0.357153
C53   C     C_R   0.409214 0.067148 0.443048 -0.141223
C54   C     C_R   0.649963 0.880130 0.522396 -0.207805
C55   C     C_R   0.441524 0.757198 0.469495 -0.280161
C56   C     C_R   0.609245 0.198417 0.494671 0.182448
H38   H     H_    0.766436 0.893147 0.547443 0.163062
H39   H     H_    0.808032 0.303831 0.531510 0.172740
H40   H     H_    0.344490 0.108958 0.417650 0.158117
N1    N     N_R   0.693780 0.816088 0.324758 0.212557
O25   O     O_R   0.651931 0.896687 0.345099 -0.391539
O26   O     O_R   0.785046 0.788174 0.368635 -0.328946
C57   C     C_2   0.218310 0.906129 0.751390 0.763307
H41   H     H_    0.301498 0.888484 0.788608 0.071528
O27   O     O_2   0.244958 0.980853 0.736694 -0.536425
N2    N     N_R   0.892020 0.106294 0.296086 0.309059
O28   O     O_R   0.963439 0.100959 0.234931 -0.258446
O29   O     O_R   0.755027 0.055833 0.296952 -0.333494
C58   C     C_2   0.658505 0.672273 0.725957 0.633442
H42   H     H_    0.730553 0.681146 0.776017 -0.020951
O30   O     O_2   0.625326 0.597295 0.686144 -0.577962
N3    N     N_R   0.476026 0.744414 0.240726 0.186306
O31   O     O_R   0.402640 0.769323 0.188912 -0.366819
O32   O     O_R   0.397502 0.730046 0.295797 -0.506557
N4    N     N_R   0.352363 0.286035 0.300942 0.183921
O33   O     O_R   0.249644 0.280701 0.247282 -0.377587
O34   O     O_R   0.391012 0.365249 0.345752 -0.390056
N5    N     N_R   0.596704 0.262706 0.245261 0.232620
O35   O     O_R   0.578041 0.330894 0.215642 -0.374744
O36   O     O_R   0.716859 0.219764 0.228636 -0.320308
N6    N     N_R   0.387299 0.120211 0.164330 0.291406
O37   O     O_R   0.267039 0.141730 0.131224 -0.251186
O38   O     O_R   0.492518 0.080810 0.125483 -0.260878
N7    N     N_R   0.692186 0.771011 0.121149 0.266377
O39   O     O_R   0.604807 0.801943 0.077358 -0.283473
O40   O     O_R   0.772011 0.705945 0.093928 -0.419941
N8    N     N_R   0.979656 0.288391 0.743398 0.184610
O41   O     O_R   0.926026 0.336357 0.702205 -0.507423
O42   O     O_R   0.921861 0.291215 0.806870 -0.459618
C59   C     C_2   0.448467 0.181781 0.643134 0.504974
H43   H     H_    0.407284 0.218199 0.604877 0.082854
O43   O     O_2   0.400156 0.100075 0.634975 -0.501998
C60   C     C_2   0.534235 0.438812 0.886257 0.585104
H44   H     H_    0.489150 0.496706 0.874044 0.032826
O44   O     O_2   0.443404 0.377623 0.902934 -0.576190
N9    N     N_R   0.299211 0.674730 0.825587 0.244774
O45   O     O_R   0.240730 0.750844 0.838171 -0.428655
O46   O     O_R   0.452088 0.679448 0.827407 -0.475818
N10   N     N_R   0.220881 0.948761 0.372058 0.240495
O47   O     O_R   0.081373 0.970912 0.387412 -0.338453
O48   O     O_R   0.258467 0.934519 0.304406 -0.330302
C61   C     C_2   0.872495 0.040350 0.600927 0.648379
H45   H     H_    0.817147 0.022611 0.648084 -0.043902
O49   O     O_2   0.001566 0.017694 0.585017 -0.442759
N11   N     N_R   0.159467 0.777182 0.598150 0.222371
O50   O     O_R   0.226124 0.859641 0.596258 -0.393788
O51   O     O_R   0.185719 0.709122 0.547548 -0.404261

loop_
_geom_bond_atom_site_label_1
_geom_bond_atom_site_label_2
_geom_bond_distance
_ccdc_geom_bond_type
P4    C27   1.950340 S    
C21   C60   1.467567 S    
Ba1   O16   2.870059 S    
C31   C32   1.400349 A    
C4    O15   1.396589 S    
N7    O40   1.299896 A    
O19   C13   1.410918 S    
P4    O12   1.552969 D    
C41   C42   1.400185 A    
C14   H23   1.113405 S    
C8    H13   1.103944 S    
Ba2   O21   2.872020 S    
C22   C25   1.433277 A    
C25   C26   1.420281 A    
C59   H43   1.081017 S    
C49   C56   1.425847 A    
C52   C53   1.374147 A    
N9    O46   1.290647 A    
C23   C24   1.448291 A    
C11   C12   1.566644 S    
C37   H36   1.079177 S    
N2    O29   1.300365 A    
P5    O18   1.543953 D    
C6    H9    1.103884 S    
C44   C55   1.395308 A    
O7    Ba1   2.872009 S    
C60   H44   1.074714 S    
C8    C9    1.535603 S    
C16   H28   1.108746 S    
O6    P6    1.780625 S    
C6    C7    1.529654 S    
P2    O10   1.736346 S    
N5    O36   1.299244 A    
C15   C16   1.541962 S    
H37   C55   1.082419 S    
Ba1   Ba2   4.678797 S    
C12   H19   1.112229 S    
C14   H24   1.113624 S    
N10   O47   1.302308 A    
N3    O31   1.299132 A    
C12   N6    1.469840 S    
C33   C34   1.394648 A    
C2    C3    1.525077 S    
C45   C46   1.387370 A    
P7    O22   1.773541 S    
P1    O1    1.552597 D    
C1    N7    1.465527 S    
C47   C48   1.442322 A    
C36   C37   1.411862 A    
C15   O24   1.411794 S    
O3    Ba1   2.820211 S    
O16   P7    1.772341 S    
O17   Ba2   2.833683 S    
P6    C40   1.856867 S    
C45   H39   1.082691 S    
C21   C22   1.428359 A    
C47   C61   1.473914 S    
C1    H1    1.108405 S    
C45   C56   1.384032 A    
P8    O24   1.761224 S    
C54   H38   1.058263 S    
C4    H6    1.103842 S    
O4    P6    1.542447 D    
O14   P8    1.742066 S    
C10   N1    1.462294 S    
C29   C36   1.412519 A    
C28   C33   1.407249 A    
C17   C29   1.415278 A    
C30   C38   1.416503 A    
O12   Ba2   2.837093 S    
N11   O51   1.292939 A    
C14   H22   1.104508 S    
C26   H29   1.085028 S    
C37   C39   1.387120 A    
N8    O42   1.301471 A    
P4    O13   1.575918 S    
P8    C25   1.880281 S    
O10   C8    1.372152 S    
C40   C41   1.394655 A    
C59   O43   1.222435 D    
Ba1   O20   2.963101 S    
C19   C20   1.398146 A    
N4    O34   1.299757 A    
C16   H27   1.108616 S    
C48   C50   1.463110 A    
C41   H32   1.081717 S    
P5    O17   1.758475 S    
C43   C51   1.437866 A    
P1    O5    1.754824 S    
C58   H42   1.083782 S    
C1    H17   1.114108 S    
N9    O45   1.300248 A    
O2    Ba2   2.835576 S    
O11   C2    1.415123 S    
O16   Ba2   2.962175 S    
C4    N11   1.449733 S    
C5    H7    1.115891 S    
C61   H45   1.085330 S    
P5    C46   1.845332 S    
P7    O21   1.596691 D    
P1    O2    1.575907 S    
C7    H12   1.109784 S    
C38   C40   1.414311 A    
H26   C16   1.108103 S    
C50   C54   1.424721 A    
C9    H14   1.121663 S    
P2    O20   1.600357 S    
C31   C42   1.427243 A    
P1    Ba1   3.412195 S    
P3    O11   1.762256 S    
C35   C36   1.423085 A    
C3    H5    1.105234 S    
C48   C49   1.432887 A    
C3    H4    1.109645 S    
P8    O23   1.545141 D    
C2    H2    1.099663 S    
C53   H40   1.075750 S    
O8    Ba1   2.833149 S    
P3    O9    1.548895 D    
C22   C23   1.419703 A    
C32   H30   1.077602 S    
C24   C35   1.406798 A    
C50   C51   1.445456 A    
C61   O49   1.222765 D    
P2    O7    1.551161 D    
O14   Ba2   2.819496 S    
N11   O50   1.305170 A    
C19   H33   1.079532 S    
N8    O41   1.292327 A    
C11   O22   1.421347 S    
C5    H8    1.113383 S    
O6    C10   1.424776 S    
C13   N8    1.458446 S    
N1    O25   1.302718 A    
C5    C57   1.505152 S    
C29   C30   1.432158 A    
N4    O33   1.300196 A    
N6    O38   1.301246 A    
P2    Ba1   3.429349 S    
N3    O32   1.291982 A    
P5    O19   1.764742 S    
O2    Ba1   2.967993 S    
C34   H35   1.080502 S    
C15   C59   1.500362 S    
P7    C56   1.859282 S    
C58   O30   1.206840 D    
N1    O26   1.297526 A    
C1    C10   1.556367 S    
C19   C21   1.398291 A    
C17   C20   1.439457 A    
C57   O27   1.217510 D    
C23   C28   1.441234 A    
C57   H41   1.084867 S    
C43   C55   1.409315 A    
C9    H16   1.126716 S    
N2    O28   1.310978 A    
P1    C42   1.872406 S    
Ba1   O13   2.834949 S    
C44   C54   1.386354 A    
C7    H11   1.111038 S    
C3    H20   1.103834 S    
C60   O44   1.221431 D    
C11   N5    1.473561 S    
C15   H25   1.100783 S    
C6    H10   1.107910 S    
C33   N9    1.412183 S    
N5    O35   1.306746 A    
C13   H21   1.105740 S    
C20   C24   1.420681 A    
P3    O8    1.730700 S    
O13   Ba2   2.968859 S    
C12   H18   1.114572 S    
N10   O48   1.303644 A    
C30   C31   1.417957 A    
C2    H3    1.100601 S    
Ba2   O20   2.869548 S    
O3    P6    1.773169 S    
C4    C5    1.547775 S    
C11   N4    1.459156 S    
C38   C39   1.398598 A    
P3    C43   1.884678 S    
C52   N10   1.426634 S    
O1    Ba1   2.836459 S    
C17   C18   1.418754 A    
C8    C58   1.475787 S    
C7    N2    1.457412 S    
O5    C6    1.406332 S    
C26   C27   1.405975 A    
C9    H15   1.117857 S    
C34   C35   1.388677 A    
C18   H34   1.078972 S    
N7    O39   1.302078 A    
C51   C52   1.417490 A    
P4    O15   1.764364 S    
C39   H31   1.076466 S    
N6    O37   1.302195 A    
C10   N3    1.459326 S    
C27   C28   1.453145 A    
C46   C47   1.414926 A    
C18   C32   1.398239 A    
P4    Ba2   3.412847 S    
P2    C44   1.878166 S    
C49   C53   1.390971 A    
C13   C14   1.535923 S    
