data_mof_unit_7133.cif
_audit_creation_date              2012-12-11T14:44:19-0500
_audit_creation_method            fapswitch 2.2
_symmetry_space_group_name_H-M    P1
_symmetry_Int_Tables_number       1
_space_group_crystal_system       triclinic
_cell_length_a                    18.891622
_cell_length_b                    11.17931
_cell_length_c                    18.817434
_cell_angle_alpha                 89.811022
_cell_angle_beta                  90.373088
_cell_angle_gamma                 90.119101
_cell_volume                      3974.03931494

loop_
_atom_site_label
_atom_site_type_symbol
_atom_type_description
_atom_site_fract_x
_atom_site_fract_y
_atom_site_fract_z
_atom_type_partial_charge
C1    C     C_R   0.730984 0.376284 0.146685 0.540139
C2    C     C_R   0.268885 0.382114 0.851800 0.557537
C3    C     C_R   0.230983 0.876282 0.146684 0.540138
C4    C     C_R   0.768885 0.882115 0.851800 0.557535
C5    C     C_R   0.543405 0.348350 0.912625 -0.095843
C6    C     C_R   0.538163 0.387034 0.057773 -0.063836
C7    C     C_R   0.043405 0.848351 0.912625 -0.095842
C8    C     C_R   0.038163 0.887034 0.057773 -0.063836
C9    C     C_R   0.051136 0.962025 0.938480 -0.080854
C10   C     C_R   0.050606 0.981264 0.011234 -0.088564
C11   C     C_R   0.551135 0.462025 0.938479 -0.080853
C12   C     C_R   0.550605 0.481264 0.011234 -0.088567
C13   C     C_R   0.676304 0.958326 0.020904 0.072495
C14   C     C_R   0.298763 0.858099 0.962037 0.039628
C15   C     C_R   0.176304 0.458327 0.020904 0.072496
C16   C     C_R   0.798770 0.358110 0.962040 0.039626
C17   C     C_R   0.684400 0.949758 0.947167 -0.106123
C18   C     C_R   0.295662 0.841231 0.035226 -0.122631
C19   C     C_R   0.184400 0.449759 0.947168 -0.106121
C20   C     C_R   0.795671 0.341245 0.035230 -0.122636
C21   C     C_R   0.752415 0.937618 0.920152 0.008784
C22   C     C_R   0.253924 0.915510 0.077618 -0.019756
C23   C     C_R   0.252416 0.437615 0.920153 0.008791
C24   C     C_R   0.753926 0.415516 0.077619 -0.019758
C25   C     C_R   0.810559 0.968382 0.962852 -0.076424
C26   C     C_R   0.221608 0.013968 0.048672 -0.113868
C27   C     C_R   0.310560 0.468372 0.962854 -0.076421
C28   C     C_R   0.721605 0.513969 0.048672 -0.113864
C29   C     C_R   0.802549 0.003546 0.031688 0.063987
C30   C     C_R   0.221972 0.029637 0.976543 0.057321
C31   C     C_R   0.302550 0.503542 0.031690 0.063984
C32   C     C_R   0.721970 0.529637 0.976543 0.057322
C33   C     C_R   0.735359 0.990667 0.064017 0.026383
C34   C     C_R   0.257820 0.949975 0.931253 0.032556
C35   C     C_R   0.235359 0.490668 0.064018 0.026380
C36   C     C_R   0.757822 0.449978 0.931255 0.032554
C37   C     C_R   0.504763 0.060726 0.464564 -0.156240
C38   C     C_R   0.496499 0.060977 0.536131 -0.156138
C39   C     C_R   0.004762 0.560726 0.464563 -0.156240
C40   C     C_R   0.996498 0.560977 0.536131 -0.156138
C41   C     C_R   0.493369 0.167830 0.573802 -0.000071
C42   C     C_R   0.506724 0.167248 0.426129 0.000526
C43   C     C_R   0.993368 0.667829 0.573802 -0.000071
C44   C     C_R   0.006724 0.667248 0.426129 0.000526
C45   C     C_R   0.531724 0.156866 0.146943 0.547446
C46   C     C_R   0.464302 0.153047 0.854796 0.533109
C47   C     C_R   0.031724 0.656866 0.146943 0.547445
C48   C     C_R   0.964303 0.653048 0.854796 0.533110
C49   C     C_R   0.499052 0.278378 0.537043 0.099854
C50   C     C_R   0.500092 0.278005 0.462091 0.101274
C51   C     C_R   0.999051 0.778378 0.537043 0.099853
C52   C     C_R   0.000092 0.778005 0.462091 0.101274
C53   C     C_R   0.782199 0.052609 0.479078 -0.085944
C54   C     C_R   0.217411 0.051548 0.520680 -0.086044
C55   C     C_R   0.282199 0.552611 0.479078 -0.085946
C56   C     C_R   0.717411 0.551548 0.520680 -0.086045
C57   C     C_R   0.788210 0.030308 0.551251 0.248638
C58   C     C_R   0.211547 0.029488 0.448527 0.248700
C59   C     C_R   0.288211 0.530308 0.551250 0.248638
C60   C     C_R   0.711547 0.529488 0.448527 0.248700
C61   C     C_R   0.743545 0.942935 0.583217 0.012359
C62   C     C_R   0.256352 0.942647 0.416785 0.011517
C63   C     C_R   0.243545 0.442935 0.583216 0.012359
C64   C     C_R   0.756352 0.442646 0.416785 0.011517
C65   C     C_R   0.682883 0.904150 0.545298 0.023733
C66   C     C_R   0.317100 0.904677 0.454820 0.023301
C67   C     C_R   0.182882 0.404151 0.545298 0.023733
C68   C     C_R   0.817100 0.404676 0.454821 0.023302
C69   C     C_R   0.676006 0.933432 0.473213 -0.144283
C70   C     C_R   0.324008 0.934172 0.526806 -0.143896
C71   C     C_R   0.176005 0.433435 0.473214 -0.144283
C72   C     C_R   0.824008 0.434170 0.526807 -0.143894
C73   C     C_R   0.728711 0.000377 0.438640 -0.061864
C74   C     C_R   0.271084 0.000139 0.561279 -0.060909
C75   C     C_R   0.228710 0.500380 0.438640 -0.061863
C76   C     C_R   0.771083 0.500138 0.561280 -0.060909
C77   C     C_R   0.728221 0.017539 0.139753 0.577247
C78   C     C_R   0.260925 0.977671 0.855562 0.581127
C79   C     C_R   0.228221 0.517539 0.139754 0.577248
C80   C     C_R   0.760926 0.477672 0.855563 0.581126
C81   C     C_R   0.731463 0.381865 0.351288 0.548166
C82   C     C_R   0.268536 0.382058 0.648724 0.545937
C83   C     C_R   0.231463 0.881865 0.351288 0.548167
C84   C     C_R   0.768536 0.882058 0.648725 0.545935
C85   C     C_R   0.532763 0.157430 0.353550 0.554415
C86   C     C_R   0.467223 0.157739 0.646406 0.550905
C87   C     C_R   0.032763 0.657430 0.353549 0.554414
C88   C     C_R   0.967222 0.657739 0.646406 0.550905
C89   C     C_R   0.726927 0.022332 0.361467 0.559761
C90   C     C_R   0.272990 0.022195 0.638437 0.558206
C91   C     C_R   0.226927 0.522334 0.361467 0.559759
C92   C     C_R   0.772990 0.522195 0.638436 0.558203
C93   C     C_R   0.485152 0.156325 0.929037 0.008713
C94   C     C_R   0.499600 0.174349 0.076392 0.011510
C95   C     C_R   0.985152 0.656325 0.929037 0.008714
C96   C     C_R   0.999601 0.674350 0.076392 0.011511
C97   C     C_R   0.518133 0.257173 0.957435 0.012431
C98   C     C_R   0.519865 0.272355 0.031861 0.028391
C99   C     C_R   0.018133 0.757173 0.957435 0.012433
C100  C     C_R   0.019865 0.772355 0.031861 0.028391
C101  C     C_R   0.461259 0.080044 0.047144 -0.123567
C102  C     C_R   0.454645 0.070575 0.974244 -0.113668
C103  C     C_R   0.961259 0.580045 0.047144 -0.123567
C104  C     C_R   0.954645 0.570577 0.974244 -0.113667
Cr1   Cr    Cr6+3 0.772000 0.169640 0.250110 1.080563
Cr2   Cr    Cr6+3 0.228000 0.169640 0.749890 1.080755
Cr3   Cr    Cr6+3 0.272000 0.669640 0.250110 1.080563
Cr4   Cr    Cr6+3 0.728000 0.669640 0.749890 1.080755
Cr5   Cr    Cr6+3 0.614960 0.323350 0.249260 1.040895
Cr6   Cr    Cr6+3 0.385040 0.323350 0.750740 1.052317
Cr7   Cr    Cr6+3 0.114960 0.823350 0.249260 1.040894
Cr8   Cr    Cr6+3 0.885040 0.823350 0.750740 1.052317
Cr9   Cr    Cr6+3 0.616670 0.010620 0.250840 1.026630
Cr10  Cr    Cr6+3 0.383330 0.010620 0.749160 1.023306
Cr11  Cr    Cr6+3 0.116670 0.510620 0.250840 1.026628
Cr12  Cr    Cr6+3 0.883330 0.510620 0.749160 1.023306
H1    H     H_    0.440709 0.008884 0.080453 0.166765
H2    H     H_    0.424927 0.995819 0.953153 0.181997
H3    H     H_    0.940709 0.508885 0.080453 0.166762
H4    H     H_    0.924927 0.495822 0.953153 0.181999
H5    H     H_    0.821024 0.109013 0.454297 0.201448
H6    H     H_    0.178448 0.107381 0.545262 0.202151
H7    H     H_    0.321024 0.609015 0.454297 0.201447
H8    H     H_    0.678448 0.607381 0.545262 0.202151
H9    H     H_    0.630870 0.899771 0.443806 0.162317
H10   H     H_    0.369399 0.901502 0.556222 0.162616
H11   H     H_    0.130870 0.399774 0.443807 0.162316
H12   H     H_    0.869399 0.401500 0.556222 0.162614
H13   H     H_    0.551235 0.335964 0.856270 0.140570
H14   H     H_    0.533050 0.412987 0.112456 0.184080
H15   H     H_    0.051235 0.835965 0.856270 0.140570
H16   H     H_    0.033050 0.912987 0.112456 0.184080
H17   H     H_    0.055899 0.034504 0.900899 0.178719
H18   H     H_    0.056346 0.070601 0.032301 0.189757
H19   H     H_    0.555897 0.534503 0.900898 0.178718
H20   H     H_    0.556345 0.570601 0.032301 0.189756
H21   H     H_    0.639135 0.928746 0.913800 0.171135
H22   H     H_    0.322559 0.766792 0.058585 0.193715
H23   H     H_    0.139136 0.428748 0.913800 0.171135
H24   H     H_    0.822576 0.266815 0.058590 0.193720
H25   H     H_    0.864290 0.963388 0.943311 0.193096
H26   H     H_    0.191328 0.073928 0.081959 0.166936
H27   H     H_    0.364291 0.463374 0.943314 0.193094
H28   H     H_    0.691321 0.573925 0.081958 0.166936
H29   H     H_    0.511835 0.974748 0.439879 0.187414
H30   H     H_    0.490192 0.975016 0.561411 0.188010
H31   H     H_    0.011834 0.474748 0.439878 0.187414
H32   H     H_    0.990191 0.475016 0.561411 0.188009
O1    O     O_R   0.787540 0.042690 0.170470 -0.469267
O2    O     O_R   0.212460 0.042690 0.829530 -0.485679
O3    O     O_R   0.287540 0.542690 0.170470 -0.469270
O4    O     O_R   0.712460 0.542690 0.829530 -0.485677
O5    O     O_R   0.556540 0.252920 0.323970 -0.469501
O6    O     O_R   0.443460 0.252920 0.676030 -0.473876
O7    O     O_R   0.056540 0.752920 0.323970 -0.469501
O8    O     O_R   0.943460 0.752920 0.676030 -0.473876
O9    O     O_R   0.545870 0.051100 0.330840 -0.529027
O10   O     O_R   0.454130 0.051100 0.669160 -0.528723
O11   O     O_R   0.045870 0.551100 0.330840 -0.529028
O12   O     O_R   0.954130 0.551100 0.669160 -0.528724
O13   O     O_R   0.681340 0.959300 0.325510 -0.528088
O14   O     O_R   0.318660 0.959300 0.674490 -0.530416
O15   O     O_R   0.181340 0.459300 0.325510 -0.528087
O16   O     O_R   0.818660 0.459300 0.674490 -0.530417
O17   O     O_3   0.667880 0.167870 0.250070 -0.310096
O18   O     O_3   0.332120 0.167870 0.749930 -0.291411
O19   O     O_3   0.167880 0.667870 0.250070 -0.310098
O20   O     O_3   0.832120 0.667870 0.749930 -0.291410
O21   O     O_R   0.765660 0.292160 0.175050 -0.509141
O22   O     O_R   0.234340 0.292160 0.824950 -0.466936
O23   O     O_R   0.265660 0.792160 0.175050 -0.509142
O24   O     O_R   0.734340 0.792160 0.824950 -0.466935
O25   O     O_R   0.670190 0.408980 0.168550 -0.535719
O26   O     O_R   0.329810 0.408980 0.831450 -0.524743
O27   O     O_R   0.170190 0.908980 0.168550 -0.535718
O28   O     O_R   0.829810 0.908980 0.831450 -0.524746
O29   O     O_R   0.556580 0.251450 0.175160 -0.522068
O30   O     O_R   0.443420 0.251450 0.824840 -0.508515
O31   O     O_R   0.056580 0.751450 0.175160 -0.522069
O32   O     O_R   0.943420 0.751450 0.824840 -0.508514
O33   O     O_R   0.545920 0.049510 0.170320 -0.480105
O34   O     O_R   0.454080 0.049510 0.829680 -0.497736
O35   O     O_R   0.045920 0.549510 0.170320 -0.480105
O36   O     O_R   0.954080 0.549510 0.829680 -0.497733
O37   O     O_R   0.681390 0.957840 0.176710 -0.471921
O38   O     O_R   0.318610 0.957840 0.823290 -0.483286
O39   O     O_R   0.181390 0.457840 0.176710 -0.471921
O40   O     O_R   0.818610 0.457840 0.823290 -0.483287
O41   O     O_R   0.787500 0.044280 0.330990 -0.470345
O42   O     O_R   0.212500 0.044280 0.669010 -0.480569
O43   O     O_R   0.287500 0.544280 0.330990 -0.470343
O44   O     O_R   0.712500 0.544280 0.669010 -0.480567
O45   O     O_R   0.765610 0.293630 0.323860 -0.494100
O46   O     O_R   0.234390 0.293630 0.676140 -0.496337
O47   O     O_R   0.265610 0.793630 0.323860 -0.494100
O48   O     O_R   0.734390 0.793630 0.676140 -0.496337
O49   O     O_R   0.670140 0.410570 0.329080 -0.465364
O50   O     O_R   0.329860 0.410570 0.670920 -0.465745
O51   O     O_R   0.170140 0.910570 0.329080 -0.465364
O52   O     O_R   0.829860 0.910570 0.670920 -0.465746
O53   O     O_3   0.845089 0.081980 0.586352 -0.506152
C105  C     C_3   0.820211 0.163583 0.637576 0.014345
H33   H     H_    0.779931 0.123354 0.673419 0.127733
H34   H     H_    0.795955 0.242278 0.611016 0.143773
C106  C     C_3   0.882482 0.203876 0.683380 -0.285778
H35   H     H_    0.920978 0.254815 0.650694 0.175820
H36   H     H_    0.863592 0.261304 0.727251 0.151482
H37   H     H_    0.909433 0.124876 0.707029 0.183786
O54   O     O_3   0.154863 0.081263 0.413131 -0.506502
C107  C     C_3   0.180089 0.163290 0.361871 0.015926
H38   H     H_    0.220786 0.123625 0.326544 0.126722
H39   H     H_    0.203967 0.242192 0.388435 0.145729
C108  C     C_3   0.118218 0.203035 0.315287 -0.288840
H40   H     H_    0.079638 0.254404 0.347300 0.177075
H41   H     H_    0.137527 0.259876 0.270997 0.141293
H42   H     H_    0.091196 0.123734 0.292158 0.179563
O55   O     O_3   0.345091 0.581977 0.586352 -0.506151
C109  C     C_3   0.320214 0.663582 0.637576 0.014346
H43   H     H_    0.279931 0.623358 0.673416 0.127733
H44   H     H_    0.295963 0.742280 0.611015 0.143776
C110  C     C_3   0.382485 0.703866 0.683382 -0.285789
H45   H     H_    0.420990 0.754785 0.650697 0.175831
H46   H     H_    0.363598 0.761311 0.727246 0.151485
H47   H     H_    0.409424 0.624865 0.707039 0.183780
O56   O     O_3   0.654864 0.581264 0.413131 -0.506502
C111  C     C_3   0.680091 0.663290 0.361870 0.015925
H48   H     H_    0.720787 0.623624 0.326544 0.126722
H49   H     H_    0.703969 0.742192 0.388434 0.145729
C112  C     C_3   0.618219 0.703035 0.315286 -0.288840
H50   H     H_    0.579640 0.754404 0.347299 0.177075
H51   H     H_    0.637529 0.759875 0.270996 0.141293
H52   H     H_    0.591198 0.623734 0.292157 0.179563
I1    I     I_    0.598659 0.804981 0.591973 -0.358882
I2    I     I_    0.401566 0.807184 0.408230 -0.352326
I3    I     I_    0.098659 0.304982 0.591973 -0.358878
I4    I     I_    0.901566 0.307182 0.408230 -0.352327
I5    I     I_    0.582864 0.875523 0.060453 -0.332948
I6    I     I_    0.365634 0.741605 0.903408 -0.389448
I7    I     I_    0.082864 0.375524 0.060452 -0.332947
I8    I     I_    0.865649 0.241622 0.903414 -0.389443
I9    I     I_    0.900748 0.062317 0.078173 -0.373790
I10   I     I_    0.164672 0.176992 0.946332 -0.383988
I11   I     I_    0.400749 0.562318 0.078173 -0.373788
I12   I     I_    0.664670 0.676991 0.946330 -0.383989
I13   I     I_    0.514520 0.444184 0.592359 -0.195267
I14   I     I_    0.483334 0.442874 0.405579 -0.181376
I15   I     I_    0.014520 0.944184 0.592359 -0.195266
I16   I     I_    0.983334 0.942874 0.405578 -0.181379

loop_
_geom_bond_atom_site_label_1
_geom_bond_atom_site_label_2
_ccdc_geom_bond_type
C58   C62   A    
C71   C75   A    
C62   C83   S    
C69   H9    S    
C101  C102  A    
C56   C76   A    
C48   C95   S    
C55   C59   A    
Cr6   O50   S    
C77   O37   A    
O53   C105  S    
C14   C18   A    
Cr5   O49   S    
C6    H14   S    
C91   O15   A    
Cr3   O47   S    
C97   C98   A    
C45   O33   A    
Cr2   O46   S    
Cr3   O23   S    
C106  H35   S    
C84   O52   A    
C15   C19   A    
C41   C86   S    
Cr12  O40   S    
C26   H26   S    
C67   I3    S    
C37   C38   A    
C79   O39   A    
C66   I2    S    
Cr7   O27   S    
C43   C88   S    
Cr2   O18   S    
C65   I1    S    
C17   H21   S    
C4    C21   S    
Cr12  O12   S    
C110  H47   S    
C64   C68   A    
C107  H38   S    
C81   O49   A    
Cr5   O25   S    
Cr10  O14   S    
Cr6   O30   S    
C95   C99   A    
Cr8   O20   S    
C15   I7    S    
C65   C69   A    
C80   O4    A    
C60   O56   S    
C41   C49   A    
C37   C42   A    
C18   H22   S    
C46   O30   A    
C38   H30   S    
C47   O31   A    
C68   I4    S    
Cr7   O51   S    
C54   C74   A    
C8    C100  A    
C76   C92   S    
C40   C43   A    
Cr9   O33   S    
C20   C24   A    
C29   C33   A    
Cr1   O17   S    
C37   H29   S    
C89   O41   A    
C105  C106  S    
C8    H16   S    
C27   H27   S    
C47   C96   S    
C69   C73   A    
C78   O38   A    
C23   C27   A    
Cr4   O48   S    
C44   C87   S    
Cr5   O5    S    
C9    C10   A    
C7    H15   S    
C102  H2    S    
C72   C76   A    
Cr8   O32   S    
C55   C75   A    
C70   H10   S    
Cr6   O26   S    
C54   H6    S    
Cr7   O7    S    
Cr9   O37   S    
Cr4   O4    S    
C32   I12   S    
Cr7   O31   S    
Cr2   O22   S    
C71   H11   S    
Cr5   O17   S    
C85   O9    A    
Cr10  O10   S    
C45   C94   S    
C52   I16   S    
C89   O13   A    
C103  C104  A    
Cr10  O18   S    
C55   H7    S    
C106  H36   S    
C25   C29   A    
C30   I10   S    
Cr3   O19   S    
C82   O46   A    
C105  H33   S    
C30   C34   A    
C63   C82   S    
C27   C31   A    
C51   C52   A    
C6    C98   A    
C24   C28   A    
C28   C32   A    
C94   C101  A    
C38   C41   A    
O54   C107  S    
C36   C80   S    
C77   O1    A    
C39   C40   A    
C48   O36   A    
C62   C66   A    
C13   I5    S    
C72   H12   S    
Cr2   O2    S    
O55   C109  S    
C108  H40   S    
Cr9   O13   S    
C17   C21   A    
C56   C60   A    
Cr11  O11   S    
C68   C72   A    
C53   H5    S    
C7    C99   A    
C19   C23   A    
C73   C89   S    
C63   C67   A    
C70   C74   A    
C112  H50   S    
Cr6   O6    S    
C11   H19   S    
C110  H45   S    
Cr11  O39   S    
C93   C97   A    
C109  H44   S    
C99   C100  A    
C16   C20   A    
C1    O25   A    
C79   O3    A    
C54   C58   A    
O56   C111  S    
C80   O40   A    
C25   H25   S    
C42   C85   S    
C85   O5    A    
C57   C61   A    
C86   O10   A    
C22   C26   A    
C105  H34   S    
C2    O22   A    
Cr4   O20   S    
C28   H28   S    
C26   C30   A    
C107  H39   S    
C47   O35   A    
Cr8   O28   S    
C42   C50   A    
C111  H48   S    
C111  H49   S    
C3    O23   A    
C5    C11   A    
Cr8   O8    S    
Cr1   O21   S    
C49   C50   A    
C31   C35   A    
C5    H13   S    
C90   O14   A    
Cr7   O19   S    
Cr2   O42   S    
C83   O51   A    
C107  C108  S    
C56   H8    S    
C20   H24   S    
C48   O32   A    
C95   C104  A    
C78   O2    A    
C109  C110  S    
C14   I6    S    
C12   H20   S    
C90   O42   A    
C106  H37   S    
C3    O27   A    
C7    C9    A    
C91   O43   A    
C21   C25   A    
C40   H32   S    
C53   C57   A    
Cr1   O45   S    
C18   C22   A    
C93   C102  A    
C53   C73   A    
Cr12  O16   S    
C8    C10   A    
C103  H3    S    
C10   H18   S    
Cr9   O17   S    
C5    C97   A    
C61   C84   S    
C44   C52   A    
C14   C34   A    
Cr11  O35   S    
C11   C12   A    
C32   C36   A    
C82   O50   A    
C39   C44   A    
C87   O7    A    
C75   C91   S    
C58   O54   S    
C112  H52   S    
C111  C112  S    
Cr1   O1    S    
Cr12  O36   S    
C59   C63   A    
Cr10  O38   S    
C13   C17   A    
C33   C77   S    
C60   C64   A    
C101  H1    S    
C46   O34   A    
C39   H31   S    
C92   O16   A    
C86   O6    A    
C108  H41   S    
Cr3   O3    S    
C110  H46   S    
Cr11  O15   S    
Cr10  O34   S    
C51   I15   S    
C16   C36   A    
C6    C12   A    
C45   O29   A    
Cr6   O18   S    
C43   C51   A    
C109  H43   S    
C66   C70   A    
C46   C93   S    
C31   I11   S    
C84   O48   A    
Cr4   O24   S    
C4    O24   A    
C74   C90   S    
C96   C100  A    
C108  H42   S    
C1    O21   A    
Cr1   O41   S    
C87   O11   A    
C67   C71   A    
C88   O12   A    
C83   O47   A    
C49   I13   S    
C64   C81   S    
C15   C35   A    
C2    O26   A    
C81   O45   A    
Cr3   O43   S    
C61   C65   A    
C16   I8    S    
C1    C24   S    
C112  H51   S    
C13   C33   A    
C4    O28   A    
C96   C103  A    
C57   O53   S    
C2    C23   S    
C29   I9    S    
Cr5   O29   S    
C94   C98   A    
Cr12  O20   S    
C3    C22   S    
C59   O55   S    
C35   C79   S    
C88   O8    A    
Cr9   O9    S    
C50   I14   S    
Cr11  O19   S    
Cr8   O52   S    
C19   H23   S    
C34   C78   S    
C92   O44   A    
C104  H4    S    
Cr4   O44   S    
C9    H17   S    
