data_mof_unit_32686.cif
_audit_creation_date              2012-12-10T17:24:11-0500
_audit_creation_method            fapswitch 2.2
_symmetry_space_group_name_H-M    P1
_symmetry_Int_Tables_number       1
_space_group_crystal_system       triclinic
_cell_length_a                    10.162703
_cell_length_b                    10.882639
_cell_length_c                    16.685957
_cell_angle_alpha                 91.178627
_cell_angle_beta                  76.690003
_cell_angle_gamma                 95.08276
_cell_volume                      1788.78526661

loop_
_atom_site_label
_atom_site_type_symbol
_atom_type_description
_atom_site_fract_x
_atom_site_fract_y
_atom_site_fract_z
_atom_type_partial_charge
C1    C     C_R   0.556681 0.732133 0.494491 0.947556
C2    C     C_R   0.515945 0.490189 0.345418 0.848660
C3    C     C_R   0.464499 0.479819 0.743037 -0.039442
C4    C     C_R   0.514598 0.446600 0.262589 -0.031560
C5    C     C_R   0.578472 0.465851 0.774696 -0.209081
C6    C     C_R   0.391243 0.397523 0.245974 -0.201428
C7    C     C_R   0.562064 0.428920 0.855606 -0.146114
C8    C     C_R   0.388650 0.345167 0.170010 -0.157627
C9    C     C_R   0.431111 0.404308 0.905692 0.205099
C10   C     C_R   0.508921 0.344555 0.108827 0.206072
C11   C     C_R   0.317433 0.423009 0.875073 -0.180153
C12   C     C_R   0.443388 0.267901 0.505759 0.936388
C13   C     C_R   0.633222 0.386906 0.126663 -0.171885
C14   C     C_R   0.333806 0.460240 0.794025 -0.201672
C15   C     C_R   0.636220 0.437608 0.203518 -0.213547
C16   C     C_2   0.410832 0.373764 0.992768 -0.230970
C17   C     C_2   0.504590 0.322607 0.022846 -0.244043
C18   C     C_3   0.099596 0.731397 0.590560 0.184717
C19   C     C_3   0.090002 0.801647 0.671678 -0.404930
C20   C     C_3   0.214070 0.789685 0.707150 -0.754550
C21   C     C_3   0.866811 0.313926 0.362344 0.192885
C22   C     C_3   0.922692 0.207713 0.399552 -0.430692
C23   C     C_2   0.589019 0.863445 0.493598 -0.388451
C24   C     C_3   0.887505 0.084313 0.361053 -0.963683
C25   C     C_2   0.411543 0.136599 0.507391 -0.373346
C26   C     C_2   0.488529 0.935064 0.497216 -0.159310
C27   C     C_2   0.512682 0.065500 0.503528 -0.156366
C28   C     C_2   0.921470 0.493781 0.515467 0.034222
C29   C     C_2   0.073040 0.487503 0.495067 0.035320
C30   C     C_R   0.481379 0.500506 0.655210 0.848811
H1    H     H_    0.680314 0.481852 0.736693 0.155572
H2    H     H_    0.652197 0.422383 0.878798 0.125668
H3    H     H_    0.615302 0.103473 0.503796 0.191873
H4    H     H_    0.386266 0.897625 0.496213 0.175579
H5    H     H_    0.308442 0.098232 0.508966 0.143693
H6    H     H_    0.691993 0.901317 0.492785 0.154970
H7    H     H_    0.118887 0.430104 0.444169 0.129459
H8    H     H_    0.872289 0.535385 0.572930 0.127964
H9    H     H_    0.011730 0.750513 0.564916 0.072526
H10   H     H_    0.193635 0.767159 0.546081 0.138506
H11   H     H_    0.996848 0.766186 0.717051 0.220951
H12   H     H_    0.296676 0.398093 0.291976 0.156983
H13   H     H_    0.082242 0.900861 0.660683 0.171213
H14   H     H_    0.308287 0.824328 0.662476 0.248260
H15   H     H_    0.220970 0.691959 0.722193 0.281025
H16   H     H_    0.205157 0.844954 0.764520 0.224796
H17   H     H_    0.903018 0.311093 0.294278 0.128977
H18   H     H_    0.754829 0.301728 0.375122 0.184317
H19   H     H_    0.034894 0.224153 0.388859 0.223496
H20   H     H_    0.879269 0.203348 0.467052 0.216393
H21   H     H_    0.776009 0.067018 0.368640 0.270147
H22   H     H_    0.924115 0.008763 0.391598 0.266309
H23   H     H_    0.732800 0.471449 0.216302 0.156945
H24   H     H_    0.937108 0.083944 0.294377 0.268045
H25   H     H_    0.244168 0.470027 0.770787 0.167175
H26   H     H_    0.592742 0.288046 0.981879 0.147071
H27   H     H_    0.323368 0.409121 0.034071 0.151692
H28   H     H_    0.215995 0.407761 0.913745 0.126634
H29   H     H_    0.726808 0.386885 0.079770 0.123871
H30   H     H_    0.292085 0.309519 0.158024 0.129546
N1    N     N_2   0.846390 0.448330 0.467170 0.049302
N2    N     N_2   0.153610 0.551670 0.532830 0.049098
O1    O     O_R   0.430310 0.692580 0.506610 -0.618308
O2    O     O_3   0.915695 0.429016 0.389188 -0.589887
O3    O     O_R   0.569690 0.307420 0.493390 -0.640158
O4    O     O_R   0.652740 0.659410 0.485540 -0.608089
O5    O     O_R   0.347260 0.340590 0.514460 -0.622453
O6    O     O_R   0.375640 0.518570 0.627580 -0.584379
O7    O     O_R   0.624360 0.481430 0.372420 -0.609977
O8    O     O_R   0.598070 0.485390 0.606510 -0.637451
O9    O     O_R   0.401930 0.514610 0.393490 -0.632359
O10   O     O_3   0.094655 0.603533 0.604688 -0.551486
Zn1   Zn    Zn3+2 0.351480 0.522150 0.514070 0.975165
Zn2   Zn    Zn3+2 0.648520 0.477850 0.485930 0.960443

loop_
_geom_bond_atom_site_label_1
_geom_bond_atom_site_label_2
_ccdc_geom_bond_type
O8    Zn2   S    
C3    C30   S    
C2    C4    S    
C18   H9    S    
C10   C13   A    
N2    Zn1   S    
C24   H22   S    
C13   H29   S    
N1    Zn2   S    
C25   C27   D    
C2    O7    A    
C12   O3    A    
C19   C20   S    
C28   H8    S    
C12   C25   S    
C22   H20   S    
C21   H18   S    
C28   N1    D    
C3    C5    A    
C24   H21   S    
C14   H25   S    
N2    O10   S    
O7    Zn2   S    
C30   O6    A    
C21   C22   S    
C27   H3    S    
N1    O2    S    
C9    C11   A    
C17   H26   S    
C19   H11   S    
C26   C27   S    
C3    C14   A    
C25   H5    S    
C22   H19   S    
O5    Zn1   S    
C1    O1    A    
C8    C10   A    
C28   C29   S    
C30   O8    A    
C9    C16   S    
C19   H13   S    
C1    O4    A    
C1    C23   S    
C7    C9    A    
C16   H27   S    
C13   C15   A    
C4    C15   A    
C18   O10   S    
C7    H2    S    
C11   C14   A    
C22   C24   S    
C20   H14   S    
C10   C17   S    
C24   H24   S    
C2    O9    A    
C11   H28   S    
C15   H23   S    
O9    Zn1   S    
C4    C6    A    
C23   H6    S    
C6    H12   S    
C23   C26   D    
C29   H7    S    
C5    C7    A    
C18   H10   S    
C29   N2    D    
C18   C19   S    
C21   O2    S    
C6    C8    A    
C12   O5    A    
O1    Zn1   S    
C21   H17   S    
O6    Zn1   S    
C26   H4    S    
C8    H30   S    
O3    Zn2   S    
C20   H15   S    
C16   C17   D    
C5    H1    S    
C20   H16   S    
O4    Zn2   S    
