data_mof_unit_38257.cif
_audit_creation_date              2012-12-10T19:43:09-0500
_audit_creation_method            fapswitch 2.2
_symmetry_space_group_name_H-M    P1
_symmetry_Int_Tables_number       1
_space_group_crystal_system       triclinic
_cell_length_a                    18.542459
_cell_length_b                    18.285041
_cell_length_c                    18.220656
_cell_angle_alpha                 119.282706
_cell_angle_beta                  89.865875
_cell_angle_gamma                 59.367875
_cell_volume                      4368.1910587

loop_
_atom_site_label
_atom_site_type_symbol
_atom_type_description
_atom_site_fract_x
_atom_site_fract_y
_atom_site_fract_z
_atom_type_partial_charge
C1    C     C_R   0.860093 0.779594 0.639235 0.820547
C2    C     C_R   0.175356 0.438688 0.888012 -0.222275
C3    C     C_R   0.163500 0.384162 0.809552 -0.276070
C4    C     C_R   0.140871 0.219935 0.360151 0.833257
C5    C     C_R   0.180922 0.387299 0.735801 0.563548
C6    C     C_R   0.195144 0.052173 0.333270 0.112000
C7    C     C_R   0.195959 0.108428 0.303251 -0.121230
C8    C     C_R   0.246735 0.056476 0.214817 -0.337385
C9    C     C_R   0.302607 0.947300 0.158283 0.514735
C10   C     C_R   0.304792 0.892207 0.193298 -0.176597
C11   C     C_R   0.248010 0.945819 0.278915 0.046355
C12   C     C_R   0.323461 0.607009 0.759081 0.435426
C13   C     C_3   0.269479 0.937698 0.354667 -0.443787
C14   C     C_3   0.212730 0.054722 0.414002 -0.487198
C15   C     C_R   0.195993 0.585173 0.334749 0.049606
C16   C     C_R   0.860412 0.497876 0.638385 0.861787
C17   C     C_R   0.193897 0.499563 0.301312 -0.188858
C18   C     C_R   0.238179 0.418593 0.209109 0.513210
C19   C     C_R   0.292394 0.420350 0.156849 -0.341418
C20   C     C_R   0.301001 0.502111 0.194464 -0.134675
C21   C     C_R   0.248335 0.586469 0.282252 0.117884
C22   C     C_3   0.272777 0.641245 0.357738 -0.472291
C23   C     C_R   0.295279 0.544311 0.751348 -0.080294
C24   C     C_3   0.215246 0.639894 0.415872 -0.421414
C25   C     C_R   0.820422 0.945584 0.769598 -0.082000
C26   C     C_R   0.803124 0.891430 0.694939 -0.168693
C27   C     C_R   0.724433 0.947450 0.680176 0.463905
C28   C     C_R   0.140808 0.498684 0.359487 0.822254
C29   C     C_R   0.669374 0.055934 0.736763 -0.311370
C30   C     C_R   0.694137 0.108687 0.805373 -0.066649
C31   C     C_R   0.766701 0.051801 0.824233 -0.039590
C32   C     C_3   0.840912 0.059449 0.847041 -0.582054
C33   C     C_3   0.902385 0.940590 0.784722 0.982109
C34   C     C_R   0.264495 0.509891 0.679809 0.015057
C35   C     C_R   0.714827 0.557954 0.338202 -0.103505
C36   C     C_R   0.806651 0.498413 0.302044 -0.193010
C37   C     C_R   0.844967 0.437759 0.207445 0.533231
C38   C     C_R   0.788663 0.438396 0.155036 -0.342923
C39   C     C_R   0.695662 0.500525 0.195086 -0.112466
C40   C     C_R   0.860501 0.499382 0.359649 0.849472
C41   C     C_R   0.661575 0.559755 0.287666 -0.050119
C42   C     C_3   0.578070 0.629234 0.365450 0.224782
C43   C     C_3   0.640163 0.626908 0.424001 0.906048
C44   C     C_R   0.713073 0.556268 0.714624 -0.003554
C45   C     C_R   0.291734 0.518965 0.813855 -0.099947
C46   C     C_R   0.805620 0.488958 0.685759 -0.238436
C47   C     C_R   0.843658 0.411357 0.701865 0.336720
C48   C     C_R   0.791292 0.420577 0.765927 0.372254
C49   C     C_R   0.697240 0.494412 0.799553 -0.259797
C50   C     C_R   0.659794 0.556905 0.768184 -0.069816
C51   C     C_3   0.591935 0.671715 0.816371 0.377555
C52   C     C_R   0.143924 0.494304 0.636748 0.814113
C53   C     C_3   0.651949 0.670182 0.756914 -0.522521
C54   C     C_R   0.360213 0.499953 0.140002 0.822440
C55   C     C_R   0.640111 0.500495 0.860298 0.866668
C56   C     C_R   0.238435 0.485792 0.816681 0.003876
C57   C     C_R   0.361463 0.780151 0.139502 0.860225
C58   C     C_R   0.639817 0.220333 0.860077 0.825535
C59   C     C_R   0.639715 0.499901 0.139999 0.845475
C60   C     C_R   0.356551 0.505060 0.862618 0.804613
C61   C     C_R   0.288562 0.507301 0.604817 -0.217776
C62   C     C_R   0.330052 0.552470 0.605785 -0.306984
C63   C     C_R   0.344637 0.606412 0.683188 0.477056
C64   C     C_3   0.337664 0.943542 0.031853 -0.285723
C65   C     C_3   0.210755 0.311635 0.099222 -0.286851
C66   C     C_3   0.742337 0.883069 0.533485 0.047388
C67   C     C_R   0.208339 0.450873 0.744559 -0.029166
C68   C     C_3   0.731330 0.811689 0.451759 -0.248670
C69   C     C_3   0.775185 0.791502 0.366718 -1.006719
C70   C     C_3   0.031228 0.913951 0.722966 0.143196
C71   C     C_3   0.043710 0.959738 0.677080 -0.391490
C72   C     C_3   0.111865 0.982542 0.701605 -0.968008
C73   C     C_3   0.894832 0.887197 0.879234 -0.357883
C74   C     C_3   0.964159 0.381014 0.102149 -0.319548
C75   C     C_3   0.446212 0.795175 0.453638 0.139405
C76   C     C_3   0.374043 0.777083 0.437206 -0.388145
C77   C     C_3   0.286701 0.867049 0.514979 -0.992299
C78   C     C_R   0.210300 0.478236 0.683546 -0.111282
C79   C     C_3   0.609271 0.763002 0.568977 -0.186591
C80   C     C_3   0.648226 0.490522 0.422493 -0.471047
C81   C     C_3   0.947543 0.240198 0.590815 0.130236
C82   C     C_3   0.008074 0.151214 0.600004 -0.335497
C83   C     C_3   0.028068 0.049418 0.521769 -1.000756
C84   C     C_3   0.848418 0.407997 0.874270 0.152443
C85   C     C_3   0.927570 0.411422 0.857452 -0.364525
C86   C     C_3   0.955359 0.444893 0.939997 -1.039845
C87   C     C_3   0.646016 0.727644 0.937729 0.114949
C88   C     C_3   0.635170 0.741299 0.027642 -0.300462
C89   C     C_R   0.214476 0.487046 0.891121 -0.117791
C90   C     C_3   0.710017 0.741635 0.062032 -1.011236
C91   C     C_3   0.454061 0.610068 0.630670 -0.386703
C92   C     C_3   0.373248 0.702107 0.850606 -0.083653
C93   C     C_3   0.128884 0.291461 0.651932 -0.195099
H1    H     H_    0.143835 0.336437 0.806012 0.150222
H2    H     H_    0.275056 0.470278 0.544577 0.167593
H3    H     H_    0.154994 0.718175 0.468014 0.205448
H4    H     H_    0.610278 0.098527 0.723805 0.174146
H5    H     H_    0.852986 0.098579 0.822558 0.206958
H6    H     H_    0.833414 0.091145 0.918629 0.187242
H7    H     H_    0.817800 0.388664 0.083010 0.180417
H8    H     H_    0.343837 0.553044 0.548379 0.164939
H9    H     H_    0.545859 0.590161 0.358518 0.042127
H10   H     H_    0.529441 0.689803 0.801040 0.081568
H11   H     H_    0.622470 0.687228 0.709453 0.184416
H12   H     H_    0.240096 0.904947 0.370283 0.210090
H13   H     H_    0.682495 0.710827 0.790247 0.180964
H14   H     H_    0.226149 0.525395 0.952303 0.146200
H15   H     H_    0.159813 0.437551 0.944612 0.155464
H16   H     H_    0.246352 0.101762 0.192711 0.184776
H17   H     H_    0.267103 0.976454 0.035121 0.157672
H18   H     H_    0.379524 0.886891 0.960353 0.189287
H19   H     H_    0.350172 0.003640 0.059665 0.174598
H20   H     H_    0.151432 0.383351 0.110167 0.141631
H21   H     H_    0.191775 0.258993 0.086358 0.192066
H22   H     H_    0.265860 0.271206 0.038755 0.152572
H23   H     H_    0.341150 0.901359 0.347208 0.226155
H24   H     H_    0.814956 0.846791 0.521067 0.125613
H25   H     H_    0.709660 0.958966 0.542428 0.141941
H26   H     H_    0.762296 0.736648 0.443729 0.250823
H27   H     H_    0.659343 0.847436 0.461773 0.258710
H28   H     H_    0.744554 0.865224 0.372381 0.269731
H29   H     H_    0.765890 0.739308 0.308971 0.275473
H30   H     H_    0.847644 0.753822 0.354386 0.260437
H31   H     H_    0.093394 0.835853 0.695046 0.186258
H32   H     H_    0.019974 0.963968 0.795487 0.152617
H33   H     H_    0.066186 0.904538 0.603523 0.224735
H34   H     H_    0.151818 0.089331 0.464692 0.198726
H35   H     H_    0.979210 0.032903 0.697843 0.236966
H36   H     H_    0.177172 0.910362 0.680977 0.283868
H37   H     H_    0.089207 0.039853 0.774771 0.267217
H38   H     H_    0.119825 0.015409 0.667310 0.273573
H39   H     H_    0.878593 0.832991 0.835971 0.159868
H40   H     H_    0.833268 0.965277 0.929407 0.157420
H41   H     H_    0.933392 0.857284 0.916257 0.204756
H42   H     H_    0.034729 0.352330 0.091268 0.183740
H43   H     H_    0.925502 0.462761 0.123055 0.156196
H44   H     H_    0.960606 0.331340 0.037485 0.158365
H45   H     H_    0.251664 0.086332 0.439805 0.224491
H46   H     H_    0.419316 0.874282 0.472665 0.172041
H47   H     H_    0.462075 0.793143 0.511583 0.131838
H48   H     H_    0.364100 0.768012 0.374049 0.250696
H49   H     H_    0.394816 0.705193 0.431204 0.206172
H50   H     H_    0.296853 0.876925 0.578354 0.276567
H51   H     H_    0.235763 0.851629 0.504497 0.272886
H52   H     H_    0.261561 0.939989 0.520883 0.272866
H53   H     H_    0.669184 0.717334 0.581858 0.234974
H54   H     H_    0.553101 0.765506 0.594812 0.128714
H55   H     H_    0.589164 0.843525 0.606781 0.195588
H56   H     H_    0.332195 0.354566 0.088370 0.187967
H57   H     H_    0.688947 0.437287 0.350581 0.167350
H58   H     H_    0.578721 0.514697 0.431532 0.162329
H59   H     H_    0.676948 0.446040 0.452242 0.218767
H60   H     H_    0.980900 0.222246 0.527642 0.141245
H61   H     H_    0.885343 0.245110 0.585216 0.117992
H62   H     H_    0.071435 0.142866 0.603149 0.199233
H63   H     H_    0.975322 0.168609 0.663093 0.261205
H64   H     H_    0.966073 0.053780 0.522332 0.271423
H65   H     H_    0.076165 0.985368 0.527332 0.270645
H66   H     H_    0.057465 0.031879 0.457232 0.265765
H67   H     H_    0.344766 0.593085 0.347949 0.200272
H68   H     H_    0.863014 0.364502 0.904966 0.167796
H69   H     H_    0.787993 0.487881 0.924057 0.115529
H70   H     H_    0.985214 0.333756 0.801076 0.247759
H71   H     H_    0.908692 0.467641 0.839996 0.215032
H72   H     H_    0.896530 0.513123 0.001009 0.270786
H73   H     H_    0.999995 0.465931 0.932329 0.278044
H74   H     H_    0.991917 0.380150 0.947784 0.261390
H75   H     H_    0.644866 0.792646 0.945944 0.141001
H76   H     H_    0.711870 0.653976 0.889966 0.120764
H77   H     H_    0.570277 0.815394 0.077266 0.248361
H78   H     H_    0.245325 0.719836 0.375253 0.204680
H79   H     H_    0.635540 0.677001 0.020158 0.203928
H80   H     H_    0.775548 0.668696 0.012872 0.266601
H81   H     H_    0.701808 0.748426 0.125942 0.275323
H82   H     H_    0.708345 0.808189 0.073830 0.270295
H83   H     H_    0.456245 0.577088 0.560146 0.176621
H84   H     H_    0.502101 0.547466 0.638366 0.147172
H85   H     H_    0.476082 0.660811 0.647273 0.204053
H86   H     H_    0.355602 0.764513 0.841961 0.165035
H87   H     H_    0.440409 0.629977 0.803646 0.128341
H88   H     H_    0.376547 0.730076 0.918727 0.233937
H89   H     H_    0.253865 0.590891 0.439849 0.201805
H90   H     H_    0.061822 0.362271 0.700700 0.180517
H91   H     H_    0.152405 0.230994 0.664899 0.119189
H92   H     H_    0.121669 0.260381 0.585139 0.222617
O1    O     O_3   0.000000 0.500000 0.500000 -0.507362
O2    O     O_R   0.676550 0.268320 0.884150 -0.636983
O3    O     O_R   0.555150 0.560600 0.176460 -0.620830
O4    O     O_R   0.944950 0.731580 0.615800 -0.603140
O5    O     O_R   0.384220 0.439220 0.884170 -0.641159
O6    O     O_R   0.676580 0.439170 0.055020 -0.666169
O7    O     O_R   0.384230 0.560650 0.884170 -0.622815
O8    O     O_R   0.384260 0.731500 0.055040 -0.612015
O9    O     O_R   0.555100 0.268330 0.884160 -0.643787
O10   O     O_R   0.384250 0.560620 0.176470 -0.651789
O11   O     O_R   0.676570 0.439190 0.884150 -0.619885
O12   O     O_R   0.944910 0.439280 0.615800 -0.631465
O13   O     O_R   0.115780 0.268410 0.444920 -0.658900
O14   O     O_R   0.823470 0.560720 0.615800 -0.641344
O15   O     O_R   0.115800 0.439290 0.323490 -0.589897
O16   O     O_R   0.823460 0.560740 0.444930 -0.628755
O17   O     O_R   0.115830 0.560690 0.615790 -0.625755
O18   O     O_R   0.944900 0.439310 0.323490 -0.590344
O19   O     O_R   0.115810 0.439260 0.615790 -0.609076
O20   O     O_3   0.364096 0.891758 0.074554 -0.586413
O21   O     O_3   0.238859 0.331594 0.174471 -0.581526
O22   O     O_3   0.702060 0.897033 0.609522 -0.637818
O23   O     O_R   0.115820 0.560710 0.444920 -0.651740
O24   O     O_3   0.961115 0.903870 0.705751 -0.651523
O25   O     O_3   0.948142 0.890429 0.826953 -0.618683
O26   O     O_3   0.936936 0.371616 0.167535 -0.569337
O27   O     O_3   0.522157 0.725091 0.376090 -0.595843
O28   O     O_3   0.628846 0.723069 0.477143 -0.643359
O29   O     O_3   0.649578 0.578124 0.469232 -0.637801
O30   O     O_3   0.933647 0.332079 0.662681 -0.644194
O31   O     O_3   0.834027 0.355975 0.793933 -0.618031
O32   O     O_3   0.573509 0.730764 0.910593 -0.604176
O33   O     O_3   0.366661 0.670501 0.689001 -0.615268
O34   O     O_R   0.823500 0.731590 0.615800 -0.631487
O35   O     O_3   0.305904 0.686202 0.844675 -0.599187
O36   O     O_3   0.192354 0.312464 0.650893 -0.604621
O37   O     O_R   0.115770 0.268420 0.323490 -0.631957
O38   O     O_3   0.500040 0.499910 0.999960 -0.492125
O39   O     O_R   0.384230 0.439200 0.055040 -0.648824
O40   O     O_R   0.555130 0.560630 0.884160 -0.652095
O41   O     O_R   0.384270 0.731490 0.176470 -0.651801
Zn1   Zn    Zn3+2 0.043370 0.413240 0.543370 0.954361
Zn2   Zn    Zn3+2 0.869870 0.586760 0.543380 0.960880
Zn3   Zn    Zn3+2 0.043360 0.413260 0.369880 1.007028
Zn4   Zn    Zn3+2 0.043390 0.586740 0.543370 0.979462
Zn5   Zn    Zn3+2 0.456670 0.586670 0.956580 0.971841
Zn6   Zn    Zn3+2 0.456680 0.586650 0.130080 0.957503
Zn7   Zn    Zn3+2 0.630180 0.413150 0.956570 0.956849
Zn8   Zn    Zn3+2 0.456650 0.413170 0.956580 0.954497

loop_
_geom_bond_atom_site_label_1
_geom_bond_atom_site_label_2
_ccdc_geom_bond_type
C25   C31   A    
C80   H58   S    
C66   C68   S    
C87   C88   S    
C48   O31   S    
C45   C60   S    
C42   C43   S    
C23   C45   A    
C27   C29   A    
C11   C13   S    
C41   C42   S    
C6    C7    A    
C5    O36   S    
C35   C36   A    
C86   H73   S    
C5    C67   A    
C81   C82   S    
C42   O27   S    
C72   H36   S    
C39   C41   A    
O1    Zn3   S    
C85   C86   S    
C51   O32   S    
C80   H57   S    
C67   C78   A    
C90   H80   S    
C26   C27   A    
C37   C38   A    
C60   O5    A    
C88   H79   S    
C63   O33   S    
C36   C37   A    
O38   Zn8   S    
C75   H47   S    
C24   H3    S    
C68   H26   S    
C30   C31   A    
C93   H91   S    
C4    O37   A    
C64   H19   S    
C92   H87   S    
O11   Zn7   S    
C69   H30   S    
C53   H11   S    
C51   H10   S    
C87   H76   S    
C91   H85   S    
C91   H84   S    
C81   H60   S    
C80   H59   S    
C18   C19   A    
C65   H21   S    
C92   O35   S    
O39   Zn8   S    
C37   O26   S    
O38   Zn7   S    
C59   O6    A    
C53   H13   S    
O1    Zn1   S    
C14   H45   S    
O37   Zn3   S    
O38   Zn5   S    
C8    C9    A    
C66   H24   S    
C47   O30   S    
O10   Zn6   S    
C71   H33   S    
C70   C71   S    
O5    Zn8   S    
O34   Zn2   S    
C29   C30   A    
C35   C43   S    
O14   Zn2   S    
C52   O17   A    
C22   H78   S    
C76   H49   S    
O17   Zn4   S    
C62   H8    S    
C82   H63   S    
C76   H48   S    
C4    O13   A    
C55   O11   A    
C73   H39   S    
C21   C22   S    
C65   H22   S    
C86   H72   S    
C33   O24   S    
O9    Zn8   S    
C4    C7    S    
C52   C78   S    
C79   O28   S    
C44   C53   S    
C84   H68   S    
C44   C46   A    
C50   C51   S    
C79   H53   S    
C38   C39   A    
C74   H44   S    
C75   O27   S    
C88   H77   S    
O7    Zn5   S    
C24   H89   S    
C73   O25   S    
C36   C40   S    
C10   C57   S    
C84   C85   S    
C45   C56   A    
C20   C54   S    
C93   H92   S    
C16   C46   S    
C6    C11   A    
O18   Zn3   S    
C12   C63   A    
C68   C69   S    
C64   H18   S    
C80   O29   S    
C65   O21   S    
C25   C26   A    
C49   C55   S    
C54   O39   A    
C90   H82   S    
C58   O9    A    
C34   C61   A    
C81   H61   S    
C74   H43   S    
C51   C53   S    
C2    C89   A    
C75   C76   S    
C77   H50   S    
C62   C63   A    
C92   H86   S    
C70   H31   S    
C6    C14   S    
C33   O25   S    
C64   H17   S    
C47   C48   A    
C83   H64   S    
C40   O18   A    
C69   H28   S    
C60   O7    A    
C23   C34   A    
C39   C59   S    
C74   H42   S    
C89   H14   S    
C25   C33   S    
C17   C18   A    
O1    Zn2   S    
C59   O3    A    
C1    O34   A    
C28   O15   A    
C76   C77   S    
O19   Zn1   S    
O2    Zn7   S    
C16   O14   A    
C82   H62   S    
O12   Zn1   S    
C70   H32   S    
C13   H12   S    
C56   C89   A    
C73   H40   S    
C82   C83   S    
C87   H75   S    
C1    C26   S    
C85   H70   S    
C22   C24   S    
C71   H35   S    
O15   Zn3   S    
O8    Zn5   S    
C40   O16   A    
C43   O28   S    
C77   H52   S    
C84   H69   S    
O13   Zn1   S    
C72   H38   S    
C9    C10   A    
C44   C50   A    
C15   C17   A    
C46   C47   A    
C48   C49   A    
C54   O10   A    
C58   O2    A    
C17   C28   S    
C65   H20   S    
C31   C32   S    
C86   H74   S    
C88   C90   S    
C3    C5    A    
C79   H54   S    
C61   H2    S    
C72   H37   S    
C79   H55   S    
O1    Zn4   S    
O6    Zn7   S    
C56   C67   A    
C57   O41   A    
C64   O20   S    
C90   H81   S    
C32   H6    S    
C29   H4    S    
C74   O26   S    
C18   O21   S    
C32   C33   S    
C55   O40   A    
C19   C20   A    
C2    C3    A    
C77   H51   S    
O40   Zn5   S    
C71   C72   S    
C9    O20   S    
C8    H16   S    
C34   C78   A    
C15   C24   S    
C66   O22   S    
C93   H90   S    
C38   H7    S    
C81   O30   S    
C83   H65   S    
C22   H67   S    
C69   H29   S    
C91   O33   S    
O41   Zn6   S    
C30   C58   S    
C2    H15   S    
C19   H56   S    
C32   H5    S    
C91   H83   S    
O4    Zn4   S    
C3    H1    S    
C27   O22   S    
C87   O32   S    
O16   Zn2   S    
C61   C62   A    
C35   C41   A    
C13   H23   S    
C7    C8    A    
C10   C11   A    
C14   H34   S    
C52   O19   A    
C12   C23   A    
O38   Zn6   S    
C15   C21   A    
C83   H66   S    
C73   H41   S    
C42   H9    S    
C28   O23   A    
C20   C21   A    
C49   C50   A    
C66   H25   S    
C57   O8    A    
C70   O24   S    
C75   H46   S    
C93   O36   S    
C92   H88   S    
C13   C14   S    
C43   O29   S    
O3    Zn6   S    
C12   O35   S    
C85   H71   S    
C68   H27   S    
C16   O12   A    
C84   O31   S    
O23   Zn4   S    
C1    O4    A    
