data_mof_unit_26508.cif
_audit_creation_date              2012-12-10T19:14:53-0500
_audit_creation_method            fapswitch 2.2
_symmetry_space_group_name_H-M    P1
_symmetry_Int_Tables_number       1
_space_group_crystal_system       triclinic
_cell_length_a                    15.956656
_cell_length_b                    14.761615
_cell_length_c                    11.000049
_cell_angle_alpha                 90.403127
_cell_angle_beta                  89.352082
_cell_angle_gamma                 91.58223
_cell_volume                      2589.80559976

loop_
_atom_site_label
_atom_site_type_symbol
_atom_type_description
_atom_site_fract_x
_atom_site_fract_y
_atom_site_fract_z
_atom_type_partial_charge
C1    C     C_1   0.251764 0.497525 0.495314 -0.079039
C2    C     C_1   0.748306 0.502599 0.500578 -0.082386
C3    C     C_R   0.497995 0.500719 0.871113 -0.129559
C4    C     C_R   0.502246 0.499208 0.128490 -0.113737
C5    C     C_R   0.502719 0.903156 0.493148 -0.321904
C6    C     C_R   0.496637 0.096774 0.506977 -0.308727
C7    C     C_R   0.573778 0.955335 0.532270 0.271770
C8    C     C_R   0.425488 0.044559 0.467972 0.260179
C9    C     C_R   0.430665 0.948236 0.453353 0.288491
C10   C     C_R   0.568500 0.051580 0.547281 0.292323
C11   C     C_R   0.956691 0.507193 0.387643 -0.121779
C12   C     C_R   0.043381 0.493092 0.606334 -0.138189
C13   C     C_R   0.044036 0.505147 0.386223 -0.132769
C14   C     C_R   0.956065 0.495171 0.607757 -0.144689
C15   C     C_R   0.340894 0.499102 0.497812 0.841657
C16   C     C_R   0.659137 0.500905 0.500914 0.840273
C17   C     C_R   0.502669 0.499815 0.261961 0.790854
C18   C     C_R   0.497470 0.500179 0.737923 0.785397
C19   C     C_R   0.912845 0.502223 0.498418 0.143258
C20   C     C_R   0.087241 0.498077 0.495587 0.146524
C21   C     C_1   0.501724 0.802675 0.497766 0.510104
C22   C     C_1   0.497943 0.197301 0.502309 0.495094
C23   C     C_1   0.823409 0.502959 0.499752 -0.043283
C24   C     C_1   0.176672 0.497288 0.494638 -0.046577
C25   C     C_R   0.650583 0.557538 0.116184 0.329845
C26   C     C_R   0.349391 0.441757 0.883665 0.283312
C27   C     C_R   0.644839 0.562571 0.869991 0.278122
C28   C     C_R   0.356579 0.435135 0.129617 0.320592
C29   C     C_R   0.723438 0.537269 0.050274 -0.182652
C30   C     C_R   0.276734 0.461101 0.950725 -0.210852
C31   C     C_R   0.720532 0.540114 0.923650 -0.235162
C32   C     C_R   0.280122 0.456030 0.077159 -0.207926
C33   C     C_R   0.570387 0.533972 0.932600 -0.004253
C34   C     C_R   0.430089 0.465712 0.066884 -0.006150
C35   C     C_R   0.572904 0.532702 0.061282 -0.009436
C36   C     C_R   0.427336 0.466910 0.938239 -0.006666
Cu1   Cu    Cu3+1 0.500000 0.589220 0.500000 1.136181
Cu2   Cu    Cu3+1 0.500000 0.410780 0.500000 1.132531
H1    H     H_    0.077798 0.509167 0.300307 0.143551
H2    H     H_    0.922318 0.491167 0.693692 0.138841
H3    H     H_    0.923407 0.512499 0.302761 0.149290
H4    H     H_    0.076651 0.487747 0.691228 0.136515
H5    H     H_    0.222059 0.443926 0.127162 0.176239
H6    H     H_    0.779025 0.550263 0.874022 0.158153
H7    H     H_    0.215852 0.453360 0.908700 0.160422
H8    H     H_    0.784132 0.545023 0.092857 0.177017
N1    N     N_1   0.500000 0.276710 0.500000 -0.099870
N2    N     N_1   0.500000 0.723290 0.500000 -0.094016
O1    O     O_R   0.380310 0.575320 0.500020 -0.602042
O2    O     O_R   0.619690 0.424680 0.499980 -0.602111
O3    O     O_R   0.619690 0.575320 0.499980 -0.477372
O4    O     O_R   0.380310 0.424680 0.500020 -0.477165
O5    O     O_R   0.499990 0.575350 0.319650 -0.527340
O6    O     O_R   0.500010 0.424650 0.680350 -0.529662
O7    O     O_R   0.500010 0.575350 0.680350 -0.539069
O8    O     O_R   0.499990 0.424650 0.319650 -0.543083
S1    S     S_3+6 0.648435 0.117138 0.623842 0.095661
O9    O     O_2   0.693265 0.061678 0.715375 -0.153756
O10   O     O_2   0.710377 0.152941 0.530795 -0.253901
O11   O     O_3   0.606749 0.205117 0.699062 -0.507803
H9    H     H_    0.655046 0.245761 0.719577 0.372963
S2    S     S_3+6 0.349889 0.882148 0.379290 0.087556
O12   O     O_2   0.289284 0.846517 0.474248 -0.244995
O13   O     O_2   0.303593 0.936900 0.288600 -0.152087
O14   O     O_3   0.390864 0.793995 0.303594 -0.531748
H10   H     H_    0.342437 0.753032 0.284855 0.377559
S3    S     S_3+6 0.327984 0.099294 0.449809 0.117033
O15   O     O_2   0.316827 0.121020 0.317917 -0.195016
O16   O     O_2   0.256512 0.038536 0.492116 -0.170650
O17   O     O_3   0.324333 0.195676 0.531412 -0.456414
H11   H     H_    0.267842 0.219079 0.516260 0.410998
S4    S     S_3+6 0.670954 0.900160 0.551526 0.119862
O18   O     O_2   0.743284 0.961529 0.514077 -0.186622
O19   O     O_2   0.679656 0.875398 0.682873 -0.144968
O20   O     O_3   0.675514 0.805602 0.466145 -0.497179
H12   H     H_    0.733772 0.785188 0.474484 0.411029
S5    S     S_3+6 0.660744 0.662020 0.195785 0.064224
O21   O     O_2   0.697308 0.646199 0.318035 -0.304004
O22   O     O_2   0.720758 0.723997 0.127829 -0.195911
O23   O     O_3   0.568560 0.713919 0.208907 -0.459243
H13   H     H_    0.582501 0.774162 0.244644 0.397814
S6    S     S_3+6 0.337853 0.337124 0.804048 0.086532
O24   O     O_2   0.420205 0.293433 0.779323 -0.170758
O25   O     O_2   0.285048 0.272206 0.878930 -0.187491
O26   O     O_3   0.286770 0.353119 0.674286 -0.526272
H14   H     H_    0.227936 0.363524 0.699157 0.333201
S7    S     S_3+6 0.649930 0.672284 0.804496 0.094401
O27   O     O_2   0.564727 0.712194 0.794376 -0.204404
O28   O     O_2   0.702034 0.734484 0.883690 -0.170422
O29   O     O_3   0.696952 0.668938 0.667661 -0.495321
H15   H     H_    0.756848 0.659001 0.684431 0.336588
S8    S     S_3+6 0.355863 0.325519 0.194544 0.081890
O30   O     O_2   0.323925 0.329410 0.322822 -0.281326
O31   O     O_2   0.297586 0.263696 0.124209 -0.159679
O32   O     O_3   0.452181 0.281899 0.189336 -0.488000
H16   H     H_    0.446657 0.223538 0.232872 0.381590

loop_
_geom_bond_atom_site_label_1
_geom_bond_atom_site_label_2
_ccdc_geom_bond_type
C7    C10   A    
S7    O27   D    
C30   H7    S    
O32   H16   S    
C16   O3    A    
O29   H15   S    
S5    O21   D    
C27   C33   A    
C11   C19   A    
Cu1   Cu2   S    
C25   S5    S    
C16   O2    A    
Cu1   O3    S    
S1    O10   D    
Cu2   O4    S    
C3    C33   A    
C6    C22   S    
C3    C18   S    
S2    O13   D    
C20   C24   S    
C8    C9    A    
C12   H4    S    
O17   H11   S    
C1    C15   S    
C2    C16   S    
C13   C20   A    
C21   N2    T    
Cu1   O5    S    
C22   N1    T    
C4    C35   A    
C28   C34   A    
C26   S6    S    
S4    O20   S    
S5    O22   D    
C25   C29   A    
C4    C34   A    
C31   H6    S    
C27   C31   A    
C9    S2    S    
C28   C32   A    
C10   S1    S    
S4    O19   D    
C7    S4    S    
C5    C7    A    
O23   H13   S    
S1    O11   S    
C6    C8    A    
O26   H14   S    
S8    O32   S    
S3    O15   D    
O11   H9    S    
S3    O16   D    
C19   C23   S    
O20   H12   S    
C5    C9    A    
S2    O12   D    
Cu1   O1    S    
Cu2   O6    S    
C12   C20   A    
S8    O31   D    
Cu2   O8    S    
C28   S8    S    
C15   O4    A    
Cu1   N2    S    
C27   S7    S    
C17   O8    A    
Cu2   N1    S    
C18   O7    A    
C25   C35   A    
C4    C17   S    
C26   C36   A    
C12   C14   A    
C26   C30   A    
S6    O25   D    
S7    O28   D    
O14   H10   S    
C17   O5    A    
S5    O23   S    
S2    O14   S    
C14   C19   A    
S4    O18   D    
C6    C10   A    
Cu2   O2    S    
S6    O26   S    
C29   H8    S    
S3    O17   S    
C29   C31   A    
C1    C24   T    
C30   C32   A    
C11   C13   A    
S1    O9    D    
C3    C36   A    
S8    O30   D    
C33   C35   A    
C32   H5    S    
C11   H3    S    
C34   C36   A    
C15   O1    A    
C13   H1    S    
C18   O6    A    
C14   H2    S    
Cu1   O7    S    
C5    C21   S    
C8    S3    S    
S6    O24   D    
S7    O29   S    
C2    C23   T    
