data_mof_unit_36282.cif
_audit_creation_date              2012-10-26T19:02:56-0400
_audit_creation_method            fapswitch 2.2
_symmetry_space_group_name_H-M    P1
_symmetry_Int_Tables_number       1
_space_group_crystal_system       triclinic
_cell_length_a                    15.060769
_cell_length_b                    10.936714
_cell_length_c                    9.956897
_cell_angle_alpha                 112.453676
_cell_angle_beta                  99.290932
_cell_angle_gamma                 92.775777
_cell_volume                      1484.89771149

loop_
_atom_site_label
_atom_site_type_symbol
_atom_type_description
_atom_site_fract_x
_atom_site_fract_y
_atom_site_fract_z
_atom_type_partial_charge
C1    C     C_R   0.494209 0.252414 0.437516 0.544424
C2    C     C_2   0.497723 0.477819 0.915068 0.135702
C3    C     C_R   0.328649 0.499308 0.498514 0.548952
C4    C     C_R   0.671332 0.500098 0.501209 0.555159
C5    C     C_R   0.831661 0.599369 0.612971 0.232799
C6    C     C_R   0.168559 0.399062 0.385194 0.245106
C7    C     C_R   0.768459 0.495042 0.503650 -0.008649
C8    C     C_R   0.231450 0.503642 0.495194 -0.021271
C9    C     C_R   0.799003 0.386199 0.396828 -0.010304
C10   C     C_R   0.200542 0.612821 0.600904 -0.023077
C11   C     C_R   0.893284 0.382329 0.406356 -0.009328
C12   C     C_R   0.507004 0.747812 0.562597 0.598722
C13   C     C_R   0.106256 0.616755 0.590175 -0.010347
C14   C     C_R   0.953067 0.498854 0.497170 -0.028532
C15   C     C_R   0.046553 0.500182 0.499072 -0.032601
C16   C     C_R   0.919641 0.613621 0.587732 0.008069
C17   C     C_R   0.080097 0.385221 0.408997 0.003648
C18   C     C_R   0.929762 0.263577 0.336023 -0.025306
C19   C     C_R   0.069732 0.735546 0.660223 -0.024938
C20   C     C_2   0.732744 0.274941 0.283056 0.300941
C21   C     C_2   0.266526 0.724324 0.714994 0.279104
C22   C     C_2   0.380749 0.894091 0.430578 0.321452
C23   C     C_R   0.022933 0.262608 0.343122 0.270252
C24   C     C_2   0.625492 0.105186 0.564341 0.261925
C25   C     C_2   0.560858 0.984669 0.758509 0.246003
C26   C     C_2   0.451480 0.018767 0.237027 0.233853
C27   C     C_2   0.433479 0.359276 0.813712 0.266595
C28   C     C_2   0.599013 0.587309 0.172400 0.306652
C29   C     C_R   0.976630 0.736306 0.653613 0.268887
C30   C     C_2   0.489600 0.107858 0.394542 -0.016370
C31   C     C_2   0.515659 0.892925 0.604953 -0.031769
C32   C     C_2   0.527271 0.059239 0.493204 -0.034315
C33   C     C_2   0.478308 0.942050 0.506340 -0.062206
C34   C     C_2   0.514901 0.501631 0.079410 0.139724
Cu1   Cu    Cu3+1 0.515770 0.521810 0.644910 1.100591
Cu2   Cu    Cu3+1 0.484230 0.478190 0.355090 1.075632
H1    H     H_    0.886865 0.169178 0.284006 0.213051
H2    H     H_    0.971239 0.073714 0.668034 0.398196
H3    H     H_    0.343455 0.946366 0.371435 0.160901
H4    H     H_    0.665236 0.045736 0.610759 0.157886
H5    H     H_    0.557554 0.090991 0.795677 0.175139
H6    H     H_    0.409720 0.056661 0.165698 0.188469
H7    H     H_    0.383036 0.362894 0.725951 0.158151
H8    H     H_    0.598330 0.669445 0.275742 0.152586
H9    H     H_    0.112574 0.829982 0.712378 0.213400
H10   H     H_    0.581070 0.638259 0.937614 0.260891
H11   H     H_    0.400723 0.391249 0.070905 0.255095
H12   H     H_    0.769455 0.607454 0.955825 0.398558
H13   H     H_    0.231078 0.388806 0.041425 0.362179
H14   H     H_    0.669788 0.246075 0.308781 0.151580
H15   H     H_    0.329674 0.753207 0.689826 0.159388
H16   H     H_    0.027837 0.927384 0.335392 0.399571
N1    N     N_2   0.460520 0.445420 0.137370 -0.340120
N2    N     N_2   0.539480 0.554580 0.862630 -0.332491
O1    O     O_R   0.508410 0.332340 0.577400 -0.473771
O2    O     O_2   0.747897 0.777565 0.807179 -0.182225
O3    O     O_3   0.770531 0.559681 0.849406 -0.461619
O4    O     O_2   0.255712 0.221764 0.195343 -0.246748
O5    O     O_2   0.102269 0.250636 0.092673 -0.204614
O6    O     O_3   0.230004 0.436763 0.147923 -0.484796
O7    O     O_2   0.746441 0.217779 0.157684 -0.420411
O8    O     O_2   0.252383 0.781664 0.840053 -0.448713
O9    O     O_2   0.059873 0.033452 0.140386 -0.135364
O10   O     O_2   0.162268 0.125313 0.383400 -0.272374
O11   O     O_3   0.001918 0.013150 0.361949 -0.486803
O12   O     O_R   0.491590 0.667660 0.422600 -0.503232
O13   O     O_2   0.837279 0.873571 0.614152 -0.262850
O14   O     O_2   0.938002 0.962692 0.858615 -0.133176
O15   O     O_3   0.997761 0.988406 0.640949 -0.489270
O16   O     O_2   0.338809 0.800230 0.440017 -0.488671
O17   O     O_2   0.664722 0.206189 0.565786 -0.476126
O18   O     O_2   0.601819 0.943039 0.845245 -0.385108
O19   O     O_2   0.468566 0.903796 0.184570 -0.484156
O20   O     O_2   0.436264 0.253631 0.828357 -0.542160
O21   O     O_2   0.671365 0.566091 0.132899 -0.493722
O22   O     O_R   0.481780 0.295500 0.332650 -0.506857
O23   O     O_R   0.518220 0.704500 0.667350 -0.450430
O24   O     O_R   0.383570 0.518390 0.622380 -0.569550
O25   O     O_R   0.616430 0.481610 0.377620 -0.531888
O26   O     O_R   0.356940 0.481550 0.377630 -0.396016
O27   O     O_R   0.643060 0.518450 0.622370 -0.395101
O28   O     O_2   0.900639 0.742737 0.905318 -0.211565
S1    S     S_3+6 0.813219 0.676524 0.798282 0.106189
S2    S     S_3+6 0.188682 0.320195 0.200826 0.094086
S3    S     S_3+6 0.065619 0.106407 0.304066 0.097239
S4    S     S_3+6 0.933577 0.892425 0.694928 0.102192

loop_
_geom_bond_atom_site_label_1
_geom_bond_atom_site_label_2
_ccdc_geom_bond_type
C25   C31   S    
C11   C18   A    
O14   S4    D    
Cu1   Cu2   S    
Cu1   O27   S    
H12   O3    S    
C17   C23   A    
H13   O6    S    
C18   H1    S    
C5    S1    S    
C11   C14   A    
Cu2   O12   S    
C26   O19   D    
C7    C9    A    
C20   O7    D    
C22   C33   S    
C5    C16   A    
C20   H14   S    
Cu2   N1    S    
Cu2   O22   S    
C4    O27   A    
C31   C33   D    
C2    C27   S    
C27   O20   D    
H11   N1    S    
C2    C34   S    
H2    O15   S    
C28   C34   S    
C10   C13   A    
O9    S3    D    
Cu1   N2    S    
C4    C7    S    
C3    O26   A    
C10   C21   S    
C6    S2    S    
C13   C19   A    
Cu1   O1    S    
C18   C23   A    
O5    S2    D    
C4    O25   A    
C3    C8    S    
C2    N2    D    
C25   H5    S    
C5    C7    A    
C6    C8    A    
C16   C29   A    
C12   O12   A    
Cu1   O23   S    
C24   C32   S    
O4    S2    D    
C9    C20   S    
C12   O23   A    
H10   N2    S    
O3    S1    S    
C29   S4    S    
C25   O18   D    
C9    C11   A    
C21   O8    D    
C26   C30   S    
C13   C15   A    
C12   C31   S    
Cu2   O26   S    
C14   C16   A    
C19   C29   A    
O10   S3    D    
C21   H15   S    
C26   H6    S    
O2    S1    D    
C15   C17   A    
C6    C17   A    
O13   S4    D    
C1    O22   A    
Cu2   O25   S    
C19   H9    S    
O11   S3    S    
Cu1   O24   S    
C32   C33   S    
C1    O1    A    
C30   C32   D    
O6    S2    S    
C28   O21   D    
C22   H3    S    
C1    C30   S    
C24   H4    S    
C28   H8    S    
O15   S4    S    
C27   H7    S    
C34   N1    D    
C8    C10   A    
O28   S1    D    
C23   S3    S    
C14   C15   A    
C3    O24   A    
C22   O16   D    
H16   O11   S    
C24   O17   D    
