data_mof_unit_62261.cif
_audit_creation_date              2012-12-10T16:35:06-0500
_audit_creation_method            fapswitch 2.2
_symmetry_space_group_name_H-M    P1
_symmetry_Int_Tables_number       1
_space_group_crystal_system       triclinic
_cell_length_a                    10.895459
_cell_length_b                    10.896442
_cell_length_c                    10.814582
_cell_angle_alpha                 80.704701
_cell_angle_beta                  97.983612
_cell_angle_gamma                 90.656691
_cell_volume                      1254.70698391

loop_
_atom_site_label
_atom_site_type_symbol
_atom_type_description
_atom_site_fract_x
_atom_site_fract_y
_atom_site_fract_z
_atom_type_partial_charge
C1    C     C_R   0.834141 0.473558 0.526403 0.516554
C2    C     C_2   0.464392 0.029561 0.528932 0.128570
C3    C     C_2   0.536883 0.966686 0.467050 0.147448
C4    C     C_2   0.030161 0.533138 0.468132 -0.112188
C5    C     C_3   0.407867 0.935184 0.731069 -0.305636
C6    C     C_3   0.682202 0.969305 0.310852 -0.288032
C7    C     C_3   0.021496 0.348034 0.646498 -0.251387
C8    C     C_3   0.927290 0.271739 0.718830 -0.444111
C9    C     C_2   0.965728 0.454635 0.544864 0.015629
C10   C     C_2   0.468195 0.538576 0.023873 -0.121314
C11   C     C_2   0.532069 0.460045 0.973979 -0.103578
C12   C     C_R   0.164188 0.526265 0.473891 0.505236
C13   C     C_R   0.523983 0.471351 0.839138 0.490816
C14   C     C_R   0.476505 0.527512 0.160340 0.505436
C15   C     C_R   0.523803 0.834213 0.476583 0.515734
C16   C     C_R   0.476916 0.163889 0.524069 0.541312
H1    H     H_    0.981395 0.605583 0.397990 0.086394
H2    H     H_    0.603165 0.958300 0.236776 0.158675
H3    H     H_    0.727440 0.877561 0.349161 0.136201
H4    H     H_    0.876427 0.331785 0.768867 0.159730
H5    H     H_    0.860461 0.226784 0.653222 0.156223
H6    H     H_    0.976661 0.197590 0.790380 0.136714
H7    H     H_    0.071014 0.282372 0.601398 0.178600
H8    H     H_    0.087857 0.386715 0.717628 0.174479
H9    H     H_    0.409838 0.611098 0.963599 0.097935
H10   H     H_    0.590325 0.386263 0.031902 0.123522
H11   H     H_    0.324872 0.898123 0.556314 0.253526
H12   H     H_    0.483608 0.864339 0.750554 0.147477
H13   H     H_    0.327639 0.895659 0.776471 0.143484
H14   H     H_    0.439715 0.018425 0.773283 0.169501
H15   H     H_    0.710420 0.047966 0.476395 0.252837
H16   H     H_    0.750829 0.031782 0.266748 0.143608
N1    N     N_2   0.370699 0.968574 0.596198 -0.528672
N2    N     N_2   0.639733 0.023494 0.411329 -0.501647
O1    O     O_3   0.500000 0.500000 0.500000 -0.441462
O2    O     O_R   0.597340 0.765700 0.560080 -0.548696
O3    O     O_R   0.548200 0.222430 0.451790 -0.532037
O4    O     O_R   0.441590 0.789440 0.401000 -0.553281
O5    O     O_R   0.412860 0.222430 0.587130 -0.529748
O6    O     O_R   0.441590 0.410520 0.779910 -0.541308
O7    O     O_R   0.548210 0.443940 0.230290 -0.537635
O8    O     O_R   0.787780 0.544200 0.591150 -0.542173
O9    O     O_R   0.222430 0.601350 0.398650 -0.533357
O10   O     O_R   0.767360 0.410530 0.454140 -0.543389
O11   O     O_R   0.222430 0.443930 0.556060 -0.557751
O12   O     O_R   0.597340 0.544190 0.781580 -0.537065
O13   O     O_R   0.412870 0.601350 0.208220 -0.537572
Zn1   Zn    Zn3+2 0.396020 0.396030 0.603970 0.922631
Zn2   Zn    Zn3+2 0.618560 0.587010 0.606350 0.918901
Zn3   Zn    Zn3+2 0.396030 0.620930 0.379070 0.931994
Zn4   Zn    Zn3+2 0.589390 0.396030 0.410610 0.932879

loop_
_geom_bond_atom_site_label_1
_geom_bond_atom_site_label_2
_ccdc_geom_bond_type
O1    Zn2   S    
C8    H6    S    
C15   O4    A    
C14   O13   A    
O4    Zn3   S    
O13   Zn3   S    
C5    H12   S    
C2    C16   S    
C1    O8    A    
C1    O10   A    
C6    H16   S    
C3    N2    S    
C16   O3    A    
O1    Zn3   S    
C2    C3    D    
H15   N2    S    
C1    C9    S    
C7    C8    S    
O9    Zn3   S    
H11   N1    S    
C6    H3    S    
C11   C13   S    
O12   Zn2   S    
C8    H4    S    
C14   O7    A    
C7    H7    S    
O1    Zn1   S    
C10   H9    S    
C8    H5    S    
C12   O9    A    
C5    H13   S    
O1    Zn4   S    
C13   O12   A    
O3    Zn4   S    
C6    H2    S    
C4    C12   S    
C10   C11   D    
C4    H1    S    
C16   O5    A    
C7    H8    S    
C15   O2    A    
C3    C15   S    
O10   Zn4   S    
O6    Zn1   S    
C5    H14   S    
C10   C14   S    
O11   Zn1   S    
C7    C9    S    
C12   O11   A    
C13   O6    A    
O8    Zn2   S    
C11   H10   S    
C4    C9    D    
O7    Zn4   S    
O2    Zn2   S    
C6    N2    S    
C2    N1    S    
O5    Zn1   S    
C5    N1    S    
