data_mof_unit_35882.cif
_audit_creation_date              2012-12-10T16:51:18-0500
_audit_creation_method            fapswitch 2.2
_symmetry_space_group_name_H-M    P1
_symmetry_Int_Tables_number       1
_space_group_crystal_system       triclinic
_cell_length_a                    27.775414
_cell_length_b                    8.746161
_cell_length_c                    7.420112
_cell_angle_alpha                 102.672382
_cell_angle_beta                  93.940873
_cell_angle_gamma                 92.54775
_cell_volume                      1751.20251382

loop_
_atom_site_label
_atom_site_type_symbol
_atom_type_description
_atom_site_fract_x
_atom_site_fract_y
_atom_site_fract_z
_atom_type_partial_charge
C1    C     C_R   0.497530 0.200443 0.454524 0.838400
C2    C     C_R   0.502470 0.799556 0.545476 0.838400
C3    C     C_R   0.102273 0.499039 0.516142 -0.043236
C4    C     C_R   0.897727 0.500958 0.483864 -0.043236
C5    C     C_R   0.125202 0.356210 0.481578 -0.020724
C6    C     C_R   0.874798 0.643787 0.518423 -0.020724
C7    C     C_R   0.097296 0.214606 0.441746 -0.150882
C8    C     C_R   0.902704 0.785391 0.558253 -0.150881
C9    C     C_R   0.130826 0.641398 0.557635 -0.021997
C10   C     C_R   0.869174 0.358598 0.442373 -0.021996
C11   C     C_R   0.354651 0.499437 0.509437 -0.038148
C12   C     C_R   0.645349 0.500561 0.490563 -0.038146
C13   C     C_R   0.971480 0.354955 0.456949 0.044133
C14   C     C_R   0.028520 0.645042 0.543060 0.044133
C15   C     C_R   0.977211 0.645527 0.533991 0.045311
C16   C     C_R   0.022789 0.354469 0.466015 0.045311
C17   C     C_R   0.949039 0.500479 0.491499 0.068315
C18   C     C_R   0.050961 0.499517 0.508508 0.068314
C19   C     C_R   0.941484 0.214346 0.413858 -0.214606
C20   C     C_R   0.058516 0.785651 0.586155 -0.214607
C21   C     C_R   0.891483 0.216544 0.407077 -0.142875
C22   C     C_R   0.108516 0.783453 0.592935 -0.142875
C23   C     C_R   0.407486 0.499837 0.502892 0.798565
C24   C     C_R   0.592514 0.500162 0.497108 0.798565
C25   C     C_R   0.047224 0.213342 0.434260 -0.212835
C26   C     C_R   0.952776 0.786654 0.565742 -0.212835
C27   C     C_2   0.490448 0.034718 0.434019 -0.262390
C28   C     C_2   0.509552 0.965282 0.565981 -0.262391
C29   C     C_R   0.175830 0.358412 0.486488 0.535768
C30   C     C_R   0.824169 0.641584 0.513510 0.535769
C31   C     C_R   0.181349 0.638318 0.561442 0.540119
C32   C     C_R   0.818651 0.361679 0.438564 0.540119
C33   C     C_R   0.283701 0.519987 0.685220 -0.097404
C34   C     C_R   0.716299 0.480020 0.314779 -0.097403
C35   C     C_R   0.333810 0.520537 0.680012 -0.204777
C36   C     C_R   0.666190 0.479471 0.319988 -0.204774
C37   C     C_R   0.324501 0.477525 0.344539 -0.198160
C38   C     C_R   0.675499 0.522462 0.655462 -0.198157
C39   C     C_R   0.274481 0.476526 0.350203 -0.101506
C40   C     C_R   0.725519 0.523461 0.649797 -0.101508
C41   C     C_R   0.254020 0.497829 0.520310 0.361893
C42   C     C_R   0.745980 0.502168 0.479690 0.361897
Cu1   Cu    Cu3+1 0.505380 0.517380 0.684380 0.982608
Cu2   Cu    Cu3+1 0.494620 0.482620 0.315620 0.982608
H1    H     H_    0.339481 0.460994 0.211131 0.160802
H2    H     H_    0.660519 0.538985 0.788869 0.160801
H3    H     H_    0.462409 0.378327 0.948420 0.227446
H4    H     H_    0.537591 0.621673 0.051580 0.227446
H5    H     H_    0.251542 0.459760 0.222509 0.136317
H6    H     H_    0.748458 0.540219 0.777491 0.136315
H7    H     H_    0.114073 0.103192 0.415302 0.185890
H8    H     H_    0.885927 0.896804 0.584695 0.185888
H9    H     H_    0.643859 0.462319 0.190792 0.165246
H10   H     H_    0.356141 0.537698 0.809207 0.165250
H11   H     H_    0.732095 0.463442 0.182944 0.135776
H12   H     H_    0.267905 0.536572 0.817056 0.135780
H13   H     H_    0.870310 0.105487 0.374097 0.192980
H14   H     H_    0.129690 0.894509 0.625918 0.192980
H15   H     H_    0.955181 0.099218 0.383941 0.137555
H16   H     H_    0.044819 0.900778 0.616076 0.137557
H17   H     H_    0.028971 0.098512 0.402696 0.134476
H18   H     H_    0.971029 0.901484 0.597303 0.134475
N1    N     N_R   0.202631 0.498165 0.524892 -0.473980
N2    N     N_R   0.797369 0.501831 0.475109 -0.473980
N3    N     N_2   0.486510 0.456430 0.038510 -0.206073
N4    N     N_2   0.513490 0.543570 0.961490 -0.206073
O1    O     O_R   0.503500 0.286120 0.619780 -0.582091
O2    O     O_R   0.496500 0.713880 0.380220 -0.582091
O3    O     O_R   0.494410 0.256780 0.308360 -0.572359
O4    O     O_R   0.505590 0.743220 0.691640 -0.572359
O5    O     O_R   0.434810 0.514700 0.655690 -0.589743
O6    O     O_R   0.565190 0.485300 0.344310 -0.589743
O7    O     O_R   0.425720 0.485350 0.344280 -0.583530
O8    O     O_R   0.574280 0.514650 0.655720 -0.583530
O9    O     O_2   0.198148 0.222216 0.452645 -0.514446
O10   O     O_2   0.801851 0.777779 0.547347 -0.514446
O11   O     O_2   0.790989 0.225908 0.400539 -0.510189
O12   O     O_2   0.209011 0.774089 0.599469 -0.510190
C43   C     C_1   0.458093 0.953026 0.276002 0.309966
N5    N     N_1   0.432374 0.888540 0.150294 -0.259622
C44   C     C_1   0.541907 0.046974 0.723998 0.309966
N6    N     N_1   0.567626 0.111460 0.849706 -0.259620

loop_
_geom_bond_atom_site_label_1
_geom_bond_atom_site_label_2
_ccdc_geom_bond_type
C29   N1    A    
C30   N2    A    
C8    C26   A    
C14   C18   A    
C34   C42   A    
C44   N6    T    
C39   C41   A    
C3    C18   A    
C19   C21   A    
C2    O2    A    
C9    C22   A    
C14   C20   A    
C11   C37   A    
C36   H9    S    
C1    O1    A    
C32   O11   S    
C12   C36   A    
C8    H8    S    
C33   H12   S    
C40   C42   A    
C34   H11   S    
C35   H10   S    
Cu2   N3    S    
C23   O7    A    
C5    C29   A    
C10   C21   A    
C13   C19   A    
C31   N1    A    
C32   N2    A    
C4    C6    A    
C5    C7    A    
C15   C26   A    
C6    C8    A    
C19   H15   S    
C1    O3    A    
Cu1   Cu2   S    
C21   H13   S    
C3    C9    A    
C23   O5    A    
C30   O10   S    
Cu2   O3    S    
C25   H17   S    
C4    C17   A    
Cu1   O1    S    
C39   H5    S    
C20   C22   A    
Cu1   O4    S    
Cu2   O2    S    
C20   H16   S    
C41   N1    S    
C4    C10   A    
C42   N2    S    
C24   O6    A    
C31   O12   S    
C16   C25   A    
C15   C17   A    
Cu1   O5    S    
C6    C30   A    
C28   C44   S    
C3    C5    A    
C22   H14   S    
C29   O9    S    
C12   C24   S    
C27   C43   S    
C7    C25   A    
C13   C17   A    
C33   C41   A    
C11   C35   A    
C26   H18   S    
C7    H7    S    
C37   C39   A    
C38   C40   A    
C24   O8    A    
Cu1   O8    S    
Cu1   N4    S    
C40   H6    S    
C11   C23   S    
C33   C35   A    
Cu2   O6    S    
C34   C36   A    
C12   C38   A    
Cu2   O7    S    
C38   H2    S    
C9    C31   A    
C43   N5    T    
C10   C32   A    
C16   C18   A    
N3    N4    D    
C13   C16   A    
C27   C28   D    
C1    C27   S    
C14   C15   A    
C2    C28   S    
H4    N4    S    
C2    O4    A    
C37   H1    S    
H3    N3    S    
