data_mof_unit_20016.cif
_audit_creation_date              2012-12-11T16:48:26-0500
_audit_creation_method            fapswitch 2.2
_symmetry_space_group_name_H-M    P1
_symmetry_Int_Tables_number       1
_space_group_crystal_system       triclinic
_cell_length_a                    17.315063
_cell_length_b                    24.385817
_cell_length_c                    14.947826
_cell_angle_alpha                 90.275168
_cell_angle_beta                  125.566978
_cell_angle_gamma                 89.246062
_cell_volume                      5133.60689049

loop_
_atom_site_label
_atom_site_type_symbol
_atom_type_description
_atom_site_fract_x
_atom_site_fract_y
_atom_site_fract_z
_atom_type_partial_charge
C1    C     C_R   0.354156 0.348487 0.908167 -0.138183
C2    C     C_R   0.538435 0.496571 0.711782 0.072703
C3    C     C_R   0.056546 0.846739 0.909485 -0.143670
C4    C     C_R   0.382359 0.316712 0.997925 0.093725
C5    C     C_R   0.616251 0.314843 0.002130 0.101255
C6    C     C_R   0.882355 0.816709 0.997933 0.093740
C7    C     C_R   0.116247 0.814841 0.002129 0.101265
C8    C     C_1   0.099969 0.636235 0.828324 0.064137
C9    C     C_1   0.888544 0.640371 0.166623 0.064094
C10   C     C_1   0.599968 0.136219 0.828367 0.064147
C11   C     C_1   0.388525 0.140358 0.166535 0.064065
C12   C     C_1   0.494917 0.227694 0.832200 0.053355
C13   C     C_R   0.063544 0.997583 0.365816 0.078764
C14   C     C_1   0.498610 0.226541 0.162252 0.054145
C15   C     C_1   0.994911 0.727699 0.832177 0.053348
C16   C     C_1   0.998622 0.726567 0.162380 0.054116
C17   C     C_3   0.937487 0.447663 0.242442 -0.950137
C18   C     C_3   0.132354 0.408087 0.457118 -0.997168
C19   C     C_3   0.437528 0.947820 0.242338 -0.950283
C20   C     C_3   0.632276 0.908072 0.457133 -0.997418
C21   C     C_R   0.038450 0.996571 0.711798 0.072698
C22   C     C_R   0.202586 0.500161 0.630807 0.165336
C23   C     C_R   0.825717 0.495866 0.314161 0.177721
C24   C     C_R   0.702580 0.000159 0.630812 0.165347
C25   C     C_R   0.325717 0.995866 0.314143 0.177834
C26   C     C_2   0.980973 0.468624 0.357639 0.306987
C27   C     C_2   0.084224 0.462653 0.442967 0.313513
C28   C     C_2   0.480974 0.968656 0.357615 0.307049
C29   C     C_R   0.645475 0.347418 0.091625 -0.145494
C30   C     C_2   0.584210 0.962659 0.442958 0.313578
C31   C     C_2   0.927836 0.492454 0.387162 -0.300325
C32   C     C_2   0.127060 0.504757 0.513285 -0.283981
C33   C     C_2   0.427830 0.992445 0.387166 -0.300424
C34   C     C_2   0.627051 0.004757 0.513294 -0.283957
C35   C     C_R   0.275409 0.694912 0.106837 0.146739
C36   C     C_R   0.711186 0.706952 0.895019 0.137818
C37   C     C_R   0.775439 0.194926 0.106846 0.146707
C38   C     C_R   0.211082 0.207031 0.895062 0.137785
C39   C     C_R   0.242066 0.666541 0.009305 -0.050013
C40   C     C_R   0.854158 0.848484 0.908173 -0.138215
C41   C     C_R   0.745392 0.678149 0.991991 -0.046737
C42   C     C_R   0.742078 0.166543 0.009319 -0.050015
C43   C     C_R   0.245347 0.178183 0.991993 -0.046722
C44   C     C_R   0.145224 0.673634 0.920541 -0.029597
C45   C     C_R   0.843960 0.679901 0.077451 -0.029117
C46   C     C_R   0.645231 0.173629 0.920565 -0.029601
C47   C     C_R   0.343929 0.179905 0.077393 -0.029096
C48   C     C_R   0.593986 0.219329 0.921440 -0.024538
C49   C     C_R   0.398179 0.222187 0.075543 -0.023291
C50   C     C_R   0.093977 0.719331 0.921421 -0.024542
C51   C     C_R   0.145472 0.847417 0.091625 -0.145559
C52   C     C_R   0.898207 0.722191 0.075618 -0.023287
C53   C     C_R   0.641992 0.256837 0.010124 -0.050476
C54   C     C_R   0.351576 0.260823 0.988682 -0.047258
C55   C     C_R   0.141976 0.756833 0.010117 -0.050476
C56   C     C_R   0.851619 0.760804 0.988705 -0.047302
C57   C     C_R   0.400531 0.621608 0.091574 -0.142046
C58   C     C_R   0.590375 0.632258 0.908720 -0.140442
C59   C     C_R   0.900533 0.121607 0.091577 -0.142038
C60   C     C_R   0.090366 0.132266 0.908721 -0.140405
C61   C     C_R   0.726208 0.239207 0.107124 0.157949
C62   C     C_R   0.311692 0.636837 0.001039 0.092960
C63   C     C_R   0.263452 0.247619 0.893306 0.150601
C64   C     C_R   0.226176 0.739192 0.107118 0.157935
C65   C     C_R   0.763556 0.747548 0.893277 0.150692
C66   C     C_3   0.814927 0.269870 0.188291 -0.499689
C67   C     C_3   0.177389 0.282994 0.818451 -0.486538
C68   C     C_3   0.314889 0.769841 0.188329 -0.499675
C69   C     C_3   0.677463 0.782877 0.818224 -0.486532
C70   C     C_3   0.369321 0.721286 0.188130 -0.500355
C71   C     C_3   0.619666 0.737960 0.819982 -0.506431
C72   C     C_3   0.869357 0.221314 0.188096 -0.500269
C73   C     C_R   0.677099 0.648525 0.999202 0.092291
C74   C     C_3   0.119590 0.238085 0.820228 -0.506432
C75   C     C_R   0.591164 0.444616 0.613485 0.160851
C76   C     C_R   0.598218 0.444889 0.526453 0.153384
C77   C     C_R   0.091164 0.944614 0.613486 0.160851
C78   C     C_R   0.098210 0.944887 0.526448 0.153378
C79   C     C_R   0.584958 0.494153 0.656499 0.036294
C80   C     C_R   0.599379 0.494740 0.481064 0.032358
C81   C     C_R   0.084970 0.994151 0.656511 0.036290
C82   C     C_R   0.099375 0.994739 0.481063 0.032358
C83   C     C_R   0.612640 0.542430 0.631692 -0.197584
C84   C     C_R   0.811695 0.136835 0.001044 0.092960
C85   C     C_R   0.619714 0.542764 0.543230 -0.197148
C86   C     C_R   0.112655 0.042427 0.631705 -0.197580
C87   C     C_R   0.119719 0.042762 0.543235 -0.197147
C88   C     C_3   0.534629 0.396328 0.474388 -0.511103
C89   C     C_3   0.527073 0.396089 0.569763 -0.515819
C90   C     C_3   0.034615 0.896329 0.474381 -0.511091
C91   C     C_3   0.027066 0.896089 0.569762 -0.515814
C92   C     C_R   0.548192 0.452831 0.301525 -0.144018
C93   C     C_R   0.515991 0.451943 0.748232 -0.145766
C94   C     C_R   0.048189 0.952830 0.301523 -0.144015
C95   C     C_R   0.177084 0.148535 0.999206 0.092281
C96   C     C_R   0.015998 0.951943 0.748240 -0.145755
C97   C     C_R   0.247686 0.545233 0.695529 -0.152810
C98   C     C_R   0.770025 0.543190 0.278387 -0.140875
C99   C     C_R   0.747680 0.045232 0.695532 -0.152833
C100  C     C_R   0.270026 0.043191 0.278378 -0.140841
C101  C     C_R   0.548497 0.544015 0.304038 -0.142024
C102  C     C_R   0.506695 0.543275 0.735259 -0.122477
C103  C     C_R   0.048496 0.044015 0.304038 -0.142026
C104  C     C_R   0.006711 0.043275 0.735275 -0.122462
C105  C     C_R   0.247075 0.454119 0.696480 -0.122382
C106  C     C_R   0.563548 0.497584 0.365818 0.078767
C107  C     C_R   0.767345 0.451311 0.269794 -0.124226
C108  C     C_R   0.747079 0.954117 0.696480 -0.122346
C109  C     C_R   0.267345 0.951311 0.269783 -0.124283
C110  C     C_R   0.309191 0.624980 0.907859 -0.126393
C111  C     C_R   0.683457 0.632270 0.092022 -0.125592
C112  C     C_R   0.809190 0.124979 0.907861 -0.126395
C113  C     C_R   0.183451 0.132275 0.092027 -0.125613
C114  C     C_R   0.442294 0.347756 0.091155 -0.128671
C115  C     C_R   0.556548 0.346740 0.909485 -0.143673
C116  C     C_R   0.942288 0.847758 0.091158 -0.128646
H1    H     H_    0.318650 0.335045 0.823994 0.105178
H2    H     H_    0.175901 0.321340 0.858069 0.203942
H3    H     H_    0.323649 0.807443 0.153370 0.200398
H4    H     H_    0.675844 0.821247 0.857702 0.203911
H5    H     H_    0.825164 0.275566 0.268380 0.189026
H6    H     H_    0.163197 0.288580 0.736302 0.186662
H7    H     H_    0.325094 0.775520 0.268399 0.189053
H8    H     H_    0.663379 0.788414 0.736111 0.186653
H9    H     H_    0.409253 0.731164 0.153083 0.201902
H10   H     H_    0.584947 0.750297 0.860578 0.202221
H11   H     H_    0.909262 0.231185 0.153008 0.201887
H12   H     H_    0.679629 0.333651 0.175423 0.103188
H13   H     H_    0.085002 0.250398 0.860977 0.202253
H14   H     H_    0.411040 0.699333 0.268424 0.187630
H15   H     H_    0.572472 0.717946 0.738485 0.185355
H16   H     H_    0.911106 0.199376 0.268411 0.187608
H17   H     H_    0.072282 0.218123 0.738704 0.185369
H18   H     H_    0.617070 0.581003 0.670464 0.128647
H19   H     H_    0.628745 0.581669 0.516178 0.127377
H20   H     H_    0.117094 0.080999 0.670483 0.128653
H21   H     H_    0.128753 0.081666 0.516185 0.127376
H22   H     H_    0.465702 0.406138 0.395010 0.205130
H23   H     H_    0.818678 0.835038 0.824007 0.105197
H24   H     H_    0.561009 0.359322 0.623353 0.193021
H25   H     H_    0.965687 0.906143 0.395007 0.205132
H26   H     H_    0.061000 0.859320 0.623348 0.193022
H27   H     H_    0.572789 0.359642 0.473107 0.191343
H28   H     H_    0.453951 0.405844 0.544375 0.202367
H29   H     H_    0.072768 0.859642 0.473093 0.191347
H30   H     H_    0.953948 0.905848 0.544381 0.202367
H31   H     H_    0.426123 0.623076 0.176649 0.112995
H32   H     H_    0.558689 0.642897 0.824824 0.099566
H33   H     H_    0.926126 0.123076 0.176652 0.112994
H34   H     H_    0.179622 0.833649 0.175421 0.103207
H35   H     H_    0.058675 0.142917 0.824826 0.099531
H36   H     H_    0.569104 0.410820 0.328165 0.101518
H37   H     H_    0.531060 0.409311 0.745069 0.109439
H38   H     H_    0.069100 0.910819 0.328164 0.101519
H39   H     H_    0.031067 0.909311 0.745077 0.109438
H40   H     H_    0.238547 0.587021 0.666574 0.098680
H41   H     H_    0.794147 0.584310 0.306976 0.101275
H42   H     H_    0.738536 0.087020 0.666577 0.098677
H43   H     H_    0.294148 0.084309 0.306973 0.101261
H44   H     H_    0.567421 0.585557 0.333996 0.087288
H45   H     H_    0.959840 0.508726 0.469238 0.124975
H46   H     H_    0.502421 0.583857 0.704998 0.084907
H47   H     H_    0.067420 0.085557 0.333998 0.087285
H48   H     H_    0.002452 0.083859 0.705027 0.084912
H49   H     H_    0.236250 0.411711 0.672008 0.108364
H50   H     H_    0.787303 0.408387 0.285567 0.101135
H51   H     H_    0.736273 0.911711 0.672008 0.108367
H52   H     H_    0.287306 0.908387 0.285553 0.101112
H53   H     H_    0.251482 0.632109 0.822813 0.109006
H54   H     H_    0.737427 0.643316 0.175839 0.101020
H55   H     H_    0.751479 0.132110 0.822816 0.109000
H56   H     H_    0.092681 0.544980 0.487995 0.119914
H57   H     H_    0.237418 0.143326 0.175843 0.101017
H58   H     H_    0.484158 0.334291 0.175862 0.102638
H59   H     H_    0.512487 0.333055 0.825256 0.102943
H60   H     H_    0.984156 0.834298 0.175867 0.102646
H61   H     H_    0.012484 0.833056 0.825255 0.102942
H62   H     H_    0.992604 0.439834 0.227910 0.241021
H63   H     H_    0.899064 0.409018 0.229201 0.239516
H64   H     H_    0.887482 0.478791 0.180955 0.255032
H65   H     H_    0.108451 0.390643 0.376380 0.252955
H66   H     H_    0.210442 0.412616 0.503981 0.247120
H67   H     H_    0.459822 0.008648 0.469294 0.125000
H68   H     H_    0.114368 0.378624 0.498592 0.239580
H69   H     H_    0.492677 0.939896 0.227909 0.241037
H70   H     H_    0.398826 0.909260 0.228773 0.239572
H71   H     H_    0.387789 0.979066 0.180998 0.255066
H72   H     H_    0.608268 0.890582 0.376403 0.253009
H73   H     H_    0.710358 0.912577 0.503893 0.247159
H74   H     H_    0.614338 0.878659 0.498714 0.239598
H75   H     H_    0.592681 0.044982 0.488006 0.119923
H76   H     H_    0.823657 0.307466 0.153283 0.200391
N1    N     N_R   0.395410 0.396350 0.944340 -0.040866
N2    N     N_R   0.474920 0.471030 0.794350 -0.040037
N3    N     N_R   0.025080 0.971030 0.205650 -0.038638
N4    N     N_R   0.974920 0.971030 0.794350 -0.040039
N5    N     N_R   0.320260 0.527820 0.794570 -0.042031
N6    N     N_R   0.679740 0.527820 0.205430 -0.043653
N7    N     N_R   0.820260 0.027820 0.794570 -0.042029
N8    N     N_R   0.179740 0.027820 0.205430 -0.043653
N9    N     N_R   0.524590 0.527840 0.205200 -0.038983
N10   N     N_R   0.475410 0.527840 0.794800 -0.038700
N11   N     N_R   0.024590 0.027840 0.205200 -0.038984
N12   N     N_R   0.604590 0.396350 0.055660 -0.038988
N13   N     N_R   0.975410 0.027840 0.794800 -0.038701
N14   N     N_R   0.320750 0.471000 0.795020 -0.046665
N15   N     N_R   0.679250 0.471000 0.204980 -0.046526
N16   N     N_R   0.820750 0.971000 0.795020 -0.046670
N17   N     N_R   0.179250 0.971000 0.204980 -0.046516
N18   N     N_R   0.393620 0.602490 0.942710 -0.045170
N19   N     N_R   0.606380 0.602490 0.057290 -0.042843
N20   N     N_R   0.893620 0.102490 0.942710 -0.045170
N21   N     N_R   0.106380 0.102490 0.057290 -0.042839
N22   N     N_R   0.451720 0.396350 0.057510 -0.041301
N23   N     N_R   0.895410 0.896350 0.944340 -0.040865
N24   N     N_R   0.548280 0.396350 0.942490 -0.039889
N25   N     N_R   0.951720 0.896350 0.057510 -0.041301
N26   N     N_R   0.048280 0.896350 0.942490 -0.039886
N27   N     N_1   0.063615 0.606332 0.754602 -0.094685
N28   N     N_1   0.924560 0.608776 0.237879 -0.094571
N29   N     N_1   0.563610 0.106303 0.754663 -0.094677
N30   N     N_1   0.424550 0.108750 0.237771 -0.094582
N31   N     N_1   0.415579 0.234168 0.761005 -0.103882
N32   N     N_1   0.578957 0.229900 0.231367 -0.104243
N33   N     N_1   0.915576 0.734175 0.760979 -0.103886
N34   N     N_R   0.104590 0.896350 0.055660 -0.038981
N35   N     N_1   0.078959 0.729942 0.231537 -0.104253
N36   N     N_R   0.449930 0.602500 0.055880 -0.044497
N37   N     N_R   0.550070 0.602500 0.944120 -0.041884
N38   N     N_R   0.949930 0.102500 0.055880 -0.044501
N39   N     N_R   0.050070 0.102500 0.944120 -0.041884
N40   N     N_R   0.525080 0.471030 0.205650 -0.038638
Ni1   Ni    Ni4+2 0.435420 0.434270 0.870230 0.208223
Ni2   Ni    Ni4+2 0.564580 0.434270 0.129770 0.207446
Ni3   Ni    Ni4+2 0.935420 0.934270 0.870230 0.208227
Ni4   Ni    Ni4+2 0.064580 0.934270 0.129770 0.207459
Ni5   Ni    Ni4+2 0.563430 0.564580 0.128740 0.210866
Ni6   Ni    Ni4+2 0.436570 0.564580 0.871260 0.212614
Ni7   Ni    Ni4+2 0.063430 0.064580 0.128740 0.210866
Ni8   Ni    Ni4+2 0.936570 0.064580 0.871260 0.212616

loop_
_geom_bond_atom_site_label_1
_geom_bond_atom_site_label_2
_ccdc_geom_bond_type
C17   H62   S    
C31   H45   S    
C16   N35   T    
C9    C45   S    
C74   H17   S    
C60   N39   A    
C114  N22   A    
C11   C47   S    
C93   N2    A    
C113  N21   A    
C12   C48   S    
C64   C68   S    
N7    Ni8   S    
C22   C97   A    
N5    N14   A    
C57   C62   A    
C47   C49   A    
C20   C30   S    
C77   C78   A    
C78   C90   S    
N8    N17   A    
C26   C27   S    
C84   C112  A    
C22   C32   S    
C15   N33   T    
N14   Ni1   S    
C3    N26   A    
C17   C26   S    
C112  N20   A    
C14   N32   T    
C34   H75   S    
C109  H52   S    
N4    Ni3   S    
N26   Ni3   S    
C90   H29   S    
C3    C7    A    
N23   N25   A    
C68   H3    S    
C20   H74   S    
C58   H32   S    
C97   H40   S    
C96   H39   S    
N3    N11   A    
C54   C63   A    
C92   N40   A    
C44   C50   A    
C56   C65   A    
C24   C99   A    
C40   H23   S    
C80   C106  S    
C70   H14   S    
N34   Ni4   S    
C11   N30   T    
C42   C46   A    
C15   C50   S    
C37   C42   A    
C69   C71   S    
C110  H53   S    
C83   H18   S    
N12   Ni2   S    
C2    C79   S    
C101  H44   S    
C10   N29   T    
C19   H71   S    
C57   N36   A    
C53   C61   A    
C61   C66   S    
N9    N40   A    
C66   C72   S    
C35   C70   S    
C66   H76   S    
C10   C46   S    
C43   C95   S    
N19   Ni5   S    
C71   H10   S    
C72   H16   S    
C35   C64   A    
C24   C108  A    
C7    C55   S    
C13   C103  A    
C49   C54   A    
C76   C88   S    
C88   H27   S    
C107  N15   A    
C81   C86   A    
N21   N39   A    
C36   C71   S    
C108  N16   A    
C91   H26   S    
C17   H63   S    
C18   H68   S    
C32   H56   S    
C107  H50   S    
C26   C31   D    
C29   N12   A    
C5    C115  A    
N24   Ni1   S    
C21   C104  A    
C36   C41   A    
C110  N18   A    
C115  H59   S    
C87   H21   S    
C109  N17   A    
N25   Ni4   S    
N1    Ni1   S    
C73   C111  A    
C5    C29   A    
C59   H33   S    
N2    N10   A    
C48   C53   A    
C63   C67   S    
C30   C34   D    
C72   H11   S    
C94   N3    A    
C97   N5    A    
C105  N14   A    
C42   C84   S    
C59   C84   A    
C51   H34   S    
C16   C52   S    
C20   H73   S    
C98   N6    A    
C36   C65   A    
N37   Ni6   S    
C18   H65   S    
C86   H20   S    
C41   C73   S    
C13   C82   S    
C24   C34   S    
C38   C43   A    
N39   Ni8   S    
C60   H35   S    
C23   C31   S    
N13   Ni8   S    
C35   C39   A    
C75   C76   A    
N1    N22   A    
C12   N31   T    
C33   H67   S    
C80   C85   A    
N6    Ni5   S    
N6    N15   A    
N4    N13   A    
N20   N38   A    
N5    Ni6   S    
C78   C82   A    
C25   C100  A    
C62   C110  A    
C98   H41   S    
C77   C81   A    
C102  H46   S    
C89   H24   S    
C23   C107  A    
C55   C64   A    
C51   N34   A    
N40   Ni2   S    
C66   H5    S    
N23   Ni3   S    
C67   C74   S    
C1    H1    S    
C104  N13   A    
C19   C28   S    
N16   Ni3   S    
C6    C116  A    
N20   Ni8   S    
C85   H19   S    
C100  N8    A    
C116  H60   S    
C92   C106  A    
C83   C85   A    
C108  H51   S    
C21   C81   S    
C28   C33   D    
C57   H31   S    
C6    C40   A    
N3    Ni4   S    
C29   H12   S    
N2    Ni1   S    
C90   C91   S    
C99   H42   S    
C89   H28   S    
C67   H6    S    
N18   Ni6   S    
C101  C106  A    
C14   C49   S    
C17   H64   S    
C113  H57   S    
C38   C63   A    
C38   C74   S    
C5    C53   S    
C20   H72   S    
C39   C62   S    
N12   N24   A    
C77   C91   S    
C41   C45   A    
N19   N37   A    
C4    C54   S    
C27   C32   D    
C86   C87   A    
N18   N36   A    
C46   C48   A    
C2    C93   A    
C18   C27   S    
C76   C80   A    
C6    C56   S    
N21   Ni7   S    
N10   Ni6   S    
C37   C61   A    
N9    Ni5   S    
C39   C44   A    
C21   C96   A    
C25   C109  A    
C58   C73   A    
C22   C105  A    
C88   H22   S    
C69   H4    S    
C103  H47   S    
C50   C55   A    
C69   H8    S    
C13   C94   A    
C111  H54   S    
C45   C52   A    
C1    C4    A    
C28   C30   S    
C3    H61   S    
N8    Ni7   S    
C7    C51   A    
N36   Ni5   S    
C19   H70   S    
C58   N37   A    
C68   H7    S    
C19   H69   S    
C79   C83   A    
C94   H38   S    
C100  H43   S    
C104  H48   S    
N38   Ni7   S    
C43   C47   A    
C95   C113  A    
C18   H66   S    
C65   C69   S    
C40   N23   A    
C93   H37   S    
N7    N16   A    
C105  H49   S    
C115  N24   A    
C75   C89   S    
C70   H9    S    
C8    C44   S    
C67   H2    S    
C103  N11   A    
N17   Ni4   S    
C90   H25   S    
C4    C114  A    
C71   H15   S    
C112  H55   S    
C60   C95   A    
C52   C56   A    
C92   H36   S    
C114  H58   S    
C23   C98   A    
C96   N4    A    
C88   C89   S    
N15   Ni2   S    
C102  N10   A    
C68   C70   S    
C9    N28   T    
C74   H13   S    
C37   C72   S    
C99   N7    A    
C8    N27   T    
C2    C102  A    
C1    N1    A    
N22   Ni2   S    
C101  N9    A    
C116  N25   A    
C59   N38   A    
C75   C79   A    
N26   N34   A    
C91   H30   S    
C82   C87   A    
C111  N19   A    
C25   C33   S    
N11   Ni7   S    
