data_mof_unit_49961.cif
_audit_creation_date              2012-12-10T17:54:24-0500
_audit_creation_method            fapswitch 2.2
_symmetry_space_group_name_H-M    P1
_symmetry_Int_Tables_number       1
_space_group_crystal_system       triclinic
_cell_length_a                    27.478143
_cell_length_b                    10.648243
_cell_length_c                    9.989212
_cell_angle_alpha                 88.479808
_cell_angle_beta                  90.311272
_cell_angle_gamma                 93.665966
_cell_volume                      2915.75520697

loop_
_atom_site_label
_atom_site_type_symbol
_atom_type_description
_atom_site_fract_x
_atom_site_fract_y
_atom_site_fract_z
_atom_type_partial_charge
C1    C     C_R   0.501902 0.260994 0.502255 1.078897
C2    C     C_R   0.271254 0.454262 0.436730 0.524965
C3    C     C_R   0.254633 0.557622 0.502496 -0.045563
C4    C     C_R   0.103921 0.603508 0.513974 -0.060538
C5    C     C_R   0.128676 0.562353 0.629178 -0.132618
C6    C     C_R   0.102356 0.526103 0.744169 -0.216184
C7    C     C_R   0.129812 0.624849 0.393638 -0.073219
C8    C     C_R   0.354001 0.518847 0.500949 -0.293012
C9    C     C_R   0.646933 0.524938 0.501923 -0.404078
C10   C     C_R   0.976661 0.610360 0.644544 -0.039940
C11   C     C_R   0.977714 0.674853 0.405460 0.070720
C12   C     C_R   0.406189 0.501335 0.499935 1.140913
C13   C     C_R   0.951764 0.639636 0.524327 -0.068067
C14   C     C_R   0.949968 0.607164 0.766123 0.408990
C15   C     C_R   0.898877 0.589210 0.762170 0.576613
C16   C     C_R   0.874065 0.597104 0.639504 -0.225747
C17   C     C_R   0.900310 0.635222 0.523404 -0.145152
C18   C     C_R   0.875075 0.667894 0.406139 -0.052256
C19   C     C_R   0.824166 0.649934 0.402980 0.693124
C20   C     C_R   0.823363 0.574357 0.630104 0.721162
C21   C     C_R   0.727179 0.484358 0.420117 0.588040
C22   C     C_R   0.676232 0.459441 0.416138 0.291017
C23   C     C_R   0.500464 0.739295 0.497778 0.961576
C24   C     C_R   0.668132 0.615325 0.588014 0.551925
C25   C     C_R   0.718119 0.641899 0.588206 0.595244
C26   C     C_R   0.747863 0.575772 0.505827 -0.153186
C27   C     C_R   0.027286 0.591813 0.639618 -0.017586
C28   C     C_R   0.053113 0.618827 0.518024 -0.070821
C29   C     C_R   0.028223 0.653876 0.398755 0.043438
C30   C     C_R   0.052231 0.534009 0.747311 0.691563
C31   C     C_R   0.104522 0.647982 0.275145 -0.232660
C32   C     C_R   0.952147 0.735484 0.300548 0.508211
C33   C     C_R   0.901014 0.723688 0.297898 -0.217755
C34   C     C_R   0.593923 0.504305 0.500274 1.157185
C35   C     C_R   0.053711 0.652829 0.275009 0.512931
C36   C     C_R   0.594370 0.136914 0.541625 0.324554
C37   C     C_R   0.638405 0.079746 0.519290 0.428627
C38   C     C_R   0.637634 0.955810 0.475072 0.326246
C39   C     C_R   0.593069 0.886717 0.463240 0.593162
C40   C     C_R   0.548570 0.941832 0.488496 -0.195487
C41   C     C_R   0.549074 0.070936 0.512740 -0.200270
C42   C     C_R   0.503767 0.128076 0.508946 -0.047972
C43   C     C_R   0.459028 0.058302 0.500809 0.475490
C44   C     C_R   0.459168 0.928855 0.496561 -0.323504
C45   C     C_R   0.178956 0.549264 0.623508 0.688844
C46   C     C_R   0.503198 0.872228 0.491214 -0.017961
C47   C     C_R   0.427364 0.347130 0.139806 0.657411
C48   C     C_R   0.389164 0.287051 0.071250 -0.401869
C49   C     C_R   0.389322 0.286695 0.934784 0.534122
C50   C     C_R   0.427866 0.346318 0.864941 0.598927
C51   C     C_R   0.464685 0.425156 0.929001 -0.245584
C52   C     C_R   0.464563 0.425460 0.073466 -0.170406
C53   C     C_R   0.533209 0.572492 0.070712 0.399607
C54   C     C_R   0.532966 0.572204 0.926838 0.584285
C55   C     C_R   0.180252 0.612318 0.392643 0.674244
C56   C     C_R   0.287256 0.641118 0.568406 0.554785
C57   C     C_R   0.337260 0.621867 0.569101 0.212663
C58   C     C_R   0.321239 0.433997 0.435471 0.291899
H1    H     H_    0.123788 0.653268 0.180595 0.200269
H2    H     H_    0.881650 0.762082 0.212997 0.206134
H3    H     H_    0.425013 0.872054 0.495386 0.174579
H4    H     H_    0.361008 0.230992 0.125187 0.251520
H5    H     H_    0.120055 0.484124 0.829988 0.226489
N1    N     N_R   0.203593 0.575304 0.506673 -0.301544
N2    N     N_R   0.799671 0.599385 0.512459 -0.315804
N3    N     N_R   0.499540 0.498800 0.142780 -0.119867
N4    N     N_R   0.499520 0.498720 0.857170 -0.134294
O1    O     O_R   0.500000 0.316780 0.614690 -0.534923
O2    O     O_2   0.797891 0.525708 0.736557 -0.398194
O3    O     O_2   0.205788 0.635956 0.278690 -0.500133
O4    O     O_2   0.799318 0.682167 0.291675 -0.457739
O5    O     O_R   0.500000 0.316750 0.385360 -0.573419
O6    O     O_R   0.428760 0.500030 0.614650 -0.551294
O7    O     O_R   0.428750 0.500010 0.385320 -0.582444
O8    O     O_R   0.500000 0.683250 0.614640 -0.573135
O9    O     O_R   0.500000 0.683220 0.385310 -0.584083
O10   O     O_R   0.571250 0.499990 0.614680 -0.550250
O11   O     O_R   0.571240 0.499970 0.385350 -0.524871
O12   O     O_2   0.203021 0.509131 0.733156 -0.489284
Zn1   Zn    Zn3+2 0.500000 0.500020 0.653130 1.146074
Zn2   Zn    Zn3+2 0.500000 0.499980 0.346870 1.121832
O13   O     O_3   0.338809 0.330494 0.376081 -0.652537
H6    H     H_    0.311416 0.279158 0.336062 0.392997
F1    F     F_    0.269958 0.740499 0.631516 -0.608074
O14   O     O_3   0.977144 0.815702 0.209905 -0.693556
H7    H     H_    0.953782 0.851292 0.145467 0.354487
F2    F     F_    0.640184 0.681796 0.668462 -0.530099
F3    F     F_    0.737844 0.732805 0.668505 -0.546576
O15   O     O_3   0.028304 0.640393 0.155755 -0.671702
H8    H     H_    0.051468 0.638218 0.080169 0.375569
O16   O     O_3   0.415942 0.118912 0.499603 -0.649450
H9    H     H_    0.388013 0.055539 0.493269 0.365674
O17   O     O_3   0.594728 0.251808 0.601722 -0.759760
H10   H     H_    0.628213 0.277814 0.631579 0.387036
F4    F     F_    0.681826 0.144952 0.540149 -0.622744
F5    F     F_    0.238438 0.372854 0.376677 -0.610746
O18   O     O_3   0.679681 0.897915 0.445413 -0.657054
H11   H     H_    0.708333 0.957849 0.457640 0.409190
F6    F     F_    0.593813 0.767942 0.418730 -0.616309
O19   O     O_3   0.566849 0.647037 0.140700 -0.652152
H12   H     H_    0.588908 0.694820 0.076868 0.388949
F7    F     F_    0.427666 0.312954 0.268660 -0.573762
F8    F     F_    0.354101 0.216852 0.869364 -0.555277
F9    F     F_    0.429107 0.311275 0.738192 -0.578733
F10   F     F_    0.566149 0.646814 0.856838 -0.587419
O20   O     O_3   0.654358 0.370485 0.333056 -0.686076
H13   H     H_    0.679674 0.332412 0.279982 0.410049
F11   F     F_    0.756790 0.419243 0.342873 -0.582257
F12   F     F_    0.873658 0.571806 0.878629 -0.581031
O21   O     O_3   0.973839 0.634949 0.884995 -0.667746
H14   H     H_    0.950056 0.636058 0.959038 0.402877
F13   F     F_    0.028370 0.469499 0.848716 -0.601647
O22   O     O_3   0.370608 0.702231 0.633849 -0.751576
H15   H     H_    0.353426 0.769715 0.676315 0.403890

loop_
_geom_bond_atom_site_label_1
_geom_bond_atom_site_label_2
_ccdc_geom_bond_type
C10   C27   A    
O1    Zn1   S    
C21   C26   A    
C50   F9    S    
O17   H10   S    
C12   O7    A    
C41   C42   A    
C15   F12   S    
C19   O4    S    
C7    C55   A    
C23   O9    A    
O18   H11   S    
C3    N1    S    
C40   C46   A    
C36   C37   A    
C58   O13   S    
C34   O10   A    
O14   H7    S    
C5    C6    A    
C9    C22   A    
O20   H13   S    
C15   C16   A    
C1    O1    A    
C56   C57   A    
C37   F4    S    
C18   C19   A    
C31   H1    S    
O21   H14   S    
C8    C58   A    
C48   H4    S    
C36   O17   S    
C16   C17   A    
C18   C33   A    
O8    Zn1   S    
O5    Zn2   S    
C16   C20   A    
C23   C46   S    
C21   C22   A    
C27   C30   A    
C36   C41   A    
C38   O18   S    
C4    C28   A    
C44   C46   A    
C56   F1    S    
C53   O19   S    
C1    O5    A    
C7    C31   A    
C51   C52   A    
C21   F11   S    
C20   N2    A    
C24   C25   A    
C10   C14   A    
O16   H9    S    
C57   O22   S    
C54   N4    A    
C50   C51   A    
C25   C26   A    
C22   O20   S    
C5    C45   A    
C25   F3    S    
C43   O16   S    
C30   F13   S    
C6    H5    S    
C43   C44   A    
C37   C38   A    
C8    C57   A    
C3    C56   A    
C39   F6    S    
C47   C48   A    
C8    C12   S    
C55   N1    A    
C17   C18   A    
C45   O12   S    
C51   N4    A    
C53   N3    A    
C35   O15   S    
C40   C41   A    
C6    C30   A    
C11   C32   A    
O13   H6    S    
C33   H2    S    
C9    C34   S    
C31   C35   A    
C20   O2    S    
C42   C43   A    
O7    Zn2   S    
C39   C40   A    
C52   N3    A    
O22   H15   S    
O10   Zn1   S    
C14   O21   S    
C4    C7    A    
C28   C29   A    
C54   F10   S    
C26   N2    S    
N4    Zn1   S    
C23   O8    A    
C4    C5    A    
C10   C13   A    
O9    Zn2   S    
C49   F8    S    
C2    C58   A    
C9    C24   A    
C53   C54   A    
C47   C52   A    
C44   H3    S    
C29   C35   A    
C45   N1    A    
C13   C17   A    
C32   C33   A    
C2    F5    S    
C2    C3    A    
C34   O11   A    
N3    Zn2   S    
C11   C13   A    
O11   Zn2   S    
C38   C39   A    
C48   C49   A    
C32   O14   S    
O19   H12   S    
O6    Zn1   S    
C19   N2    A    
C24   F2    S    
C55   O3    S    
C1    C42   S    
C11   C29   A    
C49   C50   A    
C27   C28   A    
C47   F7    S    
C14   C15   A    
O15   H8    S    
C12   O6    A    
