data_mof_unit_9663.cif
_audit_creation_date              2012-12-11T15:48:50-0500
_audit_creation_method            fapswitch 2.2
_symmetry_space_group_name_H-M    P1
_symmetry_Int_Tables_number       1
_space_group_crystal_system       triclinic
_cell_length_a                    10.930771
_cell_length_b                    10.957307
_cell_length_c                    18.737154
_cell_angle_alpha                 90.605235
_cell_angle_beta                  90.310698
_cell_angle_gamma                 60.450152
_cell_volume                      1952.16622558

loop_
_atom_site_label
_atom_site_type_symbol
_atom_type_description
_atom_site_fract_x
_atom_site_fract_y
_atom_site_fract_z
_atom_type_partial_charge
C1    C     C_R   0.241895 0.644597 0.610927 0.575676
C2    C     C_R   0.576685 0.143698 0.709965 -0.178693
C3    C     C_R   0.573642 0.150484 0.783171 -0.174856
C4    C     C_R   0.654926 0.623414 0.600085 0.540841
C5    C     C_3   0.938783 0.082462 0.784505 -0.177351
C6    C     C_3   0.931253 0.095726 0.703928 0.238313
C7    C     C_R   0.673661 0.165208 0.672167 0.078991
C8    C     C_R   0.186109 0.664260 0.836512 0.017110
C9    C     C_R   0.155642 0.576041 0.794823 -0.041714
C10   C     C_R   0.164012 0.574449 0.720844 -0.017354
C11   C     C_R   0.231981 0.752444 0.728051 -0.071028
C12   C     C_3   0.654457 0.563755 0.799608 -0.251593
C13   C     C_R   0.228088 0.750731 0.802104 0.299936
C14   C     C_3   0.226561 0.420097 0.797760 -0.280800
C15   C     C_3   0.232316 0.418951 0.717079 -0.270484
C16   C     C_R   0.630222 0.225615 0.601756 0.560379
C17   C     C_R   0.202794 0.662114 0.686158 0.018999
C18   C     C_R   0.645140 0.666917 0.165083 0.019222
C19   C     C_R   0.714066 0.535342 0.197828 0.027065
C20   C     C_R   0.718533 0.526585 0.271056 0.038924
C21   C     C_R   0.557483 0.773163 0.282567 -0.175096
C22   C     C_R   0.555402 0.784009 0.207799 -0.165762
C23   C     C_3   0.699695 0.674488 0.811697 0.043923
C24   C     C_3   0.859770 0.411681 0.191082 -0.271844
C25   C     C_3   0.867477 0.410658 0.271840 -0.268020
C26   C     C_R   0.648180 0.644647 0.315186 0.019610
C27   C     C_R   0.642747 0.187228 0.169074 0.023153
C28   C     C_R   0.217440 0.652093 0.402565 0.547064
C29   C     C_R   0.506259 0.261937 0.196652 0.027856
C30   C     C_R   0.486432 0.294807 0.268775 0.012842
C31   C     C_R   0.737473 0.186965 0.285523 -0.154573
C32   C     C_R   0.756946 0.158647 0.213501 -0.172059
C33   C     C_3   0.391374 0.225551 0.194184 -0.267362
C34   C     C_3   0.671359 0.648996 0.675413 0.057581
C35   C     C_3   0.374791 0.253981 0.273443 -0.270468
C36   C     C_R   0.601925 0.254649 0.313830 0.026947
C37   C     C_R   0.046490 0.733744 0.196186 0.018768
C38   C     C_R   0.062028 0.835682 0.234157 0.013999
C39   C     C_R   0.098766 0.817849 0.304940 0.031961
C40   C     C_R   0.641239 0.621067 0.391200 0.539428
C41   C     C_R   0.081327 0.607806 0.307747 -0.164998
C42   C     C_R   0.044740 0.625503 0.234965 -0.161502
C43   C     C_3   0.152962 0.899467 0.218591 -0.268243
C44   C     C_3   0.190217 0.883197 0.296564 -0.267462
C45   C     C_3   0.823809 0.613880 0.691215 -0.242911
C46   C     C_R   0.125572 0.694809 0.340280 0.026910
C47   C     C_R   0.702256 0.099934 0.895324 0.543918
C48   C     C_R   0.723453 0.688139 0.888111 0.551377
C49   C     C_R   0.120452 0.704892 0.906595 0.575300
C50   C     C_R   0.673793 0.110699 0.102621 0.544250
C51   C     C_R   0.694165 0.689204 0.096678 0.546577
C52   C     C_R   0.580955 0.291679 0.388162 0.567342
C53   C     C_R   0.026908 0.747631 0.118956 0.562604
C54   C     C_3   0.585870 0.816307 0.779810 -0.232401
C55   C     C_3   0.571557 0.802423 0.698949 -0.244482
C56   C     C_3   0.636226 0.549899 0.719236 -0.214823
C57   C     C_3   0.839678 0.630049 0.771385 -0.219827
C58   C     C_R   0.683287 0.152202 0.822421 0.014962
C59   C     C_R   0.783072 0.170205 0.784698 -0.084201
C60   C     C_R   0.775253 0.181879 0.710477 0.016668
Cr1   Cr    Cr6+3 0.392960 0.397920 0.502240 1.004125
Cr2   Cr    Cr6+3 0.398340 0.708480 0.501250 1.016512
Cr3   Cr    Cr6+3 0.708670 0.393570 0.496460 1.018334
Cr4   Cr    Cr6+3 0.937650 0.938540 0.007610 1.030898
Cr5   Cr    Cr6+3 0.625330 0.937370 0.994520 1.022261
Cr6   Cr    Cr6+3 0.937940 0.625230 0.001190 1.003708
F1    F     F_    0.970607 0.969959 0.668883 -0.643415
F2    F     F_    0.257856 0.839516 0.839702 -0.661918
H1    H     H_    0.617853 0.896169 0.789645 0.142265
H2    H     H_    0.262514 0.822313 0.703741 0.165814
H3    H     H_    0.482621 0.852434 0.806188 0.196191
H4    H     H_    0.157666 0.381223 0.819145 0.143995
H5    H     H_    0.330616 0.376299 0.824168 0.143531
H6    H     H_    0.339850 0.372916 0.695418 0.171572
H7    H     H_    0.164108 0.382612 0.691201 0.131272
H8    H     H_    0.492358 0.865547 0.314618 0.122827
H9    H     H_    0.493910 0.886052 0.184229 0.128847
H10   H     H_    0.939406 0.430414 0.165591 0.156418
H11   H     H_    0.858037 0.319158 0.167991 0.136870
H12   H     H_    0.707590 0.440019 0.702772 0.131494
H13   H     H_    0.883117 0.313066 0.296062 0.142564
H14   H     H_    0.460557 0.834924 0.686233 0.139619
H15   H     H_    0.939670 0.445741 0.293144 0.128267
H16   H     H_    0.829362 0.148919 0.319430 0.137610
H17   H     H_    0.863169 0.101305 0.194083 0.135794
H18   H     H_    0.427941 0.114321 0.180744 0.150685
H19   H     H_    0.299292 0.302601 0.162832 0.142913
H20   H     H_    0.271133 0.342004 0.287746 0.136126
H21   H     H_    0.407942 0.157616 0.305402 0.147997
H22   H     H_    0.088243 0.519815 0.336584 0.113505
H23   H     H_    0.923517 0.527982 0.791785 0.142795
H24   H     H_    0.027603 0.548812 0.207963 0.121765
H25   H     H_    0.093982 0.010871 0.202207 0.123276
H26   H     H_    0.598597 0.873927 0.669912 0.125352
H27   H     H_    0.244699 0.831523 0.184099 0.167887
H28   H     H_    0.302908 0.807927 0.305765 0.167942
H29   H     H_    0.148067 0.984901 0.325714 0.133634
H30   H     H_    0.872406 0.710393 0.780464 0.139832
H31   H     H_    0.850153 0.684842 0.661026 0.144257
H32   H     H_    0.735123 0.460772 0.821234 0.124456
H33   H     H_    0.553734 0.595063 0.827791 0.151202
H34   H     H_    0.899674 0.504298 0.674644 0.131534
H35   H     H_    0.526913 0.572778 0.708139 0.114086
H36   H     H_    0.494847 0.132242 0.683055 0.129225
H37   H     H_    0.490943 0.139020 0.808291 0.146064
H38   H     H_    0.972842 0.974888 0.803434 0.203548
H39   H     H_    0.990764 0.136561 0.810547 0.116745
H40   H     H_    0.980448 0.155343 0.682214 0.111538
O1    O     O_R   0.507380 0.255700 0.581440 -0.539457
O2    O     O_R   0.837170 0.593410 0.915250 -0.526580
O3    O     O_R   0.065200 0.635530 0.931570 -0.511240
O4    O     O_R   0.280320 0.527350 0.578930 -0.512702
O5    O     O_R   0.068260 0.828890 0.091840 -0.520531
O6    O     O_R   0.798870 0.057410 0.079340 -0.529038
O7    O     O_R   0.584930 0.080350 0.076780 -0.521326
O8    O     O_R   0.626960 0.809650 0.067060 -0.501889
O9    O     O_R   0.816040 0.596610 0.076510 -0.533859
O10   O     O_R   0.045610 0.638500 0.081060 -0.507331
O11   O     O_3   0.833640 0.833710 0.001100 -0.278570
O12   O     O_R   0.524480 0.695810 0.424040 -0.509590
O13   O     O_R   0.260510 0.739590 0.584590 -0.494035
O14   O     O_R   0.532300 0.695080 0.573820 -0.512539
O15   O     O_R   0.744840 0.503500 0.576370 -0.528820
O16   O     O_R   0.699120 0.276560 0.571960 -0.489375
O17   O     O_R   0.498940 0.256500 0.419860 -0.514318
O18   O     O_R   0.272500 0.528080 0.429150 -0.518088
O19   O     O_R   0.252060 0.740380 0.423010 -0.517023
O20   O     O_R   0.736390 0.504290 0.414790 -0.523170
O21   O     O_R   0.691300 0.277290 0.422170 -0.506001
O22   O     O_3   0.499990 0.499990 0.499980 -0.278133
O23   O     O_R   0.089400 0.825690 0.930570 -0.448969
O24   O     O_R   0.818460 0.054440 0.929850 -0.501027
O25   O     O_R   0.606060 0.077150 0.915510 -0.531421
O26   O     O_R   0.646550 0.806680 0.917570 -0.495375

loop_
_geom_bond_atom_site_label_1
_geom_bond_atom_site_label_2
_ccdc_geom_bond_type
C48   O2    A    
C21   C26   A    
C34   C56   S    
C8    C13   A    
C27   C29   A    
C41   C42   A    
Cr2   O22   S    
C15   H7    S    
C2    C7    A    
C43   C44   S    
Cr1   O1    S    
Cr3   O16   S    
C11   H2    S    
C3    H37   S    
C49   O23   A    
C12   C23   S    
C45   C57   S    
C29   C30   A    
Cr4   O11   S    
C30   C35   S    
C52   O21   A    
C48   O26   A    
C18   C19   A    
C10   C15   S    
C31   C36   A    
C1    O4    A    
C5    C6    S    
C33   C35   S    
C20   C25   S    
C32   H17   S    
C10   C17   A    
C40   O20   A    
C29   C33   S    
C50   O7    A    
C44   H29   S    
Cr3   O22   S    
C37   C42   A    
C43   H25   S    
C54   H3    S    
Cr4   O24   S    
C28   O18   A    
C8    C9    A    
Cr6   O9    S    
C18   C51   S    
C43   H27   S    
C41   C46   A    
Cr1   O18   S    
C23   C48   S    
Cr6   O3    S    
C9    C10   A    
Cr2   O12   S    
Cr5   O26   S    
C36   C52   S    
C27   C50   S    
C49   O3    A    
C37   C53   S    
C41   H22   S    
C59   C60   A    
C21   C22   A    
C47   O25   A    
C25   H13   S    
Cr5   O7    S    
C55   H26   S    
C53   O5    A    
C16   O1    A    
C5    H38   S    
C38   C39   A    
C4    C34   S    
Cr4   O6    S    
C5    C59   S    
C14   H5    S    
C6    C60   S    
C24   C25   S    
C56   H35   S    
C45   H31   S    
C9    C14   S    
C53   O10   A    
C58   C59   A    
C31   H16   S    
C4    O15   A    
C50   O6    A    
C33   H18   S    
C37   C38   A    
C44   H28   S    
C35   H20   S    
C24   H11   S    
C31   C32   A    
C21   H8    S    
Cr4   O23   S    
C2    H36   S    
C28   C46   S    
Cr5   O11   S    
C4    O14   A    
C34   C45   S    
Cr6   O2    S    
C55   H14   S    
C12   C56   S    
Cr1   O22   S    
C39   C46   A    
C35   H21   S    
C24   H10   S    
C7    C16   S    
C40   O12   A    
Cr6   O11   S    
Cr5   O8    S    
C38   C43   S    
C7    C60   A    
Cr2   O14   S    
C23   C54   S    
C5    H39   S    
C23   C57   S    
C54   C55   S    
C11   C17   A    
Cr4   O5    S    
C57   H23   S    
C27   C32   A    
C18   C22   A    
C14   H4    S    
Cr3   O20   S    
C22   H9    S    
Cr3   O15   S    
C52   O17   A    
C28   O19   A    
C39   C44   S    
C1    C17   S    
C51   O8    A    
C56   H12   S    
C30   C36   A    
C47   O24   A    
C19   C20   A    
C2    C3    A    
C16   O16   A    
C12   H33   S    
C6    F1    S    
C47   C58   S    
C11   C13   A    
C26   C40   S    
Cr2   O19   S    
C54   H1    S    
C20   C26   A    
C57   H30   S    
C51   O9    A    
C19   C24   S    
C42   H24   S    
Cr3   O21   S    
C33   H19   S    
C1    O13   A    
C12   H32   S    
C45   H34   S    
C3    C58   A    
C34   C55   S    
C15   H6    S    
Cr6   O10   S    
C25   H15   S    
C6    H40   S    
C14   C15   S    
Cr1   O17   S    
Cr1   O4    S    
C8    C49   S    
Cr2   O13   S    
Cr5   O25   S    
C13   F2    S    
