data_mof_unit_36637.cif
_audit_creation_date              2012-12-11T14:15:01-0500
_audit_creation_method            fapswitch 2.2
_symmetry_space_group_name_H-M    P1
_symmetry_Int_Tables_number       1
_space_group_crystal_system       triclinic
_cell_length_a                    24.359781
_cell_length_b                    17.455415
_cell_length_c                    15.572511
_cell_angle_alpha                 90.327508
_cell_angle_beta                  128.203817
_cell_angle_gamma                 89.578994
_cell_volume                      5203.20210361

loop_
_atom_site_label
_atom_site_type_symbol
_atom_type_description
_atom_site_fract_x
_atom_site_fract_y
_atom_site_fract_z
_atom_type_partial_charge
C1    C     C_R   0.332545 0.401296 0.196777 0.471570
C2    C     C_R   0.681810 0.612425 0.496816 0.139884
C3    C     C_R   0.825664 0.138546 0.502801 0.079566
C4    C     C_R   0.182155 0.111014 0.496592 0.137315
C5    C     C_R   0.373668 0.667985 0.187368 0.055493
C6    C     C_R   0.627802 0.666939 0.814551 0.058341
C7    C     C_R   0.877890 0.174824 0.199299 0.053087
C8    C     C_R   0.120664 0.176684 0.797533 0.047358
C9    C     C_2   0.728709 0.661859 0.410933 0.004333
C10   C     C_2   0.340626 0.785279 0.577908 -0.013947
C11   C     C_2   0.229540 0.160167 0.411137 0.067266
C12   C     C_R   0.667395 0.400980 0.803298 0.461993
C13   C     C_2   0.764223 0.159132 0.579014 0.015743
C14   C     C_2   0.740180 0.628255 0.497085 -0.114403
C15   C     C_2   0.305171 0.728586 0.505566 -0.099158
C16   C     C_2   0.240685 0.125970 0.496752 -0.084319
C17   C     C_2   0.771607 0.174341 0.502466 -0.136305
C18   C     C_2   0.280188 0.215581 0.430298 -0.324363
C19   C     C_2   0.718187 0.207520 0.586969 -0.250694
C20   C     C_2   0.778858 0.717601 0.429621 -0.314188
C21   C     C_2   0.302031 0.844561 0.586566 -0.249476
C22   C     C_2   0.299814 0.276174 0.497745 0.425103
C23   C     C_R   0.832962 0.900526 0.197149 0.464275
C24   C     C_2   0.655542 0.232770 0.498338 0.493208
C25   C     C_2   0.797981 0.778342 0.496595 0.436130
C26   C     C_2   0.243005 0.874668 0.496749 0.403032
C27   C     C_2   0.693152 0.355269 0.976413 0.463438
C28   C     C_2   0.306654 0.354708 0.023187 0.462261
C29   C     C_2   0.188727 0.847244 0.971040 0.472326
C30   C     C_2   0.809994 0.847770 0.029141 0.461273
C31   C     C_2   0.730728 0.292485 0.995100 0.340797
C32   C     C_2   0.267394 0.293807 0.003533 0.333209
C33   C     C_2   0.225625 0.785193 0.984694 0.321010
C34   C     C_R   0.166642 0.899153 0.803136 0.513789
C35   C     C_2   0.775331 0.784774 0.017383 0.333311
C36   C     C_2   0.337877 0.725638 0.103831 -0.055599
C37   C     C_2   0.664705 0.722924 0.900307 -0.064544
C38   C     C_2   0.843823 0.235449 0.119354 -0.054554
C39   C     C_2   0.154229 0.237997 0.876912 -0.072370
C40   C     C_R   0.584864 0.355433 0.408757 -0.004030
C41   C     C_R   0.400519 0.368914 0.591806 -0.000529
C42   C     C_R   0.115386 0.900984 0.408255 -0.025520
C43   C     C_R   0.899468 0.869918 0.591482 -0.011836
C44   C     C_2   0.285940 0.762961 0.092318 -0.137459
C45   C     C_R   0.400143 0.629424 0.593406 -0.094443
C46   C     C_2   0.715473 0.761014 0.910611 -0.142728
C47   C     C_2   0.790414 0.271768 0.104833 -0.143641
C48   C     C_2   0.208325 0.273075 0.893115 -0.133412
C49   C     C_R   0.658104 0.355560 0.590722 -0.060970
C50   C     C_R   0.328313 0.367619 0.408622 -0.026036
C51   C     C_R   0.187724 0.899600 0.588656 -0.042288
C52   C     C_R   0.827496 0.868669 0.408361 -0.021225
C53   C     C_R   0.576584 0.397619 0.802968 0.416500
C54   C     C_R   0.423254 0.397592 0.196663 0.395755
C55   C     C_R   0.075074 0.895936 0.801090 0.413613
C56   C     C_R   0.613465 0.599767 0.407103 -0.097788
C57   C     C_R   0.924382 0.894548 0.198845 0.443830
C58   C     C_R   0.353449 0.381224 0.135268 -0.212636
C59   C     C_R   0.646516 0.381617 0.864613 -0.208036
C60   C     C_R   0.854733 0.879407 0.137370 -0.216284
C61   C     C_R   0.144332 0.878477 0.862269 -0.238386
C62   C     C_R   0.633052 0.310992 0.499498 -0.128065
C63   C     C_R   0.343708 0.332560 0.500224 -0.099968
C64   C     C_R   0.183642 0.887199 0.497485 -0.149593
C65   C     C_R   0.842301 0.834205 0.499726 -0.105563
C66   C     C_R   0.324840 0.628781 0.410541 -0.029689
C67   C     C_R   0.890365 0.113167 0.592905 -0.104697
C68   C     C_R   0.687136 0.600290 0.588745 0.000571
C69   C     C_R   0.817162 0.115005 0.410585 -0.051099
C70   C     C_R   0.187398 0.099173 0.588501 -0.037468
C71   C     C_R   0.436446 0.632913 0.228031 -0.033266
C72   C     C_R   0.566189 0.631004 0.776892 -0.071586
C73   C     C_R   0.938766 0.136895 0.234789 -0.048497
C74   C     C_R   0.060921 0.137898 0.764455 -0.058473
C75   C     C_R   0.656126 0.630348 0.770859 0.003748
C76   C     C_R   0.343421 0.629601 0.226278 -0.020865
C77   C     C_R   0.151839 0.136308 0.760790 0.015000
C78   C     C_R   0.113637 0.099155 0.407048 -0.101062
C79   C     C_R   0.846645 0.134800 0.235506 -0.017166
C80   C     C_R   0.341686 0.664508 0.503224 0.071636
Cl1   Cl    Cl    0.706598 0.228548 0.887113 -0.591617
Cl2   Cl    Cl    0.467165 0.415698 0.142276 -0.534219
Cl3   Cl    Cl    0.031706 0.915572 0.856228 -0.542599
Cl4   Cl    Cl    0.969530 0.904324 0.145342 -0.556566
Cl5   Cl    Cl    0.289354 0.231277 0.111037 -0.577693
Cl6   Cl    Cl    0.200697 0.725617 0.872328 -0.570401
Cl7   Cl    Cl    0.802609 0.726047 0.131232 -0.602243
Cl8   Cl    Cl    0.709915 0.415334 0.081882 -0.491927
Cl9   Cl    Cl    0.292712 0.412175 0.918195 -0.438195
Cl10  Cl    Cl    0.205184 0.901958 0.080696 -0.392436
Cl11  Cl    Cl    0.790815 0.902653 0.918416 -0.443945
Cl12  Cl    Cl    0.533122 0.416749 0.858031 -0.543635
H1    H     H_    0.792171 0.629254 0.575506 0.165412
H2    H     H_    0.717584 0.765466 0.843058 0.169948
H3    H     H_    0.784718 0.273541 0.168777 0.147400
H4    H     H_    0.215044 0.273725 0.830311 0.170033
H5    H     H_    0.344605 0.726387 0.041038 0.206189
H6    H     H_    0.658941 0.722752 0.964173 0.206459
H7    H     H_    0.852097 0.237994 0.058365 0.204287
H8    H     H_    0.145004 0.241899 0.936770 0.205137
H9    H     H_    0.554699 0.337257 0.325059 0.181521
H10   H     H_    0.422591 0.357577 0.675354 0.174270
H11   H     H_    0.097639 0.908938 0.326351 0.194514
H12   H     H_    0.248582 0.729433 0.446654 0.161850
H13   H     H_    0.920878 0.858900 0.674753 0.174065
H14   H     H_    0.693717 0.337645 0.674604 0.172676
H15   H     H_    0.284896 0.355336 0.324884 0.188978
H16   H     H_    0.235355 0.906668 0.669790 0.189997
H17   H     H_    0.783897 0.856810 0.324627 0.190163
H18   H     H_    0.278776 0.638625 0.327653 0.136347
H19   H     H_    0.735199 0.596658 0.671405 0.154392
H20   H     H_    0.768897 0.116147 0.327928 0.160413
H21   H     H_    0.235565 0.094413 0.670866 0.159284
H22   H     H_    0.470794 0.644748 0.207889 0.128136
H23   H     H_    0.292746 0.125996 0.575030 0.158980
H24   H     H_    0.535905 0.640142 0.805189 0.126984
H25   H     H_    0.973693 0.150257 0.216257 0.127045
H26   H     H_    0.026855 0.151541 0.784770 0.123283
H27   H     H_    0.706742 0.638567 0.790574 0.131557
H28   H     H_    0.290919 0.636114 0.199679 0.135369
H29   H     H_    0.201145 0.147391 0.777267 0.137134
H30   H     H_    0.796025 0.144893 0.215056 0.123847
H31   H     H_    0.422415 0.638988 0.677663 0.121739
H32   H     H_    0.593813 0.593528 0.323345 0.124774
H33   H     H_    0.909853 0.113456 0.676903 0.125114
H34   H     H_    0.738336 0.216084 0.438794 0.177092
H35   H     H_    0.093972 0.092607 0.323316 0.132059
H36   H     H_    0.677696 0.661982 0.331219 0.150954
H37   H     H_    0.397046 0.782480 0.639560 0.137211
H38   H     H_    0.178431 0.161084 0.331581 0.146829
H39   H     H_    0.799725 0.120040 0.645579 0.163765
H40   H     H_    0.168485 0.500442 0.996472 0.392046
H41   H     H_    0.831906 0.499786 0.997100 0.392981
H42   H     H_    0.666824 0.993655 0.990891 0.394919
H43   H     H_    0.344793 0.956405 0.027785 0.400595
H44   H     H_    0.354166 0.256088 0.723099 0.355698
H45   H     H_    0.298130 0.209831 0.381672 0.188635
H46   H     H_    0.492156 0.207609 0.259902 0.375847
H47   H     H_    0.851061 0.760844 0.721803 0.353375
H48   H     H_    0.146549 0.813879 0.279623 0.342461
H49   H     H_    0.744965 0.236403 0.664997 0.154216
H50   H     H_    0.797408 0.711494 0.381867 0.181058
H51   H     H_    0.311997 0.844699 0.664681 0.153929
H52   H     H_    0.282759 0.766372 0.158920 0.166451
N1    N     N_R   0.389060 0.424180 0.294540 -0.130992
N2    N     N_R   0.374530 0.423490 0.443400 -0.045179
N3    N     N_R   0.125470 0.923490 0.556600 -0.048836
N4    N     N_R   0.874530 0.923490 0.443400 -0.045725
N5    N     N_R   0.555250 0.423100 0.705420 -0.130101
N6    N     N_R   0.444750 0.423100 0.294580 -0.130494
N7    N     N_R   0.055250 0.923100 0.705420 -0.129593
N8    N     N_R   0.944750 0.923100 0.294580 -0.127770
N9    N     N_R   0.375210 0.577180 0.443400 -0.051697
N10   N     N_R   0.624790 0.577180 0.556600 -0.066245
N11   N     N_R   0.875210 0.077180 0.443400 -0.056237
N12   N     N_R   0.610940 0.424180 0.705460 -0.133211
N13   N     N_R   0.124790 0.077180 0.556600 -0.066478
N14   N     N_R   0.445430 0.577570 0.294580 -0.061746
N15   N     N_R   0.554570 0.577570 0.705420 -0.059810
N16   N     N_R   0.945430 0.077570 0.294580 -0.061636
N17   N     N_R   0.054570 0.077570 0.705420 -0.058818
N18   N     N_R   0.611620 0.576500 0.705460 -0.057922
N19   N     N_R   0.388380 0.576500 0.294540 -0.055966
N20   N     N_R   0.111620 0.076500 0.705460 -0.055306
N21   N     N_R   0.888380 0.076500 0.294540 -0.053079
N22   N     N_R   0.421010 0.576890 0.556640 -0.054370
N23   N     N_R   0.889060 0.924180 0.294540 -0.132307
N24   N     N_R   0.578990 0.576890 0.443360 -0.062766
N25   N     N_R   0.921010 0.076890 0.556640 -0.057082
N26   N     N_R   0.078990 0.076890 0.443360 -0.063971
N27   N     N_R   0.110940 0.924180 0.705460 -0.129704
N28   N     N_R   0.579670 0.423790 0.443360 -0.060161
N29   N     N_R   0.420330 0.423790 0.556640 -0.056638
N30   N     N_R   0.079670 0.923790 0.443360 -0.056446
N31   N     N_R   0.920330 0.923790 0.556640 -0.055465
N32   N     N_R   0.625470 0.423490 0.556600 -0.038737
Ni1   Ni    Ni4+2 0.383200 0.500680 0.370150 0.320947
Ni2   Ni    Ni4+2 0.616800 0.500680 0.629850 0.305411
Ni3   Ni    Ni4+2 0.883200 0.000680 0.370150 0.318573
Ni4   Ni    Ni4+2 0.116800 0.000680 0.629850 0.296083
Ni5   Ni    Ni4+2 0.512440 0.500680 0.370150 0.271233
Ni6   Ni    Ni4+2 0.487560 0.500680 0.629850 0.287835
Ni7   Ni    Ni4+2 0.012440 0.000680 0.370150 0.263166
Ni8   Ni    Ni4+2 0.987560 0.000680 0.629850 0.282034
O1    O     O_2   0.200531 0.367099 0.110756 -0.276687
O2    O     O_2   0.291016 0.859800 0.858516 -0.292035
O3    O     O_2   0.254958 0.994440 0.808844 -0.357322
O4    O     O_3   0.295628 0.947890 0.997370 -0.474162
O5    O     O_2   0.187677 0.286361 0.493887 -0.241894
O6    O     O_2   0.278110 0.383010 0.600037 -0.208071
O7    O     O_3   0.303514 0.246322 0.680554 -0.518554
O8    O     O_2   0.625286 0.094728 0.398147 -0.177078
O9    O     O_2   0.605724 0.208600 0.290894 -0.300955
O10   O     O_3   0.518967 0.181759 0.331830 -0.473460
O11   O     O_2   0.684914 0.788470 0.490314 -0.226665
O12   O     O_2   0.248465 0.485841 0.217512 -0.334486
O13   O     O_2   0.774424 0.886240 0.595302 -0.208282
O14   O     O_3   0.800469 0.750399 0.678617 -0.519953
O15   O     O_2   0.304617 0.896589 0.402793 -0.192039
O16   O     O_2   0.196038 0.966600 0.325474 -0.250773
O17   O     O_3   0.188418 0.821272 0.283901 -0.470948
O18   O     O_3   0.215680 0.483329 0.024109 -0.484646
O19   O     O_2   0.799073 0.359959 0.893401 -0.278490
O20   O     O_2   0.753378 0.474877 0.778882 -0.348750
O21   O     O_3   0.784995 0.483790 0.971375 -0.478932
O22   O     O_2   0.701632 0.863664 0.110977 -0.283487
O23   O     O_2   0.746757 0.984370 0.213643 -0.326772
O24   O     O_3   0.715058 0.979016 0.021028 -0.472148
S1    S     S_3+6 0.247276 0.434209 0.138861 -0.043918
S2    S     S_3+6 0.753287 0.429452 0.860311 -0.043456
S3    S     S_3+6 0.747050 0.931765 0.137268 -0.035111
S4    S     S_3+6 0.253769 0.925756 0.865158 -0.039279
S5    S     S_3+6 0.265126 0.299947 0.567327 0.012777
S6    S     S_3+6 0.602065 0.177115 0.376943 0.020981
S7    S     S_3+6 0.762252 0.802833 0.564393 0.023310
S8    S     S_3+6 0.233808 0.891961 0.375608 0.031003

loop_
_geom_bond_atom_site_label_1
_geom_bond_atom_site_label_2
_ccdc_geom_bond_type
N23   Ni3   S    
C21   C26   D    
C5    C36   S    
C11   C18   S    
O2    S4    D    
N9    N22   A    
C1    N1    A    
N22   Ni6   S    
C54   Cl2   S    
C33   Cl6   S    
C42   H11   S    
N17   N20   A    
C4    C70   A    
C53   C59   A    
N3    N30   A    
N7    N27   A    
N7    Ni8   S    
C54   N6    A    
O5    S5    D    
C45   H31   S    
C6    C72   A    
C73   N16   A    
C69   N11   A    
C72   N15   A    
C30   C35   D    
C75   N18   A    
C56   H32   S    
C3    C69   A    
N5    N12   A    
C2    C68   A    
C10   C15   D    
C67   H33   S    
N26   Ni7   S    
C69   H20   S    
C17   H34   S    
C20   C25   D    
C78   H35   S    
H41   O21   S    
C57   N8    A    
C29   C33   D    
C78   N26   A    
C40   C62   A    
C41   H10   S    
C26   S8    S    
C43   H13   S    
O23   S3    D    
C26   C64   S    
C37   H6    S    
C22   C63   S    
C12   C59   A    
C35   Cl7   S    
N28   Ni5   S    
C51   H16   S    
C30   C60   S    
N19   Ni1   S    
C24   C62   S    
O19   S2    D    
C10   C21   S    
C36   H5    S    
N2    Ni1   S    
C8    C39   S    
C15   H12   S    
C48   H4    S    
C45   N22   A    
N16   Ni7   S    
O11   S7    D    
N1    N6    A    
O13   S7    D    
N13   N26   A    
C43   C65   A    
C50   N2    A    
C77   N20   A    
N32   Ni2   S    
C40   H9    S    
C52   N4    A    
C31   C47   S    
C53   N5    A    
C50   C63   A    
C32   C48   S    
N10   N24   A    
C24   S6    S    
C12   N12   A    
O14   S7    S    
N3    Ni4   S    
O8    S6    D    
C29   Cl10  S    
N14   Ni5   S    
N11   Ni3   S    
N6    Ni5   S    
N9    Ni1   S    
H46   O10   S    
C70   H21   S    
C23   C60   A    
C74   H26   S    
C79   H30   S    
C29   C61   S    
H47   O14   S    
N4    N31   A    
C73   H25   S    
C13   C19   S    
H44   O7    S    
C1    S1    S    
O15   S8    D    
C9    H36   S    
C20   H50   S    
C28   C32   D    
C25   C65   S    
C21   H51   S    
C7    C73   A    
C42   N30   A    
C30   Cl11  S    
C57   C60   A    
C27   C31   D    
C16   H23   S    
C34   C61   A    
C67   N25   A    
C71   H22   S    
N13   Ni4   S    
C4    C16   S    
C18   H45   S    
C9    C14   D    
N25   Ni8   S    
C4    C78   A    
N15   N18   A    
N2    N29   A    
C74   N17   A    
C11   C16   D    
N11   N25   A    
C9    C20   S    
H42   O24   S    
C15   C80   S    
C46   H2    S    
C51   N3    A    
C44   H52   S    
C56   N24   A    
C53   Cl12  S    
C8    C74   A    
C13   H39   S    
C6    C37   S    
C75   H27   S    
C76   H28   S    
N16   N21   A    
C79   N21   A    
N8    Ni7   S    
O22   S3    D    
C38   C47   D    
C28   Cl9   S    
C34   S4    S    
N14   N19   A    
C23   N23   A    
O12   S1    D    
N29   Ni6   S    
N4    Ni3   S    
N12   Ni2   S    
N10   Ni2   S    
C50   H15   S    
N21   Ni3   S    
C25   S7    S    
O1    S1    D    
N27   Ni4   S    
C36   C44   D    
C41   C63   A    
O18   S1    S    
O20   S2    D    
C43   N31   A    
C11   H38   S    
C42   C64   A    
H43   O4    S    
C40   N28   A    
N8    N23   A    
C7    C79   A    
C54   C58   A    
C71   N14   A    
C41   N29   A    
N5    Ni6   S    
C57   Cl4   S    
C49   C62   A    
C14   H1    S    
O9    S6    D    
C18   C22   D    
C33   C44   S    
C3    C67   A    
C51   C64   A    
C38   H7    S    
N20   Ni4   S    
N30   Ni7   S    
O10   S6    S    
C66   N9    A    
C55   N7    A    
C49   H14   S    
C28   C58   S    
C66   C80   A    
C72   H24   S    
C68   N10   A    
H40   O18   S    
C31   Cl1   S    
C13   C17   D    
C70   N13   A    
N17   Ni8   S    
C19   C24   D    
C10   H37   S    
C12   S2    S    
C5    C71   A    
C2    C56   A    
H48   O17   S    
O7    S5    S    
C52   H17   S    
O4    S4    S    
C39   H8    S    
C8    C77   A    
C23   S3    S    
O21   S2    S    
C5    C76   A    
O24   S3    S    
C32   Cl5   S    
C55   C61   A    
O16   S8    D    
C7    C38   S    
C3    C17   S    
C45   C80   A    
N15   Ni6   S    
C27   Cl8   S    
C2    C14   S    
O6    S5    D    
N18   Ni2   S    
C77   H29   S    
C34   N27   A    
O17   S8    S    
O3    S4    D    
C66   H18   S    
C19   H49   S    
N24   Ni5   S    
C22   S5    S    
N1    Ni1   S    
C47   H3    S    
C39   C48   D    
C76   N19   A    
C27   C59   S    
C37   C46   D    
C1    C58   A    
C35   C46   S    
C55   Cl3   S    
C68   H19   S    
C49   N32   A    
C52   C65   A    
N28   N32   A    
N31   Ni8   S    
C6    C75   A    
