data_mof_unit_37446.cif
_audit_creation_date              2013-03-05T16:24:37-0500
_audit_creation_method            fapswitch 2.2
_symmetry_space_group_name_H-M    P1
_symmetry_Int_Tables_number       1
_space_group_crystal_system       triclinic
_cell_length_a                    27.543596
_cell_length_b                    15.74575
_cell_length_c                    14.925231
_cell_angle_alpha                 90.110809
_cell_angle_beta                  88.439627
_cell_angle_gamma                 90.021953
_cell_volume                      6470.57901801

loop_
_atom_site_label
_atom_site_type_symbol
_atom_site_description
_atom_site_fract_x
_atom_site_fract_y
_atom_site_fract_z
_atom_type_partial_charge
O1    O     O_R   0.500000 0.376780 0.574460 -0.609346
O2    O     O_R   0.500000 0.623220 0.425540 -0.609932
O3    O     O_R   0.500010 0.376780 0.425520 -0.609821
O4    O     O_R   0.499990 0.623220 0.574480 -0.610209
C1    C     C_R   0.500004 0.337523 0.499897 0.914705
C2    C     C_R   0.499999 0.662477 0.500103 0.913669
O5    O     O_R   0.428750 0.500010 0.574460 -0.620295
O6    O     O_R   0.571250 0.499990 0.425540 -0.620281
O7    O     O_R   0.428760 0.500020 0.425520 -0.616347
O8    O     O_R   0.571240 0.499980 0.574480 -0.615418
C3    C     C_R   0.405573 0.500065 0.501322 0.886585
C4    C     C_R   0.594402 0.500667 0.498640 0.885523
Zn1   Zn    Zn3+2 0.499990 0.500000 0.599450 0.975574
Zn2   Zn    Zn3+2 0.500010 0.500000 0.400550 0.975088
C5    C     C_R   0.176041 0.420251 0.518530 0.524789
C6    C     C_R   0.824397 0.584731 0.465300 0.478214
O9    O     O_2   0.202916 0.349319 0.507468 -0.596792
O10   O     O_2   0.798417 0.657157 0.470596 -0.601350
N1    N     N_R   0.199362 0.496315 0.525202 -0.335133
N2    N     N_R   0.800273 0.509089 0.469784 -0.332414
C7    C     C_R   0.175126 0.570463 0.541266 0.495530
C8    C     C_R   0.823405 0.432911 0.460691 0.540552
C9    C     C_R   0.274958 0.486417 0.433321 0.271984
C10   C     C_R   0.725733 0.488336 0.562670 0.272338
C11   C     C_R   0.325748 0.486960 0.428243 -0.295595
C12   C     C_R   0.674945 0.485578 0.568907 -0.296446
C13   C     C_R   0.328194 0.512284 0.588596 -0.216825
C14   C     C_R   0.670799 0.526164 0.412405 -0.215980
C15   C     C_R   0.277895 0.511363 0.594161 -0.165851
C16   C     C_R   0.721015 0.528949 0.405796 -0.169591
C17   C     C_R   0.251164 0.498335 0.517177 0.313388
C18   C     C_R   0.748582 0.509769 0.480153 0.314988
C19   C     C_R   0.099354 0.495317 0.526719 -0.111958
C20   C     C_R   0.900138 0.507023 0.457398 -0.109261
C21   C     C_R   0.124793 0.416982 0.520359 -0.050111
C22   C     C_R   0.875599 0.586323 0.459274 -0.048510
C23   C     C_R   0.097806 0.339658 0.517075 0.109342
C24   C     C_R   0.903518 0.662767 0.454264 0.103788
C25   C     C_R   0.124108 0.571362 0.546663 -0.089015
C26   C     C_R   0.874184 0.430018 0.448933 -0.120006
C27   C     C_R   0.352481 0.500041 0.505701 -0.067037
C28   C     C_R   0.647412 0.504220 0.493799 -0.065421
H1    H     H_    0.348031 0.522567 0.649341 0.168555
H2    H     H_    0.650290 0.541219 0.353607 0.168832
H3    H     H_    0.259487 0.520378 0.658529 0.143309
H4    H     H_    0.738731 0.545065 0.342412 0.144555
C29   C     C_R   0.975879 0.426520 0.460158 -0.030425
C30   C     C_R   0.023796 0.575853 0.518675 -0.027454
C31   C     C_R   0.975902 0.579528 0.486962 0.031883
C32   C     C_R   0.024660 0.422816 0.487846 0.040274
C33   C     C_R   0.950745 0.504235 0.468090 0.045658
C34   C     C_R   0.049213 0.498089 0.510951 0.052451
C35   C     C_R   0.951351 0.357129 0.420455 0.048266
C36   C     C_R   0.045757 0.643641 0.566814 0.042090
C37   C     C_R   0.900237 0.354372 0.427379 0.213544
C38   C     C_R   0.096812 0.643924 0.574170 0.197007
O11   O     O_2   0.796943 0.360945 0.465174 -0.582618
O12   O     O_2   0.200778 0.643011 0.548031 -0.584565
C39   C     C_R   0.047686 0.345012 0.503581 -0.248794
C40   C     C_R   0.953848 0.656579 0.465525 -0.216310
H5    H     H_    0.657149 0.468339 0.631914 0.159462
H6    H     H_    0.344171 0.477151 0.363988 0.161253
H7    H     H_    0.025830 0.288266 0.504590 0.145177
H8    H     H_    0.976932 0.710964 0.454902 0.138645
C41   C     C_3   0.540723 0.972118 0.539994 -0.244368
C42   C     C_3   0.459317 0.027879 0.460000 -0.243969
C43   C     C_3   0.540130 0.027893 0.454013 -0.209509
C44   C     C_3   0.459910 0.972105 0.545981 -0.209068
H9    H     H_    0.572263 0.052174 0.415535 0.149914
H10   H     H_    0.427777 0.947823 0.584459 0.150037
H11   H     H_    0.573256 0.947928 0.574060 0.152509
H12   H     H_    0.426784 0.052068 0.425933 0.152372
C45   C     C_1   0.500001 0.248788 0.499594 -0.182382
C46   C     C_1   0.500017 0.751210 0.500404 -0.181480
C47   C     C_3   0.500616 0.028102 0.582680 0.287449
C48   C     C_3   0.499424 0.971896 0.417314 0.287532
C49   C     C_3   0.500019 0.082978 0.498780 0.100345
C50   C     C_3   0.500021 0.917019 0.501214 0.100325
C51   C     C_1   0.500003 0.173644 0.499174 -0.053273
C52   C     C_1   0.500028 0.826354 0.500822 -0.053080
C53   C     C_3   0.510235 0.421719 0.969193 -0.149085
C54   C     C_3   0.489759 0.578293 0.030808 -0.149419
C55   C     C_3   0.543895 0.476394 0.027866 -0.152452
C56   C     C_3   0.456099 0.523617 0.972135 -0.152015
H13   H     H_    0.580211 0.456864 0.050844 0.129738
H14   H     H_    0.419784 0.543148 0.949155 0.129135
H15   H     H_    0.518705 0.356954 0.943781 0.130717
H16   H     H_    0.481290 0.643057 0.056220 0.130954
H17   H     H_    0.561489 0.599906 0.942106 0.130495
H18   H     H_    0.438506 0.400106 0.057896 0.129790
N3    N     N_1   0.500020 0.500000 0.268010 -0.091879
N4    N     N_1   0.499980 0.500000 0.731990 -0.091765
C57   C     C_3   0.466345 0.445333 0.031723 -0.150077
C58   C     C_3   0.533649 0.554678 0.968277 -0.150699
C59   C     C_3   0.500005 0.500008 0.089250 0.120022
C60   C     C_3   0.499990 0.500003 0.910750 0.120023
C61   C     C_1   0.500014 0.500005 0.189660 0.028271
C62   C     C_1   0.499983 0.500001 0.810340 0.028499
N5    N     N_2   0.498599 0.937260 0.327519 -0.300382
H19   H     H_    0.471406 0.893075 0.319650 0.225841
C63   C     C_3   0.500647 0.999752 0.256745 -0.793507
H20   H     H_    0.502203 0.967064 0.190752 0.240367
H21   H     H_    0.533702 0.039653 0.262110 0.248574
H22   H     H_    0.467822 0.040760 0.260266 0.234801
N6    N     N_2   0.501441 0.062735 0.672477 -0.300168
H23   H     H_    0.528632 0.106922 0.680345 0.225371
C64   C     C_3   0.499396 0.000241 0.743248 -0.793351
H24   H     H_    0.497839 0.032927 0.809242 0.240347
H25   H     H_    0.532223 0.959237 0.739724 0.234788
H26   H     H_    0.466342 0.960336 0.737883 0.248559
C65   C     C_3   0.121929 0.252926 0.528580 -0.330028
C66   C     C_3   0.087806 0.176118 0.540958 -0.431737
C67   C     C_3   0.116399 0.095176 0.559069 -0.850811
H27   H     H_    0.142150 0.081490 0.502299 0.265793
H28   H     H_    0.136954 0.101869 0.621706 0.263472
H29   H     H_    0.090935 0.040826 0.566843 0.248071
H30   H     H_    0.062174 0.187484 0.598574 0.231417
H31   H     H_    0.066938 0.165931 0.479108 0.223301
H32   H     H_    0.145565 0.240127 0.468550 0.242356
H33   H     H_    0.144604 0.256156 0.589018 0.232518
C68   C     C_3   0.880143 0.749238 0.437527 -0.328854
C69   C     C_3   0.914937 0.823922 0.418225 -0.429265
C70   C     C_3   0.886951 0.904878 0.397319 -0.856959
H34   H     H_    0.864916 0.895652 0.336823 0.264188
H35   H     H_    0.862634 0.922621 0.454943 0.264197
H36   H     H_    0.912913 0.957712 0.384389 0.248608
H37   H     H_    0.937231 0.836509 0.477799 0.221715
H38   H     H_    0.939215 0.808546 0.359700 0.230641
H39   H     H_    0.856523 0.742878 0.378630 0.232777
H40   H     H_    0.857545 0.766613 0.497597 0.241810
N7    N     N_2   0.753690 0.466691 0.638056 -0.298262
H41   H     H_    0.737189 0.422312 0.679557 0.225743
C71   C     C_3   0.771238 0.538858 0.687769 -0.783258
H42   H     H_    0.793967 0.516297 0.743231 0.235577
H43   H     H_    0.740195 0.575828 0.716703 0.237508
H44   H     H_    0.793930 0.580673 0.644028 0.267287
N8    N     N_2   0.247967 0.471739 0.354838 -0.296222
H45   H     H_    0.265558 0.433022 0.308522 0.226318
C72   C     C_3   0.229394 0.547902 0.314022 -0.785138
H46   H     H_    0.207483 0.530391 0.255424 0.236984
H47   H     H_    0.259898 0.589326 0.290838 0.237808
H48   H     H_    0.205644 0.583493 0.362089 0.263799
N9    N     N_2   0.876427 0.277492 0.403525 -0.300816
H49   H     H_    0.846367 0.282926 0.364370 0.258795
C73   C     C_3   0.872909 0.214476 0.473798 -0.713265
H50   H     H_    0.857110 0.155123 0.446818 0.229769
H51   H     H_    0.849320 0.237777 0.530134 0.270757
H52   H     H_    0.909460 0.199663 0.499286 0.216272
N10   N     N_2   0.119238 0.715095 0.615362 -0.307644
H53   H     H_    0.142427 0.750444 0.575000 0.272988
C74   C     C_3   0.134310 0.702422 0.706581 -0.744858
H54   H     H_    0.146383 0.763931 0.734889 0.233488
H55   H     H_    0.164805 0.656493 0.708889 0.261745
H56   H     H_    0.103467 0.678278 0.748837 0.229349
C75   C     C_3   0.977616 0.294547 0.357357 -0.417607
C76   C     C_3   0.961477 0.304724 0.260084 -0.324337
C77   C     C_3   0.989621 0.244960 0.196989 -0.887500
H57   H     H_    0.029110 0.259183 0.197966 0.261968
H58   H     H_    0.983446 0.177880 0.217234 0.264002
H59   H     H_    0.977033 0.253392 0.127520 0.250450
H60   H     H_    0.922216 0.290809 0.254307 0.231002
H61   H     H_    0.967908 0.371290 0.237976 0.220512
H62   H     H_    0.017300 0.305580 0.354608 0.213501
H63   H     H_    0.971182 0.228432 0.380650 0.207851
C78   C     C_3   0.015463 0.706442 0.624228 -0.396885
C79   C     C_3   0.983111 0.659894 0.693815 -0.330703
C80   C     C_3   0.954182 0.722430 0.752428 -0.891686
H64   H     H_    0.979100 0.764536 0.789397 0.260281
H65   H     H_    0.930230 0.761752 0.710502 0.265703
H66   H     H_    0.931206 0.686912 0.801833 0.252703
H67   H     H_    0.957025 0.617446 0.660280 0.236769
H68   H     H_    0.006173 0.620327 0.737256 0.220081
H69   H     H_    0.038723 0.750447 0.662007 0.228308
H70   H     H_    0.993545 0.750002 0.584225 0.184899

loop_
_geom_bond_atom_site_label_1
_geom_bond_atom_site_label_2
_geom_bond_distance
_ccdc_geom_bond_type
C42   C44   1.556874 S    
C79   H68   1.111904 S    
C77   H57   1.110891 S    
C54   C58   1.551849 S    
C13   C15   1.385704 A    
C72   H47   1.111624 S    
N6    H23   1.030956 S    
C65   C66   1.539691 S    
C43   C49   1.541960 S    
C68   H40   1.111237 S    
N1    C17   1.428911 S    
C8    O11   1.347890 S    
C73   H50   1.110272 S    
N4    C62   1.169400 T    
C70   H34   1.110846 S    
C80   H65   1.111061 S    
C48   N5    1.446698 S    
C30   C36   1.428839 A    
N6    C64   1.444964 S    
C20   C33   1.408042 A    
C78   C79   1.536867 S    
C31   C40   1.398545 A    
O1    C1    1.271975 A    
C32   C39   1.402863 A    
C76   C77   1.526639 S    
N1    C7    1.362713 A    
C12   H5    1.083551 S    
C48   C50   1.523252 S    
N10   C74   1.448322 S    
C66   H30   1.111947 S    
C72   H48   1.108987 S    
C50   C52   1.427588 S    
C70   H35   1.110935 S    
C78   H69   1.107396 S    
N9    H49   1.030031 S    
C69   H37   1.111699 S    
C65   H32   1.111230 S    
C56   C60   1.542002 S    
C74   H56   1.111532 S    
C14   C28   1.403200 A    
O4    Zn1   1.976368 S    
C4    C28   1.460967 S    
C73   H51   1.110410 S    
C42   H12   1.110106 S    
N5    H19   1.030956 S    
C31   C33   1.404885 A    
C60   C62   1.498649 S    
C71   H44   1.108822 S    
C32   C34   1.411221 A    
C64   H24   1.110249 S    
C54   C59   1.541998 S    
C80   H66   1.110366 S    
C6    N2    1.364484 A    
C29   C35   1.421310 A    
C67   H29   1.110509 S    
C68   H39   1.112095 S    
C49   C51   1.427596 S    
C74   H54   1.110358 S    
C76   H61   1.112129 S    
C79   H67   1.109680 S    
C77   H58   1.110918 S    
C46   C52   1.183203 T    
C74   H55   1.109868 S    
C69   H38   1.111876 S    
C64   H25   1.111251 S    
O2    C2    1.271971 A    
C5    C21   1.411998 A    
C66   C67   1.526855 S    
C53   C55   1.551843 S    
C9    N8    1.422831 S    
C2    C46   1.397165 S    
C29   C32   1.417682 A    
C35   C37   1.409503 A    
C44   C50   1.541954 S    
C36   C38   1.413508 A    
C37   N9    1.425718 S    
C63   H20   1.110249 S    
O4    C2    1.271628 A    
C11   C27   1.402298 A    
C80   H64   1.110824 S    
C53   C60   1.541996 S    
C70   H36   1.110558 S    
C29   C33   1.409353 A    
C41   C43   1.556884 S    
C78   H70   1.101321 S    
C41   H11   1.110107 S    
C55   C58   1.551843 S    
C14   H2    1.083196 S    
C15   H3    1.083144 S    
C65   H33   1.112131 S    
C43   H9    1.110063 S    
C9    C17   1.409139 A    
C5    N1    1.363606 A    
O7    Zn2   1.987557 S    
C10   C18   1.409245 A    
C66   H31   1.111981 S    
C53   C57   1.551848 S    
C13   C27   1.403375 A    
O5    C3    1.279476 A    
C25   C38   1.421688 A    
C7    C25   1.405418 A    
C30   C34   1.413665 A    
O6    C4    1.278642 A    
C26   C37   1.422583 A    
C8    C26   1.405592 A    
C45   C51   1.183211 T    
C6    O10   1.347601 S    
C19   C25   1.412899 A    
C55   C59   1.541996 S    
N3    C61   1.169397 T    
C58   C60   1.541996 S    
C47   C49   1.523254 S    
C68   C69   1.539391 S    
C23   C39   1.403125 A    
O3    Zn2   1.976370 S    
O8    C4    1.284171 A    
C24   C40   1.404407 A    
C44   H10   1.110066 S    
C30   C31   1.414828 A    
C55   H13   1.109978 S    
N2    C8    1.363206 A    
C76   H60   1.108893 S    
C35   C75   1.530080 S    
C77   H59   1.110415 S    
C54   C56   1.551850 S    
O7    C3    1.283946 A    
Zn1   N4    1.978183 S    
C71   H42   1.110345 S    
C64   H26   1.110593 S    
C20   C26   1.414498 A    
O1    Zn1   1.975008 S    
C36   C78   1.538447 S    
N7    H41   1.031803 S    
O3    C1    1.271626 A    
C73   H52   1.110870 S    
C12   C28   1.402018 A    
H18   C57   1.109977 S    
C67   H27   1.110913 S    
N2    C18   1.428002 S    
N9    C73   1.446512 S    
C42   C49   1.541818 S    
O6    Zn2   2.007293 S    
C41   C50   1.541813 S    
C21   C23   1.427706 A    
N8    C72   1.446109 S    
C16   H4    1.083122 S    
C10   C12   1.400120 A    
N7    C71   1.446103 S    
O8    Zn1   1.987557 S    
H17   C58   1.109979 S    
C19   C34   1.407977 A    
C72   H46   1.110334 S    
C59   C61   1.498645 S    
C47   N6    1.446698 S    
C75   H63   1.110832 S    
C63   H22   1.111253 S    
N8    H45   1.031807 S    
C11   H6    1.083524 S    
C39   H7    1.077072 S    
C41   C47   1.537379 S    
C63   H21   1.110591 S    
C40   H8    1.075791 S    
C75   H62   1.106357 S    
C22   C24   1.429079 A    
C69   C70   1.527043 S    
C7    O12   1.348001 S    
C15   C17   1.396224 A    
N10   H53   1.029898 S    
C6    C22   1.410928 A    
C16   C18   1.395258 A    
C53   H15   1.109986 S    
C10   N7    1.422661 S    
C79   C80   1.526140 S    
C44   C47   1.537964 S    
C54   H16   1.109984 S    
C14   C16   1.384647 A    
C19   C21   1.420527 A    
C3    C27   1.462039 S    
C20   C22   1.419927 A    
C56   C57   1.551848 S    
C9    C11   1.398966 A    
C1    C45   1.397184 S    
O2    Zn2   1.975007 S    
Zn2   N3    1.978183 S    
C23   C65   1.530939 S    
C24   C68   1.530197 S    
C13   H1    1.083097 S    
O5    Zn1   2.007293 S    
C57   C59   1.541998 S    
C75   C76   1.538564 S    
C71   H43   1.111630 S    
C56   H14   1.109980 S    
C43   C48   1.537972 S    
C38   N10   1.425783 S    
C5    O9    1.347535 S    
N5    C63   1.444963 S    
C42   C48   1.537374 S    
C67   H28   1.110869 S    
