data_mof_unit_14873.cif
_audit_creation_date              2012-12-10T16:48:45-0500
_audit_creation_method            fapswitch 2.2
_symmetry_space_group_name_H-M    P1
_symmetry_Int_Tables_number       1
_space_group_crystal_system       triclinic
_cell_length_a                    17.349041
_cell_length_b                    8.765317
_cell_length_c                    7.601255
_cell_angle_alpha                 103.781349
_cell_angle_beta                  90.762881
_cell_angle_gamma                 96.596056
_cell_volume                      1114.22198752

loop_
_atom_site_label
_atom_site_type_symbol
_atom_type_description
_atom_site_fract_x
_atom_site_fract_y
_atom_site_fract_z
_atom_type_partial_charge
C1    C     C_R   0.496356 0.200154 0.453962 0.804941
C2    C     C_R   0.503643 0.799846 0.546038 0.804954
C3    C     C_2   0.482724 0.031861 0.438065 -0.224434
C4    C     C_2   0.517274 0.968138 0.561936 -0.224435
C5    C     C_R   0.352272 0.507181 0.525490 0.771245
C6    C     C_R   0.647728 0.492819 0.474510 0.771244
C7    C     C_R   0.269521 0.519750 0.540091 -0.080753
C8    C     C_R   0.730479 0.480249 0.459910 -0.080752
C9    C     C_R   0.219685 0.418414 0.404734 -0.167995
C10   C     C_R   0.780315 0.581586 0.595267 -0.167993
C11   C     C_R   0.140917 0.430117 0.402390 -0.121033
C12   C     C_R   0.859082 0.569881 0.597610 -0.121032
C13   C     C_R   0.110169 0.542092 0.537886 0.128795
C14   C     C_R   0.889831 0.457904 0.462113 0.128798
C15   C     C_R   0.159450 0.644084 0.673824 -0.134306
C16   C     C_R   0.840549 0.355913 0.326175 -0.134307
C17   C     C_R   0.239663 0.635765 0.676411 0.008537
C18   C     C_R   0.760337 0.364234 0.323589 0.008535
C19   C     C_2   0.027239 0.560364 0.536302 -0.201362
C20   C     C_2   0.972761 0.439631 0.463697 -0.201362
Cu1   Cu    Cu3+1 0.508700 0.517250 0.683000 0.989101
Cu2   Cu    Cu3+1 0.491300 0.482750 0.317000 0.989103
H1    H     H_    0.242057 0.330927 0.298242 0.153228
H2    H     H_    0.757943 0.669074 0.701758 0.153228
H3    H     H_    0.988859 0.323463 0.401599 0.147798
H4    H     H_    0.011141 0.676533 0.598400 0.147798
H5    H     H_    0.135164 0.732609 0.775573 0.167285
H6    H     H_    0.864835 0.267387 0.224426 0.167283
H7    H     H_    0.895043 0.645965 0.708741 0.135861
H8    H     H_    0.104957 0.354033 0.291259 0.135862
N1    N     N_2   0.478180 0.456750 0.041980 0.025898
N2    N     N_2   0.521820 0.543250 0.958020 0.025898
O1    O     O_R   0.505650 0.286040 0.618880 -0.569424
O2    O     O_R   0.494350 0.713960 0.381120 -0.569419
O3    O     O_R   0.490960 0.256910 0.309800 -0.626643
O4    O     O_R   0.509040 0.743090 0.690200 -0.626646
O5    O     O_R   0.394600 0.516230 0.672450 -0.627402
O6    O     O_R   0.605400 0.483770 0.327550 -0.627399
O7    O     O_R   0.379910 0.487100 0.363380 -0.540875
O8    O     O_R   0.620090 0.512900 0.636620 -0.540877
C21   C     C_2   0.709270 0.244790 0.186169 0.385214
H9    H     H_    0.647253 0.225470 0.202120 0.095866
O9    O     O_2   0.736322 0.163876 0.053250 -0.552815
C22   C     C_2   0.290729 0.755211 0.813829 0.385214
H10   H     H_    0.352747 0.774525 0.797886 0.095872
O10   O     O_2   0.263676 0.836135 0.946739 -0.552827
C23   C     C_2   0.417733 0.946069 0.309009 0.392388
H11   H     H_    0.413113 0.968319 0.175425 0.079549
O11   O     O_2   0.366845 0.856470 0.354291 -0.513293
C24   C     C_2   0.582264 0.053932 0.690996 0.392402
H12   H     H_    0.586877 0.031697 0.824586 0.079544
O12   O     O_2   0.633156 0.143519 0.645711 -0.513293
N3    N     N_2   0.412969 0.365262 0.949268 -0.296940
H13   H     H_    0.414726 0.337093 0.813141 0.293451
C25   C     C_3   0.388857 0.220690 0.003367 -0.563486
H14   H     H_    0.338799 0.153333 0.914489 0.199366
H15   H     H_    0.368516 0.244082 0.142832 0.249118
H16   H     H_    0.436908 0.145537 0.986467 0.193104
N4    N     N_2   0.587031 0.634739 0.050732 -0.296939
H17   H     H_    0.585274 0.662907 0.186859 0.293451
C26   C     C_3   0.611143 0.779310 0.996633 -0.563479
H18   H     H_    0.661201 0.846667 0.085510 0.199361
H19   H     H_    0.563091 0.854464 0.013533 0.193105
H20   H     H_    0.631483 0.755918 0.857167 0.249120

loop_
_geom_bond_atom_site_label_1
_geom_bond_atom_site_label_2
_ccdc_geom_bond_type
C16   H6    S    
C26   H20   S    
C24   O12   D    
C25   H14   S    
C19   H4    S    
C15   C17   A    
C5    O5    A    
C12   H7    S    
C11   C13   A    
C21   H9    S    
C15   H5    S    
C23   H11   S    
C4    C24   S    
C9    C11   A    
C16   C18   A    
C2    O2    A    
C13   C15   A    
C24   H12   S    
C17   C22   S    
C1    O1    A    
N4    H17   S    
C23   O11   D    
C25   H15   S    
N1    N2    D    
N3    H13   S    
N1    N3    S    
Cu1   O4    S    
Cu2   O3    S    
C21   O9    D    
C25   H16   S    
Cu1   O8    S    
C10   C12   A    
Cu2   O7    S    
C3    C23   S    
C12   C14   A    
C6    O8    A    
N3    C25   S    
C26   H18   S    
Cu2   O2    S    
Cu1   N2    S    
C14   C16   A    
N4    C26   S    
Cu1   O1    S    
C20   H3    S    
C13   C19   S    
C3    C4    D    
Cu2   O6    S    
C2    C4    S    
C7    C9    A    
Cu1   O5    S    
C22   H10   S    
C1    O3    A    
C14   C20   S    
C26   H19   S    
Cu2   N1    S    
C18   C21   S    
C2    O4    A    
C1    C3    S    
C5    C7    S    
C5    O7    A    
C9    H1    S    
C6    C8    S    
N2    N4    S    
C10   H2    S    
C6    O6    A    
Cu1   Cu2   S    
C8    C10   A    
C8    C18   A    
C19   C20   D    
C11   H8    S    
C22   O10   D    
C7    C17   A    
