data_mof_unit_50823.cif
_audit_creation_date              2013-03-05T15:49:18-0500
_audit_creation_method            fapswitch 2.2
_symmetry_space_group_name_H-M    P1
_symmetry_Int_Tables_number       1
_space_group_crystal_system       triclinic
_cell_length_a                    20.67289
_cell_length_b                    22.824976
_cell_length_c                    6.943377
_cell_angle_alpha                 89.999889
_cell_angle_beta                  87.105142
_cell_angle_gamma                 90.000049
_cell_volume                      3272.10860487

loop_
_atom_site_label
_atom_site_type_symbol
_atom_site_description
_atom_site_fract_x
_atom_site_fract_y
_atom_site_fract_z
_atom_type_partial_charge
O1    O     O_R   0.387100 0.552640 0.378490 -0.589328
O2    O     O_R   0.612900 0.052640 0.621510 -0.589382
O3    O     O_R   0.249610 0.559600 0.072250 -0.591863
O4    O     O_R   0.750390 0.059600 0.927750 -0.591828
O5    O     O_R   0.249120 0.447360 0.902040 -0.609085
O6    O     O_R   0.750880 0.947360 0.097960 -0.609086
C1    C     C_R   0.224978 0.571133 0.243570 1.040087
C2    C     C_R   0.775022 0.071132 0.756430 1.040037
O7    O     O_R   0.386610 0.559560 0.048860 -0.569148
O8    O     O_R   0.613390 0.059560 0.951140 -0.569085
O9    O     O_R   0.387100 0.447320 0.878470 -0.597719
O10   O     O_R   0.612900 0.947320 0.121530 -0.597718
C3    C     C_R   0.406546 0.575950 0.214910 1.002494
C4    C     C_R   0.593456 0.075952 0.785089 1.002505
O11   O     O_R   0.249120 0.552680 0.402050 -0.582301
O12   O     O_R   0.750880 0.052680 0.597950 -0.582357
O13   O     O_3   0.318110 0.463180 0.223790 -0.290898
O14   O     O_3   0.681890 0.963180 0.776210 -0.290895
V1    V     V_3+5 0.318110 0.506830 0.948930 1.221126
V2    V     V_3+5 0.681890 0.006830 0.051070 1.221142
O15   O     O_R   0.386610 0.440400 0.548840 -0.597333
O16   O     O_R   0.613390 0.940400 0.451160 -0.597327
C5    C     C_R   0.407327 0.425229 0.714394 0.922653
C6    C     C_R   0.592673 0.925228 0.285607 0.922660
O17   O     O_R   0.249610 0.440440 0.572240 -0.611780
O18   O     O_R   0.750390 0.940440 0.427760 -0.611776
C7    C     C_R   0.227242 0.426447 0.743802 0.974931
C8    C     C_R   0.772759 0.926447 0.256198 0.974936
V3    V     V_3+5 0.318110 0.493170 0.448930 1.204957
V4    V     V_3+5 0.681890 0.993170 0.551070 1.204919
O19   O     O_3   0.318110 0.536820 0.723940 -0.249016
O20   O     O_3   0.681890 0.036820 0.276060 -0.249033
C9    C     C_R   0.172778 0.384377 0.755770 -0.202071
C10   C     C_R   0.827225 0.884380 0.244231 -0.202097
C11   C     C_R   0.166798 0.342830 0.609739 -0.293676
C12   C     C_R   0.833216 0.842842 0.390286 -0.293635
C13   C     C_R   0.112452 0.306330 0.604734 0.437586
C14   C     C_R   0.887564 0.806346 0.395290 0.437605
C15   C     C_R   0.062547 0.310721 0.752992 -0.079784
C16   C     C_R   0.937462 0.810731 0.247007 -0.079793
C17   C     C_R   0.068413 0.353041 0.902439 0.378388
C18   C     C_R   0.931585 0.853040 0.097528 0.378394
C19   C     C_R   0.124087 0.388647 0.902223 -0.261970
C20   C     C_R   0.875907 0.888642 0.097750 -0.261975
C21   C     C_R   0.900416 0.182702 0.893447 -0.182020
C22   C     C_R   0.099576 0.682693 0.106523 -0.181963
C23   C     C_R   0.845177 0.147452 0.899809 -0.039262
C24   C     C_R   0.154813 0.647439 0.100160 -0.039330
C25   C     C_R   0.875169 0.110170 0.580862 -0.158197
C26   C     C_R   0.124849 0.610195 0.419174 -0.158135
C27   C     C_R   0.931530 0.144315 0.577077 -0.019900
C28   C     C_R   0.068490 0.644342 0.422964 -0.019963
C29   C     C_R   0.944270 0.180866 0.733075 -0.035872
C30   C     C_R   0.055737 0.680875 0.266931 -0.035855
C31   C     C_2   0.003223 0.273936 0.747581 -0.236805
C32   C     C_2   0.996786 0.773946 0.252423 -0.236782
C33   C     C_2   0.004764 0.215163 0.732126 0.782732
C34   C     C_2   0.995243 0.715174 0.267883 0.782714
C35   C     C_R   0.831830 0.110800 0.743575 -0.097047
C36   C     C_R   0.168173 0.610805 0.256426 -0.097080
H1    H     H_    0.203994 0.340003 0.494420 0.180521
H2    H     H_    0.796026 0.840020 0.505624 0.180526
H3    H     H_    0.813116 0.148680 0.027976 0.168876
H4    H     H_    0.186862 0.648653 0.971964 0.168861
H5    H     H_    0.866506 0.082000 0.459295 0.129201
H6    H     H_    0.133521 0.582039 0.540768 0.129204
H7    H     H_    0.909923 0.210186 0.016040 0.169243
H8    H     H_    0.090059 0.710163 0.983905 0.169237
H9    H     H_    0.128690 0.421218 0.014181 0.175391
H10   H     H_    0.871294 0.921205 0.985773 0.175413
H11   H     H_    0.956556 0.295851 0.762487 0.148156
H12   H     H_    0.043453 0.795861 0.237527 0.148179
H13   H     H_    0.965159 0.142327 0.452433 0.159668
H14   H     H_    0.034872 0.642369 0.547637 0.159658
C37   C     C_R   0.575083 0.364368 0.658834 -0.110731
C38   C     C_R   0.424923 0.864360 0.341289 -0.110732
H15   H     H_    0.532465 0.449485 0.641713 0.114702
H16   H     H_    0.467539 0.949478 0.358401 0.114703
H17   H     H_    0.666201 0.285233 0.659612 0.182659
H18   H     H_    0.333808 0.785218 0.340625 0.182631
H19   H     H_    0.623397 0.381306 0.626287 0.131275
H20   H     H_    0.376611 0.881294 0.373898 0.131273
C39   C     C_R   0.460958 0.383135 0.712453 -0.095021
C40   C     C_R   0.539043 0.883134 0.287554 -0.095033
C41   C     C_R   0.477767 0.097716 0.819103 -0.168594
C42   C     C_R   0.522234 0.597718 0.180796 -0.168583
C43   C     C_R   0.424277 0.134441 0.822886 -0.057592
C44   C     C_R   0.575723 0.634445 0.176967 -0.057593
C45   C     C_R   0.431682 0.194402 0.794239 -0.127900
C46   C     C_R   0.568319 0.694404 0.205652 -0.127904
C47   C     C_R   0.493610 0.219861 0.761314 0.066175
C48   C     C_R   0.506393 0.719860 0.238670 0.066180
C49   C     C_R   0.549371 0.181910 0.756958 -0.073192
C50   C     C_R   0.450634 0.681906 0.243090 -0.073209
C51   C     C_R   0.501671 0.281915 0.732653 0.093186
C52   C     C_R   0.498332 0.781912 0.267361 0.093178
C53   C     C_R   0.564777 0.304342 0.691199 0.100959
C54   C     C_R   0.435228 0.804335 0.308895 0.100967
C55   C     C_R   0.617946 0.267263 0.685746 -0.278541
C56   C     C_R   0.382062 0.767253 0.314413 -0.278545
C57   C     C_R   0.611433 0.207662 0.723023 0.332729
C58   C     C_R   0.388575 0.707653 0.277128 0.332756
C59   C     C_R   0.449713 0.322988 0.744124 -0.220704
C60   C     C_R   0.550287 0.822989 0.255845 -0.220704
C61   C     C_R   0.523535 0.403334 0.668422 -0.169780
C62   C     C_R   0.476468 0.903329 0.331659 -0.169771
C63   C     C_R   0.540363 0.119906 0.785803 -0.168072
C64   C     C_R   0.459640 0.619904 0.214191 -0.168102
H21   H     H_    0.400269 0.309999 0.776877 0.104348
H22   H     H_    0.599729 0.810002 0.223041 0.104352
H23   H     H_    0.470184 0.051171 0.841781 0.108498
H24   H     H_    0.529816 0.551175 0.158075 0.108500
H25   H     H_    0.387636 0.219618 0.797294 0.121209
H26   H     H_    0.612364 0.719623 0.202548 0.121207
H27   H     H_    0.376262 0.116145 0.847901 0.136720
H28   H     H_    0.623736 0.616152 0.151879 0.136717
N1    N     N_R   0.669833 0.175667 0.739713 0.199837
O21   O     O_R   0.711357 0.174582 0.592595 -0.418344
O22   O     O_R   0.690390 0.168036 0.911802 -0.430914
N2    N     N_R   0.330174 0.675652 0.260556 0.199841
O23   O     O_R   0.309539 0.668077 0.088532 -0.430985
O24   O     O_R   0.288718 0.674502 0.407839 -0.418232
F1    F     F_    0.062179 0.185984 0.716394 -0.639865
F2    F     F_    0.937828 0.685995 0.283618 -0.639859
N3    N     N_R   0.018510 0.361667 0.053424 0.254583
O25   O     O_R   0.978157 0.320141 0.104865 -0.367737
O26   O     O_R   0.015817 0.410530 0.150220 -0.378396
N4    N     N_R   0.981477 0.861658 0.946499 0.254626
O27   O     O_R   0.021871 0.820151 0.895189 -0.367758
O28   O     O_R   0.984123 0.910493 0.849540 -0.378428
N5    N     N_R   0.107795 0.267451 0.442559 0.265741
O29   O     O_R   0.053023 0.260139 0.361584 -0.353882
O30   O     O_R   0.159976 0.244905 0.360077 -0.354252
N6    N     N_R   0.892230 0.767474 0.557481 0.265734
O31   O     O_R   0.947008 0.760163 0.638427 -0.353898
O32   O     O_R   0.840053 0.744932 0.640002 -0.354263

loop_
_geom_bond_atom_site_label_1
_geom_bond_atom_site_label_2
_geom_bond_distance
_ccdc_geom_bond_type
V4    O20   2.153790 S    
O6    C8    1.299916 A    
O13   V3    1.706536 S    
C48   C52   1.438798 A    
O4    C2    1.297073 A    
V1    O19   1.705579 S    
N4    O27   1.300692 A    
C15   C17   1.427315 A    
C7    C9    1.478911 S    
C46   H26   1.076520 S    
O9    V1    2.011967 S    
C5    C39   1.466634 S    
H17   C55   1.085372 S    
C11   C13   1.400513 A    
C28   H14   1.083332 S    
N1    O22   1.299981 A    
C2    C35   1.482010 S    
C23   H3    1.082792 S    
C42   C44   1.386798 A    
C24   H4    1.082798 S    
C33   F1    1.360595 S    
C38   C54   1.402936 A    
C37   C53   1.402937 A    
C2    O12   1.301077 A    
C21   C23   1.395817 A    
O7    C3    1.298883 A    
C9    C11   1.398340 A    
O5    C7    1.299914 A    
C46   C48   1.413993 A    
O7    V1    2.008617 S    
C15   C31   1.488308 S    
N2    O24   1.300942 A    
C16   C32   1.488307 S    
C52   C54   1.417362 A    
C21   H7    1.083337 S    
C26   C28   1.400905 A    
O3    V1    2.016626 S    
O14   V4    1.706533 S    
C45   C47   1.413992 A    
C43   H27   1.082790 S    
V2    O20   1.705582 S    
C18   N4    1.446687 S    
C24   C36   1.408189 A    
C16   C18   1.427337 A    
C8    C10   1.478917 S    
C19   H9    1.083290 S    
H18   C56   1.085371 S    
C17   C19   1.408899 A    
O10   V2    2.011962 S    
C18   C20   1.408911 A    
C3    C64   1.486833 S    
C12   H2    1.083691 S    
C48   C50   1.441030 A    
O18   C8    1.295846 A    
C53   C55   1.386230 A    
C28   C30   1.402652 A    
O11   V3    2.007981 S    
C22   C24   1.395817 A    
C41   C43   1.386794 A    
O15   C5    1.293989 A    
O17   V3    2.016050 S    
C45   H25   1.076520 S    
C23   C35   1.408184 A    
C51   C59   1.424907 A    
C9    C19   1.397633 A    
C17   N3    1.446663 S    
C10   C20   1.397633 A    
O8    C4    1.298883 A    
C49   C57   1.420061 A    
C29   C33   1.475147 S    
C37   H19   1.084125 S    
N6    O32   1.301563 A    
C1    O11   1.301078 A    
C25   C27   1.400902 A    
O15   V3    2.009112 S    
C13   N5    1.440732 S    
C27   C29   1.402650 A    
C44   H28   1.082790 S    
C42   H24   1.084206 S    
C22   H8    1.083340 S    
C25   H5    1.083161 S    
C47   C49   1.441037 A    
C40   C62   1.392713 A    
C50   C64   1.440121 A    
C22   C30   1.400569 A    
O1    V3    2.011317 S    
C11   H1    1.083692 S    
C20   H10   1.083286 S    
C26   H6    1.083163 S    
C39   C59   1.407815 A    
C4    C63   1.486828 S    
C55   C57   1.390044 A    
C44   C46   1.390318 A    
O18   V4    2.016054 S    
C54   C56   1.386228 A    
C31   C33   1.346027 D    
N3    O25   1.300692 A    
C40   C60   1.407815 A    
O16   C6    1.293988 A    
O1    C3    1.299466 A    
O2    V4    2.011322 S    
C38   H20   1.084124 S    
N5    O29   1.300141 A    
C1    C36   1.482018 S    
C58   N2    1.420691 S    
N2    O23   1.299999 A    
C60   H22   1.077468 S    
C56   C58   1.390034 A    
C30   C34   1.475140 S    
C38   C62   1.387042 A    
O16   V4    2.009112 S    
C32   H12   1.086985 S    
C34   F2    1.360596 S    
C42   C64   1.397986 A    
C27   H13   1.083330 S    
N5    O30   1.301561 A    
N4    O28   1.301895 A    
C51   C53   1.417355 A    
C37   C61   1.387042 A    
N6    O31   1.300140 A    
O5    V1    2.007375 S    
O17   C7    1.295844 A    
O6    V2    2.007376 S    
O10   C6    1.295712 A    
O3    C1    1.297079 A    
H15   C61   1.083815 S    
C25   C35   1.406082 A    
H16   C62   1.083817 S    
C59   H21   1.077467 S    
C57   N1    1.420720 S    
C52   C60   1.424908 A    
C6    C40   1.466640 S    
C26   C36   1.406088 A    
V3    O19   2.153792 S    
N1    O21   1.300917 A    
C49   C63   1.440122 A    
C12   C14   1.400510 A    
C14   C16   1.423677 A    
O8    V2    2.008618 S    
O9    C5    1.295708 A    
O13   V1    2.152866 S    
C10   C12   1.398336 A    
C32   C34   1.346025 D    
O14   V2    2.152870 S    
C14   N6    1.440736 S    
O2    C4    1.299463 A    
C21   C29   1.400572 A    
O4    V2    2.016623 S    
C41   H23   1.084209 S    
C50   C58   1.420049 A    
C47   C51   1.438791 A    
C13   C15   1.423675 A    
N3    O26   1.301885 A    
C43   C45   1.390316 A    
C39   C61   1.392711 A    
C41   C63   1.397983 A    
O12   V4    2.007979 S    
C31   H11   1.086986 S    
