data_mof_unit_39646.cif
_audit_creation_date              2012-12-11T15:35:34-0500
_audit_creation_method            fapswitch 2.2
_symmetry_space_group_name_H-M    P1
_symmetry_Int_Tables_number       1
_space_group_crystal_system       triclinic
_cell_length_a                    17.422292
_cell_length_b                    24.36556
_cell_length_c                    14.831704
_cell_angle_alpha                 89.674213
_cell_angle_beta                  124.87621
_cell_angle_gamma                 90.621697
_cell_volume                      5164.96169756

loop_
_atom_site_label
_atom_site_type_symbol
_atom_type_description
_atom_site_fract_x
_atom_site_fract_y
_atom_site_fract_z
_atom_type_partial_charge
C1    C     C_R   0.309006 0.121592 0.908686 -0.135520
C2    C     C_R   0.557285 0.152136 0.909296 -0.130617
C3    C     C_R   0.268988 0.546828 0.264707 -0.129985
C4    C     C_1   0.087521 0.948250 0.395017 0.095778
C5    C     C_1   0.102823 0.044636 0.397497 0.093099
C6    C     C_1   0.630159 0.449772 0.396951 0.095250
C7    C     C_1   0.621616 0.546179 0.386951 0.097938
C8    C     C_R   0.057294 0.348523 0.908647 -0.132057
C9    C     C_R   0.057132 0.652093 0.909038 -0.138115
C10   C     C_R   0.541907 0.001392 0.715526 0.006535
C11   C     C_R   0.052138 0.500558 0.727699 0.002248
C12   C     C_R   0.813544 0.001136 0.351853 0.014386
C13   C     C_R   0.325247 0.500550 0.301280 0.010969
C14   C     C_R   0.618701 0.183573 0.000011 0.045740
C15   C     C_R   0.679809 0.855092 0.002924 0.022512
C16   C     C_R   0.118650 0.683547 0.999492 0.048500
C17   C     C_R   0.308004 0.879112 0.909138 -0.128979
C18   C     C_R   0.119605 0.317595 0.998853 0.045945
C19   C     C_3   0.056779 0.949398 0.574067 -0.406010
C20   C     C_3   0.058864 0.051807 0.572331 -0.404456
C21   C     C_3   0.559436 0.450672 0.547493 -0.412008
C22   C     C_3   0.562823 0.552740 0.540483 -0.396298
C23   C     C_3   0.950573 0.947497 0.494420 -0.414021
C24   C     C_3   0.952269 0.050122 0.505378 -0.410049
C25   C     C_3   0.453814 0.452975 0.465990 -0.398432
C26   C     C_3   0.459466 0.555089 0.447989 -0.412542
C27   C     C_3   0.062650 0.999418 0.425243 0.061414
C28   C     C_R   0.842341 0.648359 0.907422 -0.143605
C29   C     C_3   0.586413 0.497108 0.411897 0.070751
C30   C     C_3   0.098751 0.000042 0.549876 0.278817
C31   C     C_3   0.608607 0.499980 0.531322 0.277926
C32   C     C_3   0.915806 0.000871 0.425891 0.366356
C33   C     C_3   0.427265 0.500413 0.383403 0.357721
C34   C     C_R   0.405627 0.869282 0.092763 0.192652
C35   C     C_R   0.407073 0.131823 0.092346 0.191963
C36   C     C_R   0.906011 0.369092 0.092957 0.190215
C37   C     C_R   0.942016 0.651519 0.091219 0.171525
C38   C     C_3   0.954345 0.004671 0.353790 -0.471638
C39   C     C_R   0.807967 0.379308 0.909491 -0.125293
C40   C     C_3   0.477930 0.492935 0.326145 -0.484777
C41   C     C_R   0.166362 0.807575 0.896087 -0.157139
C42   C     C_R   0.178392 0.200054 0.895369 -0.159230
C43   C     C_R   0.666641 0.307627 0.896832 -0.157179
C44   C     C_R   0.803424 0.768452 0.923273 -0.154330
C45   C     C_R   0.617967 0.262880 0.896751 -0.157625
C46   C     C_R   0.756025 0.812932 0.925215 -0.176775
C47   C     C_R   0.117791 0.762762 0.895998 -0.165077
C48   C     C_R   0.129563 0.243825 0.895165 -0.160041
C49   C     C_R   0.641262 0.240887 0.996795 0.133262
C50   C     C_R   0.649261 0.151283 0.091629 -0.101027
C51   C     C_R   0.741178 0.815857 0.008214 0.142926
C52   C     C_R   0.140864 0.740897 0.996032 0.132568
C53   C     C_R   0.145624 0.261906 0.994028 0.134858
C54   C     C_R   0.697617 0.271375 0.093705 -0.138293
C55   C     C_R   0.775096 0.776365 0.090577 -0.162140
C56   C     C_R   0.196636 0.771601 0.092748 -0.133489
C57   C     C_R   0.197466 0.229606 0.088830 -0.142330
C58   C     C_R   0.243434 0.817917 0.091934 -0.128508
C59   C     C_R   0.244763 0.184280 0.088027 -0.126294
C60   C     C_R   0.744482 0.317646 0.092896 -0.126691
C61   C     C_R   0.685880 0.873783 0.093584 -0.112113
C62   C     C_R   0.820101 0.732269 0.087436 -0.122698
C63   C     C_R   0.237864 0.831013 0.996258 0.145128
C64   C     C_R   0.243172 0.173399 0.994303 0.148592
C65   C     C_R   0.738407 0.330921 0.996990 0.145341
C66   C     C_R   0.833856 0.728236 0.004040 0.166892
C67   C     C_R   0.606251 0.952240 0.627477 -0.156694
C68   C     C_R   0.602198 0.051580 0.622626 -0.147567
C69   C     C_R   0.108234 0.451153 0.631046 -0.149615
C70   C     C_R   0.108358 0.550484 0.630087 -0.148455
C71   C     C_R   0.614873 0.951891 0.540400 -0.153898
C72   C     C_R   0.149552 0.651275 0.091174 -0.102188
C73   C     C_R   0.611637 0.051286 0.536293 -0.154218
C74   C     C_R   0.108038 0.451034 0.537671 -0.153817
C75   C     C_R   0.108662 0.550447 0.537001 -0.154009
C76   C     C_R   0.606541 0.001259 0.486707 0.121715
C77   C     C_R   0.098304 0.500663 0.483899 0.126455
C78   C     C_R   0.552596 0.045295 0.305446 -0.093231
C79   C     C_R   0.552825 0.955211 0.306370 -0.092566
C80   C     C_R   0.045134 0.545406 0.302516 -0.101173
C81   C     C_R   0.049677 0.455154 0.305051 -0.099405
C82   C     C_R   0.588399 0.001859 0.659392 0.135896
C83   C     C_R   0.149115 0.349013 0.090988 -0.106998
C84   C     C_R   0.096765 0.500793 0.669135 0.133382
C85   C     C_R   0.251815 0.954437 0.691819 0.123400
C86   C     C_R   0.252633 0.045525 0.691947 0.128597
C87   C     C_R   0.754999 0.454142 0.690863 0.126805
C88   C     C_R   0.756453 0.545323 0.690030 0.139068
C89   C     C_R   0.315325 0.140473 0.000556 -0.029215
C90   C     C_R   0.313005 0.861468 0.001373 -0.030420
C91   C     C_R   0.872868 0.678806 0.999686 -0.029969
C92   C     C_R   0.813322 0.361429 0.001822 -0.029483
C93   C     C_R   0.570918 0.000475 0.370711 0.019908
C94   C     C_R   0.592736 0.867018 0.910449 -0.116284
C95   C     C_R   0.062952 0.500373 0.367740 0.018768
C96   C     C_R   0.203899 0.999964 0.627102 -0.064849
C97   C     C_R   0.711376 0.499630 0.623400 -0.069333
C98   C     C_R   0.515641 0.046645 0.747471 -0.072419
C99   C     C_R   0.508549 0.955435 0.738571 -0.081453
C100  C     C_R   0.020248 0.546089 0.752582 -0.066405
C101  C     C_R   0.019839 0.454585 0.752445 -0.073106
C102  C     C_R   0.760238 0.954770 0.298466 -0.153399
C103  C     C_R   0.761952 0.046908 0.294341 -0.136971
C104  C     C_R   0.268738 0.453886 0.262161 -0.135077
H1    H     H_    0.248634 0.121350 0.824660 0.130767
H2    H     H_    0.928783 0.046330 0.560965 0.170325
H3    H     H_    0.420281 0.458951 0.510442 0.171266
H4    H     H_    0.418857 0.563553 0.483135 0.169988
H5    H     H_    0.931387 0.911223 0.439987 0.166125
H6    H     H_    0.925827 0.089729 0.460991 0.161525
H7    H     H_    0.430234 0.412502 0.424195 0.161244
H8    H     H_    0.448263 0.589684 0.392378 0.171236
H9    H     H_    0.920341 0.972444 0.288621 0.160458
H10   H     H_    0.932028 0.044534 0.308739 0.166036
H11   H     H_    0.456659 0.452388 0.283548 0.166766
H12   H     H_    0.247741 0.879424 0.825123 0.128355
H13   H     H_    0.452233 0.524180 0.259783 0.162068
H14   H     H_    0.154272 0.818853 0.818500 0.123955
H15   H     H_    0.171755 0.191723 0.819757 0.129277
H16   H     H_    0.654365 0.318988 0.819183 0.125552
H17   H     H_    0.813984 0.764547 0.858363 0.130785
H18   H     H_    0.570856 0.242416 0.819071 0.120714
H19   H     H_    0.728454 0.843704 0.861096 0.118693
H20   H     H_    0.071032 0.742129 0.818417 0.120814
H21   H     H_    0.087938 0.266649 0.819407 0.119372
H22   H     H_    0.711474 0.257439 0.171037 0.129911
H23   H     H_    0.793773 0.660731 0.823099 0.151807
H24   H     H_    0.760877 0.777091 0.152743 0.128342
H25   H     H_    0.210099 0.757806 0.169972 0.141933
H26   H     H_    0.206556 0.241168 0.164734 0.131306
H27   H     H_    0.290131 0.839977 0.167824 0.153116
H28   H     H_    0.287974 0.160716 0.162592 0.151356
H29   H     H_    0.791631 0.339516 0.168916 0.151526
H30   H     H_    0.840075 0.699922 0.147315 0.142189
H31   H     H_    0.603900 0.913273 0.661112 0.110005
H32   H     H_    0.595642 0.090770 0.651267 0.118554
H33   H     H_    0.106484 0.412029 0.664542 0.116666
H34   H     H_    0.747310 0.380062 0.825760 0.131001
H35   H     H_    0.106586 0.589611 0.662797 0.117814
H36   H     H_    0.617129 0.912622 0.508500 0.130345
H37   H     H_    0.611290 0.090375 0.501330 0.134003
H38   H     H_    0.105796 0.411779 0.502685 0.133145
H39   H     H_    0.107577 0.589622 0.501846 0.131473
H40   H     H_    0.578115 0.086084 0.335018 0.132811
H41   H     H_    0.578082 0.914701 0.337290 0.132795
H42   H     H_    0.061386 0.587181 0.329760 0.137815
H43   H     H_    0.075637 0.414842 0.336752 0.134501
H44   H     H_    0.527079 0.089430 0.739432 0.102011
H45   H     H_    0.076422 0.951588 0.659845 0.167743
H46   H     H_    0.506322 0.914069 0.712633 0.107368
H47   H     H_    0.030710 0.588793 0.742682 0.105370
H48   H     H_    0.029651 0.412047 0.742299 0.101559
H49   H     H_    0.775601 0.912757 0.326231 0.100895
H50   H     H_    0.780216 0.089764 0.313659 0.100054
H51   H     H_    0.288733 0.411324 0.275245 0.101168
H52   H     H_    0.289395 0.589539 0.281494 0.106086
H53   H     H_    0.688835 0.164688 0.176261 0.103788
H54   H     H_    0.742001 0.867534 0.178589 0.098675
H55   H     H_    0.189826 0.664800 0.175695 0.121068
H56   H     H_    0.086803 0.054601 0.661048 0.165702
H57   H     H_    0.188871 0.335119 0.175301 0.104944
H58   H     H_    0.561640 0.850576 0.829168 0.110614
H59   H     H_    0.509428 0.165955 0.825651 0.121771
H60   H     H_    0.009678 0.334579 0.824869 0.123840
H61   H     H_    0.009101 0.665872 0.825405 0.123164
H62   H     H_    0.083610 0.910042 0.566192 0.194323
H63   H     H_    0.079531 0.089959 0.550086 0.200120
H64   H     H_    0.582960 0.411130 0.535136 0.201813
H65   H     H_    0.595354 0.590823 0.535683 0.200906
H66   H     H_    0.576731 0.450553 0.632361 0.167533
H67   H     H_    0.571409 0.553344 0.620909 0.173635
H68   H     H_    0.918387 0.941977 0.540647 0.164919
I1    I     I_    0.477514 0.818662 0.235006 -0.472688
I2    I     I_    0.480225 0.182055 0.235137 -0.482385
I3    I     I_    0.978618 0.317755 0.234081 -0.480258
I4    I     I_    0.048225 0.690841 0.239788 -0.494476
I5    I     I_    0.266513 0.878550 0.633926 -0.456570
I6    I     I_    0.267544 0.122445 0.635339 -0.479827
I7    I     I_    0.770167 0.375698 0.641215 -0.483109
I8    I     I_    0.783821 0.618477 0.633926 -0.504470
N1    N     N_R   0.392140 0.102630 0.941800 -0.040257
N2    N     N_R   0.525160 0.972040 0.206160 -0.048860
N3    N     N_R   0.025160 0.527960 0.206160 -0.044216
N4    N     N_R   0.025160 0.472040 0.206160 -0.048417
N5    N     N_R   0.317870 0.971120 0.792790 -0.073243
N6    N     N_R   0.317870 0.028880 0.792790 -0.072733
N7    N     N_R   0.817870 0.471120 0.792790 -0.072200
N8    N     N_R   0.817870 0.528880 0.792790 -0.068171
N9    N     N_R   0.473480 0.027920 0.793480 -0.035326
N10   N     N_R   0.473480 0.972080 0.793480 -0.035035
N11   N     N_R   0.973480 0.527920 0.793480 -0.033549
N12   N     N_R   0.392140 0.897370 0.941800 -0.041340
N13   N     N_R   0.973480 0.472080 0.793480 -0.034243
N14   N     N_R   0.681610 0.971120 0.207570 -0.038072
N15   N     N_R   0.681610 0.028880 0.207570 -0.038557
N16   N     N_R   0.181610 0.471120 0.207570 -0.040158
N17   N     N_R   0.181610 0.528880 0.207570 -0.036892
N18   N     N_R   0.605410 0.102620 0.056870 -0.045642
N19   N     N_R   0.605410 0.897380 0.056870 -0.039150
N20   N     N_R   0.105410 0.602620 0.056870 -0.041865
N21   N     N_R   0.105410 0.397380 0.056870 -0.043859
N22   N     N_R   0.549680 0.896430 0.944180 -0.034944
N23   N     N_R   0.892140 0.602630 0.941800 -0.044851
N24   N     N_R   0.549680 0.103570 0.944180 -0.042633
N25   N     N_R   0.049680 0.396430 0.944180 -0.041152
N26   N     N_R   0.049680 0.603570 0.944180 -0.040214
N27   N     N_1   0.105663 0.908360 0.369245 -0.034271
N28   N     N_1   0.133262 0.079787 0.373723 -0.036578
N29   N     N_1   0.663374 0.412970 0.382527 -0.037441
N30   N     N_1   0.648207 0.584426 0.365521 -0.039428
N31   N     N_R   0.892140 0.397370 0.941800 -0.039780
N32   N     N_R   0.450890 0.896450 0.057150 -0.061889
N33   N     N_R   0.450890 0.103550 0.057150 -0.061503
N34   N     N_R   0.950890 0.396450 0.057150 -0.060791
N35   N     N_R   0.950890 0.603550 0.057150 -0.060855
N36   N     N_R   0.525160 0.027960 0.206160 -0.048759
Ni1   Ni    Ni4+2 0.433410 0.064680 0.868830 0.248173
Ni2   Ni    Ni4+2 0.433410 0.935320 0.868830 0.259105
Ni3   Ni    Ni4+2 0.933410 0.564680 0.868830 0.242164
Ni4   Ni    Ni4+2 0.933410 0.435320 0.868830 0.252211
Ni5   Ni    Ni4+2 0.565650 0.934380 0.131170 0.232016
Ni6   Ni    Ni4+2 0.565650 0.065620 0.131170 0.224199
Ni7   Ni    Ni4+2 0.065650 0.434380 0.131170 0.229796
Ni8   Ni    Ni4+2 0.065650 0.565620 0.131170 0.231990

loop_
_geom_bond_atom_site_label_1
_geom_bond_atom_site_label_2
_ccdc_geom_bond_type
N4    Ni7   S    
N25   Ni4   S    
C7    C29   S    
C26   H8    S    
C55   H24   S    
C65   C92   S    
C69   H33   S    
C71   H36   S    
C44   C66   A    
C16   C72   A    
N12   Ni2   S    
C83   N21   A    
N17   Ni8   S    
N35   Ni8   S    
C61   N19   A    
C15   C94   A    
C34   C90   A    
C50   N18   A    
C79   H41   S    
C6    N29   T    
C73   H37   S    
C12   C102  A    
N31   Ni4   S    
C21   C31   S    
C59   C64   A    
C21   H64   S    
N23   N35   A    
N18   Ni6   S    
C9    C16   A    
C79   C93   A    
C9    N26   A    
C24   H6    S    
C71   C76   A    
C81   C95   A    
C85   C96   A    
C42   H15   S    
C57   C59   A    
C14   C49   S    
C78   C93   A    
C49   C54   A    
C3    N17   A    
C55   C62   A    
N10   Ni2   S    
C44   H17   S    
C86   I6    S    
C63   C90   S    
N16   Ni7   S    
C80   N3    A    
C24   C32   S    
C10   C98   A    
N12   N32   A    
C30   C96   S    
C103  H50   S    
C18   C53   S    
C36   N34   A    
C48   H21   S    
C5    C27   S    
C77   C95   S    
C23   H68   S    
C20   C24   S    
C101  N13   A    
N3    Ni8   S    
C81   H43   S    
C74   C77   A    
N19   N22   A    
C1    C89   A    
N19   Ni5   S    
C19   H62   S    
C32   C38   S    
C41   H14   S    
C70   C84   A    
C94   H58   S    
C51   C55   A    
C56   H25   S    
C3    C13   A    
C28   H23   S    
C43   H16   S    
N13   Ni4   S    
C36   C92   A    
C80   H42   S    
N14   N15   A    
C83   H57   S    
C39   H34   S    
C70   H35   S    
C17   N12   A    
C12   C32   S    
C27   C30   S    
N2    N36   A    
C28   N23   A    
C10   C99   A    
C103  N15   A    
C64   C89   S    
C98   N9    A    
C102  N14   A    
C99   H46   S    
C44   C46   A    
C88   I8    S    
N32   Ni5   S    
C100  H47   S    
C85   N5    A    
C48   C53   A    
C23   H5    S    
N6    Ni1   S    
C59   H28   S    
C99   N10   A    
C33   C40   S    
N5    Ni2   S    
C62   C66   A    
N21   N25   A    
N20   Ni8   S    
C57   H26   S    
C68   H32   S    
C2    N24   A    
C12   C103  A    
C21   H66   S    
C8    H60   S    
C78   N36   A    
C38   H9    S    
C37   C91   A    
C87   N7    A    
N9    Ni1   S    
C68   C73   A    
N1    Ni1   S    
C46   C51   A    
C10   C82   S    
N9    N10   A    
C8    C18   A    
C11   C100  A    
C80   C95   A    
C19   C23   S    
N3    N4    A    
N11   N13   A    
C13   C33   S    
C67   H31   S    
C78   H40   S    
C76   C93   S    
C72   N20   A    
C54   H22   S    
N33   Ni6   S    
C26   C33   S    
C45   C49   A    
C58   H27   S    
C43   C65   A    
C22   C31   S    
C6    C29   S    
C18   C83   A    
C41   C47   A    
C39   N31   A    
C69   C74   A    
C11   C101  A    
C42   C48   A    
C86   C96   A    
C13   C104  A    
C43   C45   A    
C102  H49   S    
C66   C91   S    
C22   C26   S    
C34   N32   A    
C22   H67   S    
C36   I3    S    
N14   Ni5   S    
C94   N22   A    
C35   C89   A    
C60   C65   A    
C86   N6    A    
C15   C51   S    
N18   N24   A    
C11   C84   S    
C73   C76   A    
C46   H19   S    
C100  N11   A    
C24   H2    S    
C41   C63   A    
N11   Ni3   S    
C42   C64   A    
C39   C92   A    
N26   Ni3   S    
C4    C27   S    
C25   H3    S    
C4    N27   T    
N8    Ni3   S    
C58   C63   A    
C20   H63   S    
C21   C25   S    
N2    Ni5   S    
N20   N26   A    
C35   I2    S    
C17   C90   A    
C16   C52   S    
N16   N17   A    
C53   C57   A    
C2    H59   S    
N15   Ni6   S    
C75   H39   S    
C1    N1    A    
C47   C52   A    
C45   H18   S    
C104  N16   A    
C101  H48   S    
N5    N6    A    
C79   N2    A    
N23   Ni3   S    
N24   Ni1   S    
C54   C60   A    
C68   C82   A    
C23   C32   S    
N22   Ni2   S    
C9    H61   S    
C88   C97   A    
N7    N8    A    
C29   C31   S    
C69   C84   A    
C61   H54   S    
C20   C30   S    
C37   I4    S    
C72   H55   S    
C62   H30   S    
C47   H20   S    
C14   C50   A    
C98   H44   S    
C38   H10   S    
C29   C40   S    
C3    H52   S    
C19   H45   S    
C56   C58   A    
C40   H13   S    
C28   C91   A    
C67   C71   A    
C31   C97   S    
C104  H51   S    
C74   H38   S    
C8    N25   A    
C2    C14   A    
N36   Ni6   S    
C22   H65   S    
N34   Ni7   S    
C25   H7    S    
C87   I7    S    
N7    Ni4   S    
C40   H11   S    
C88   N8    A    
N31   N34   A    
C7    N30   T    
C67   C82   A    
C85   I5    S    
C20   H56   S    
C75   C77   A    
C1    H1    S    
C70   C75   A    
C34   I1    S    
C15   C61   A    
N21   Ni7   S    
N1    N33   A    
C27   C38   S    
C81   N4    A    
C87   C97   A    
C50   H53   S    
C19   C30   S    
C60   H29   S    
C37   N35   A    
C26   H4    S    
C52   C56   A    
C17   H12   S    
C25   C33   S    
C5    N28   T    
C35   N33   A    
