data_mof_unit_46321.cif
_audit_creation_date              2012-12-11T15:56:02-0500
_audit_creation_method            fapswitch 2.2
_symmetry_space_group_name_H-M    P1
_symmetry_Int_Tables_number       1
_space_group_crystal_system       triclinic
_cell_length_a                    11.165655
_cell_length_b                    11.12866
_cell_length_c                    18.653894
_cell_angle_alpha                 90.969805
_cell_angle_beta                  91.491581
_cell_angle_gamma                 59.06111
_cell_volume                      1987.41826294

loop_
_atom_site_label
_atom_site_type_symbol
_atom_type_description
_atom_site_fract_x
_atom_site_fract_y
_atom_site_fract_z
_atom_type_partial_charge
C1    C     C_R   0.387972 0.702979 0.389929 0.563364
C2    C     C_R   0.205393 0.377775 0.214280 -0.102418
C3    C     C_R   0.211450 0.394395 0.288459 0.021092
C4    C     C_R   0.380515 0.347852 0.391724 0.543861
C5    C     C_R   0.874266 0.731280 0.405122 -0.087987
C6    C     C_R   0.956332 0.601244 0.437797 -0.080394
C7    C     C_R   0.059126 0.488243 0.398907 -0.051438
C8    C     C_R   0.082907 0.504196 0.326683 0.038926
C9    C     C_R   0.343002 0.310259 0.322891 0.138324
C10   C     C_R   0.927526 0.311883 0.193135 -0.030573
C11   C     C_R   0.020609 0.258549 0.252858 -0.060069
C12   C     C_R   0.594159 0.119366 0.174209 -0.008266
C13   C     C_R   0.972081 0.282273 0.322256 -0.043834
C14   C     C_R   0.736949 0.413942 0.276135 -0.172813
C15   C     C_R   0.784912 0.399052 0.206453 -0.126756
C16   C     C_R   0.777675 0.378032 0.404326 0.532543
C17   C     C_3   0.138805 0.116081 0.276197 0.592925
C18   C     C_3   0.084122 0.146322 0.351394 0.381221
C19   C     C_R   0.830706 0.348581 0.333519 -0.012997
C20   C     C_R   0.385302 0.786202 0.163064 0.007833
C21   C     C_R   0.489534 0.774933 0.211165 -0.054035
C22   C     C_R   0.490026 0.742017 0.282349 0.004827
C23   C     C_R   0.324998 0.284829 0.175333 0.003615
C24   C     C_R   0.321225 0.679943 0.257199 0.206105
C25   C     C_R   0.326911 0.706929 0.183840 -0.064063
C26   C     C_3   0.560971 0.851273 0.233747 -0.194492
C27   C     C_3   0.561506 0.811719 0.310814 0.335185
C28   C     C_R   0.341308 0.774662 0.602607 0.589651
C29   C     C_R   0.394766 0.712669 0.310401 0.043945
C30   C     C_R   0.300495 0.321935 0.811000 -0.058834
C31   C     C_R   0.425246 0.229825 0.778819 -0.009998
C32   C     C_R   0.440289 0.225216 0.706926 0.065246
C33   C     C_R   0.195640 0.397258 0.690508 0.298899
C34   C     C_R   0.456744 0.202359 0.284436 0.293229
C35   C     C_R   0.180926 0.402573 0.765678 0.285678
C36   C     C_3   0.569337 0.196906 0.796427 0.140438
C37   C     C_3   0.587459 0.193374 0.716047 0.375467
C38   C     C_R   0.330821 0.317631 0.661857 -0.043213
C39   C     C_R   0.814979 0.324423 0.836242 -0.075244
C40   C     C_R   0.369897 0.348123 0.594187 0.547063
C41   C     C_R   0.730486 0.455347 0.805283 -0.062407
C42   C     C_R   0.722625 0.468160 0.732079 -0.062707
C43   C     C_R   0.861014 0.219023 0.716485 0.348144
C44   C     C_R   0.869169 0.204993 0.791282 -0.151674
C45   C     C_R   0.454937 0.201631 0.210228 -0.013455
C46   C     C_3   0.716428 0.595658 0.816741 0.357030
C47   C     C_3   0.712381 0.606792 0.735807 0.792553
C48   C     C_R   0.795320 0.353221 0.686431 0.019606
C49   C     C_R   0.242994 0.939032 0.814296 -0.039403
C50   C     C_R   0.171129 0.883671 0.779384 0.051758
C51   C     C_R   0.198816 0.840589 0.709534 -0.008794
C52   C     C_R   0.762901 0.377685 0.610591 0.590846
C53   C     C_R   0.341000 0.943623 0.698252 0.290826
C54   C     C_R   0.319482 0.979412 0.771798 -0.040226
C55   C     C_3   0.142115 0.771490 0.798584 0.591862
C56   C     C_R   0.988945 0.632687 0.292795 -0.089966
C57   C     C_3   0.180040 0.718327 0.721651 0.176094
C58   C     C_R   0.294132 0.856124 0.669288 0.043723
C59   C     C_R   0.972576 0.290037 0.118817 0.510553
C60   C     C_R   0.305353 0.259748 0.101328 0.547527
C61   C     C_R   0.314207 0.889617 0.102928 0.549212
C62   C     C_R   0.879833 0.310099 0.906093 0.570061
C63   C     C_R   0.293157 0.289222 0.885163 0.561042
C64   C     C_R   0.876960 0.935358 0.144580 0.256486
C65   C     C_R   0.236020 0.958834 0.891903 0.577052
C66   C     C_R   0.832325 0.063075 0.180394 -0.118853
C67   C     C_R   0.889934 0.746547 0.332486 -0.132652
C68   C     C_R   0.692294 0.156355 0.191770 -0.165196
C69   C     C_R   0.638731 0.995736 0.133125 -0.052715
C70   C     C_R   0.777661 0.906215 0.116112 0.275519
Cr1   Cr    Cr6+3 0.601740 0.606840 0.505840 1.112735
Cr2   Cr    Cr6+3 0.291500 0.601560 0.495070 1.043689
Cr3   Cr    Cr6+3 0.606780 0.291630 0.499130 1.112835
Cr4   Cr    Cr6+3 0.062440 0.063060 0.008240 1.077746
Cr5   Cr    Cr6+3 0.062950 0.375000 0.998920 1.064133
Cr6   Cr    Cr6+3 0.374550 0.061770 0.992470 1.100786
F1    F     F_    0.267708 0.101255 0.270476 -0.588254
F2    F     F_    0.172066 0.160525 0.399678 -0.588575
F3    F     F_    0.476740 0.924709 0.354220 -0.482799
F4    F     F_    0.682410 0.061545 0.689758 -0.481238
F5    F     F_    0.919469 0.103207 0.674086 -0.590579
F6    F     F_    0.589794 0.689600 0.847170 -0.577132
F7    F     F_    0.588378 0.711329 0.708427 -0.557068
F8    F     F_    0.825708 0.606616 0.707991 -0.525188
F9    F     F_    0.230995 0.679978 0.851043 -0.582217
H1    H     H_    0.796414 0.819464 0.435599 0.167344
H2    H     H_    0.663870 0.734790 0.334592 0.117603
H3    H     H_    0.573145 0.282959 0.825768 0.082255
H4    H     H_    0.599969 0.279283 0.696132 0.073141
H5    H     H_    0.824907 0.846700 0.306650 0.141924
H6    H     H_    0.928331 0.101410 0.813851 0.184603
H7    H     H_    0.806432 0.596133 0.842665 0.170322
H8    H     H_    0.369426 0.030852 0.796537 0.186212
H9    H     H_    0.093630 0.722429 0.688709 0.218019
H10   H     H_    0.904791 0.088266 0.203356 0.148742
H11   H     H_    0.660909 0.249870 0.222747 0.119769
H12   H     H_    0.942192 0.588630 0.493763 0.148088
H13   H     H_    0.999619 0.650220 0.237105 0.180651
H14   H     H_    0.568099 0.961851 0.116566 0.178935
H15   H     H_    0.105636 0.436310 0.186481 0.136816
H16   H     H_    0.649890 0.104579 0.315860 0.307591
H17   H     H_    0.123646 0.020882 0.196159 0.323138
H18   H     H_    0.217763 0.641667 0.323814 0.365169
H19   H     H_    0.913804 0.733670 0.068258 0.374111
H20   H     H_    0.099691 0.442995 0.597985 0.311471
H21   H     H_    0.058802 0.533442 0.835985 0.344402
H22   H     H_    0.735894 0.057493 0.845894 0.355050
H23   H     H_    0.125196 0.391131 0.426855 0.181304
H24   H     H_    0.408328 0.968443 0.608132 0.348694
H25   H     H_    0.977893 0.755590 0.803940 0.363090
H26   H     H_    0.060383 0.851268 0.183904 0.362129
H27   H     H_    0.381605 0.594835 0.742840 0.358241
H28   H     H_    0.626183 0.468919 0.284888 0.092062
H29   H     H_    0.709849 0.447157 0.162647 0.159336
H30   H     H_    0.045494 0.078552 0.370867 0.125603
H31   H     H_    0.269699 0.682142 0.144664 0.201819
H32   H     H_    0.490969 0.962982 0.224498 0.232192
H33   H     H_    0.668990 0.798957 0.213429 0.094871
O1    O     O_R   0.748670 0.497520 0.427970 -0.535239
O2    O     O_R   0.417470 0.174910 0.067830 -0.518420
O3    O     O_R   0.375160 0.946380 0.070880 -0.519534
O4    O     O_R   0.476470 0.723930 0.429450 -0.443906
O5    O     O_R   0.160500 0.919670 0.926690 -0.417922
O6    O     O_R   0.933140 0.190380 0.936050 -0.519302
O7    O     O_R   0.909010 0.403210 0.925030 -0.497057
O8    O     O_R   0.179590 0.361290 0.918480 -0.494787
O9    O     O_R   0.391360 0.170840 0.907510 -0.474085
O10   O     O_R   0.350950 0.942600 0.922260 -0.426716
O11   O     O_3   0.166650 0.166610 0.999880 -0.354299
O12   O     O_R   0.300170 0.471020 0.567120 -0.481674
O13   O     O_R   0.264730 0.744140 0.416740 -0.505144
O14   O     O_R   0.309440 0.472410 0.418220 -0.567775
O15   O     O_R   0.501630 0.260530 0.414310 -0.460556
O16   O     O_R   0.727920 0.305730 0.428950 -0.517749
O17   O     O_R   0.738670 0.496020 0.588600 -0.454168
O18   O     O_R   0.467190 0.722540 0.578350 -0.437244
O19   O     O_R   0.254720 0.742640 0.577370 -0.484594
O20   O     O_3   0.568600 0.092354 0.319946 -0.620103
O21   O     O_3   0.134086 0.003037 0.247714 -0.746643
O22   O     O_3   0.237980 0.628328 0.272659 -0.745384
O23   O     O_R   0.491630 0.259030 0.574940 -0.463375
O24   O     O_3   0.812556 0.785321 0.078051 -0.683445
O25   O     O_3   0.078897 0.477992 0.647979 -0.577339
O26   O     O_3   0.049710 0.487257 0.792242 -0.639764
O27   O     O_3   0.648111 0.064492 0.828126 -0.560645
O28   O     O_3   0.418838 0.983220 0.659847 -0.601006
O29   O     O_3   0.000432 0.829477 0.813623 -0.652248
O30   O     O_3   0.015151 0.834271 0.142093 -0.708755
O31   O     O_3   0.306158 0.588570 0.716843 -0.719830
O32   O     O_R   0.718640 0.304340 0.577850 -0.457162
O33   O     O_3   0.500010 0.500010 0.500020 -0.328259
O34   O     O_R   0.186620 0.923750 0.087000 -0.501530
O35   O     O_R   0.957350 0.194160 0.084660 -0.494260
O36   O     O_R   0.935120 0.407280 0.085350 -0.487946
O37   O     O_R   0.203800 0.365060 0.067090 -0.499567

loop_
_geom_bond_atom_site_label_1
_geom_bond_atom_site_label_2
_ccdc_geom_bond_type
C66   C68   A    
C21   C26   S    
C23   C45   A    
C22   C29   A    
Cr3   O32   S    
C41   C42   A    
Cr1   O4    S    
Cr4   O6    S    
H24   O28   S    
C26   H32   S    
C56   H13   S    
C5    C67   A    
C16   O16   A    
C8    C56   A    
C62   O6    A    
C59   O35   A    
C7    C8    A    
C39   C41   A    
C56   C67   A    
Cr3   O23   S    
C53   C54   A    
C33   O25   S    
C12   C68   A    
C26   C27   S    
C68   H11   S    
C49   C65   S    
C13   C18   S    
Cr6   O3    S    
C36   C37   S    
C27   F3    S    
C10   C15   A    
Cr1   O17   S    
C30   C31   A    
H22   O27   S    
C46   H7    S    
C20   C25   A    
C49   C54   A    
C61   O3    A    
C20   C61   S    
C1    O4    A    
C54   H8    S    
C46   F6    S    
Cr1   O33   S    
C57   O31   S    
C41   C46   S    
C51   C57   S    
C64   C70   A    
C43   C48   A    
Cr2   O12   S    
C53   C58   A    
C35   O26   S    
C42   C47   S    
Cr4   O5    S    
C2    H15   S    
C21   C22   A    
C64   O30   S    
Cr4   O34   S    
C1    C29   S    
C59   O36   A    
Cr2   O14   S    
C23   C60   S    
C37   F4    S    
C70   O24   S    
C13   C19   A    
C6    H12   S    
C24   C25   A    
C4    O14   A    
C3    C8    S    
C16   O1    A    
Cr1   O18   S    
C51   C58   A    
C42   C48   A    
C50   C51   A    
C32   C37   S    
C34   O20   S    
C67   H5    S    
C36   H3    S    
Cr4   O35   S    
Cr5   O7    S    
C64   C66   A    
C55   F9    S    
C43   C44   A    
C65   O10   A    
C3    C9    A    
C40   O23   A    
Cr6   O11   S    
C55   O29   S    
C31   C32   A    
C14   C15   A    
C48   C52   S    
C18   F2    S    
Cr2   O33   S    
C17   F1    S    
C17   C18   S    
C15   H29   S    
C17   O21   S    
C34   C45   A    
Cr6   O2    S    
C47   F8    S    
C20   C21   A    
C27   H2    S    
H27   O31   S    
C6    C7    A    
C44   H6    S    
C7    H23   S    
C5    H1    S    
C69   H14   S    
Cr2   O19   S    
C12   C69   A    
Cr3   O15   S    
C32   C38   A    
C57   H9    S    
C55   C57   S    
C9    C34   A    
C43   F5    S    
H19   O24   S    
C25   H31   S    
H25   O29   S    
C24   O22   S    
Cr2   O13   S    
C52   O17   A    
C39   C62   S    
C40   O12   A    
C46   C47   S    
C11   C17   S    
C28   O18   A    
C14   C19   A    
C28   O19   A    
C26   H33   S    
C12   C45   S    
C1    O13   A    
C18   H30   S    
H20   O25   S    
C62   O7    A    
H16   O20   S    
H21   O26   S    
C39   C44   A    
C28   C58   S    
C14   H28   S    
C30   C35   A    
C50   C55   S    
Cr1   O1    S    
C22   C27   S    
Cr5   O8    S    
C2    C3    A    
C60   O37   A    
H26   O30   S    
C38   C40   S    
C11   C13   A    
Cr5   O36   S    
C5    C6    A    
C16   C19   S    
Cr6   O10   S    
C53   O28   S    
C33   C35   A    
C37   H4    S    
C60   O2    A    
H17   O21   S    
C65   O5    A    
C69   C70   A    
C61   O34   A    
C63   O9    A    
C63   O8    A    
C10   C11   A    
H18   O22   S    
C47   F7    S    
Cr5   O37   S    
C36   O27   S    
C24   C29   A    
Cr3   O16   S    
C52   O32   A    
C49   C50   A    
Cr4   O11   S    
C2    C23   A    
Cr6   O9    S    
C31   C36   S    
C4    O15   A    
C33   C38   A    
C4    C9    S    
C30   C63   S    
C10   C59   S    
Cr3   O33   S    
Cr5   O11   S    
C66   H10   S    
