data_mof_unit_30372.cif
_audit_creation_date              2013-03-05T16:13:55-0500
_audit_creation_method            fapswitch 2.2
_symmetry_space_group_name_H-M    P1
_symmetry_Int_Tables_number       1
_space_group_crystal_system       triclinic
_cell_length_a                    10.870969
_cell_length_b                    10.046855
_cell_length_c                    17.583511
_cell_angle_alpha                 90.00437
_cell_angle_beta                  94.440829
_cell_angle_gamma                 89.998505
_cell_volume                      1914.68881573

loop_
_atom_site_label
_atom_site_type_symbol
_atom_site_description
_atom_site_fract_x
_atom_site_fract_y
_atom_site_fract_z
_atom_type_partial_charge
O1    O     O_R   0.316770 0.614620 0.500000 -0.606322
O2    O     O_R   0.683230 0.385380 0.500000 -0.613335
O3    O     O_R   0.683230 0.614620 0.500000 -0.606499
O4    O     O_R   0.316770 0.385380 0.500000 -0.613406
C1    C     C_R   0.260641 0.500456 0.503161 1.029750
C2    C     C_R   0.739345 0.500450 0.496793 1.029468
O5    O     O_R   0.500010 0.614710 0.389120 -0.633878
O6    O     O_R   0.499990 0.385290 0.610880 -0.621941
O7    O     O_R   0.499990 0.614710 0.610880 -0.633861
O8    O     O_R   0.500010 0.385290 0.389120 -0.621927
C3    C     C_R   0.062397 0.382050 0.513841 0.157604
C4    C     C_R   0.936477 0.625038 0.498391 0.260365
C5    C     C_R   0.937565 0.382022 0.486058 0.157757
C6    C     C_R   0.063460 0.625037 0.501263 0.260547
C7    C     C_R   0.500063 0.500231 0.354270 1.032247
C8    C     C_R   0.499899 0.500243 0.645728 1.032351
Zn1   Zn    Zn3+2 0.500000 0.653120 0.500000 1.022668
Zn2   Zn    Zn3+2 0.500000 0.346880 0.500000 1.022917
C9    C     C_R   0.872218 0.502869 0.491702 -0.273409
C10   C     C_R   0.127740 0.502888 0.508134 -0.273272
N1    N     N_R   0.500000 0.857200 0.500000 -0.131088
N2    N     N_R   0.500000 0.142800 0.500000 -0.128998
C11   C     C_R   0.400363 0.544895 0.843415 0.225735
C12   C     C_R   0.392986 0.444312 0.148882 0.226217
C13   C     C_R   0.599137 0.544756 0.156472 0.225485
C14   C     C_R   0.606333 0.444048 0.851169 0.226368
C15   C     C_R   0.401733 0.553544 0.764193 0.171015
C16   C     C_R   0.392543 0.450024 0.228574 0.168981
C17   C     C_R   0.597991 0.553375 0.235707 0.170994
C18   C     C_R   0.607064 0.449881 0.771502 0.168904
C19   C     C_R   0.502744 0.500993 0.728292 -0.350581
C20   C     C_R   0.497033 0.500955 0.271697 -0.350629
C21   C     C_R   0.575418 0.071612 0.552160 0.166687
C22   C     C_R   0.431430 0.928586 0.444494 0.187971
C23   C     C_R   0.424597 0.071602 0.447836 0.166643
C24   C     C_R   0.568594 0.928593 0.555498 0.187994
C25   C     C_R   0.501859 0.488704 0.885931 -0.223548
C26   C     C_R   0.497449 0.488781 0.114029 -0.223621
C27   C     C_1   0.500519 0.482932 0.966266 0.232175
C28   C     C_1   0.498672 0.482964 0.033688 0.232266
N3    N     N_R   0.294312 0.590053 0.880325 0.258930
O9    O     O_R   0.306908 0.673887 0.936807 -0.301249
O10   O     O_R   0.184311 0.550087 0.856132 -0.203898
N4    N     N_R   0.285545 0.399510 0.103171 0.261543
O11   O     O_R   0.294402 0.305543 0.052953 -0.295270
O12   O     O_R   0.179116 0.455714 0.109992 -0.203506
N5    N     N_R   0.705152 0.589738 0.119470 0.258830
O13   O     O_R   0.692549 0.673656 0.063037 -0.301216
O14   O     O_R   0.815137 0.549547 0.143541 -0.203792
N6    N     N_R   0.713511 0.398888 0.896972 0.261364
O15   O     O_R   0.704391 0.304069 0.946648 -0.295057
O16   O     O_R   0.819879 0.455736 0.890870 -0.203801
N7    N     N_R   0.301767 0.618584 0.720870 0.242835
O17   O     O_R   0.265738 0.736222 0.740746 -0.276224
O18   O     O_R   0.235065 0.552991 0.669222 -0.326416
N8    N     N_R   0.285411 0.407237 0.265299 0.222852
O19   O     O_R   0.240334 0.481275 0.317140 -0.410303
O20   O     O_R   0.227186 0.299097 0.243251 -0.309007
N9    N     N_R   0.698140 0.618245 0.278954 0.242898
O21   O     O_R   0.734287 0.735823 0.259064 -0.275930
O22   O     O_R   0.764807 0.552575 0.330581 -0.326288
N10   N     N_R   0.714332 0.407098 0.734899 0.222782
O23   O     O_R   0.759455 0.481045 0.683041 -0.410259
O24   O     O_R   0.772630 0.299072 0.757075 -0.308601
C29   C     C_3   0.665636 0.144591 0.607753 -0.450211
C30   C     C_3   0.800765 0.121345 0.593764 -0.532218
H1    H     H_    0.809792 0.067998 0.539319 0.307226
H2    H     H_    0.848442 0.218636 0.592065 0.267175
H3    H     H_    0.849365 0.065376 0.641462 0.281072
H4    H     H_    0.654018 0.250561 0.603066 0.287786
H5    H     H_    0.648683 0.120998 0.667495 0.228384
C31   C     C_3   0.368741 0.856490 0.376325 -0.339937
C32   C     C_3   0.450663 0.855301 0.309281 -0.696715
H6    H     H_    0.452145 0.954111 0.281441 0.252453
H7    H     H_    0.547092 0.829453 0.328841 0.303077
H8    H     H_    0.414472 0.781918 0.265950 0.257942
H9    H     H_    0.339916 0.756298 0.392058 0.272420
H10   H     H_    0.279934 0.900482 0.355891 0.232186
C33   C     C_3   0.334406 0.144568 0.392233 -0.450273
C34   C     C_3   0.199268 0.121265 0.406175 -0.531899
H11   H     H_    0.190196 0.067761 0.460564 0.307175
H12   H     H_    0.151593 0.218546 0.407956 0.267233
H13   H     H_    0.150704 0.065418 0.358410 0.281141
H14   H     H_    0.345994 0.250541 0.396942 0.287776
H15   H     H_    0.351426 0.120988 0.332497 0.228355
C35   C     C_3   0.631370 0.856489 0.623632 -0.340011
C36   C     C_3   0.549564 0.855317 0.690732 -0.696753
H16   H     H_    0.548180 0.954107 0.718609 0.252506
H17   H     H_    0.453102 0.829542 0.671215 0.302998
H18   H     H_    0.585774 0.781878 0.734019 0.258042
H19   H     H_    0.660120 0.756276 0.607883 0.272381
H20   H     H_    0.720226 0.900442 0.644002 0.232125
N11   N     N_R   0.115334 0.273530 0.560315 0.235542
O25   O     O_R   0.061228 0.158637 0.562778 -0.320476
O26   O     O_R   0.201947 0.298186 0.613728 -0.286707
N12   N     N_R   0.875197 0.751403 0.500201 0.244838
O27   O     O_R   0.822002 0.801014 0.437654 -0.269701
O28   O     O_R   0.896406 0.828052 0.559325 -0.363045
N13   N     N_R   0.884629 0.273417 0.439643 0.235570
O29   O     O_R   0.938845 0.158587 0.437143 -0.320455
O30   O     O_R   0.797887 0.297946 0.386291 -0.286608
N14   N     N_R   0.124711 0.751392 0.499264 0.244550
O31   O     O_R   0.177752 0.801369 0.561760 -0.269950
O32   O     O_R   0.103457 0.827750 0.440025 -0.363007

loop_
_geom_bond_atom_site_label_1
_geom_bond_atom_site_label_2
_geom_bond_distance
_ccdc_geom_bond_type
C30   H2    1.107876 S    
C36   H16   1.107556 S    
N11   O25   1.297791 A    
O2    Zn2   2.029107 S    
N3    O10   1.301312 A    
C32   H6    1.107568 S    
O3    C2    1.302424 A    
C16   N8    1.440384 S    
C21   C29   1.518717 S    
C7    C20   1.449756 S    
N5    O14   1.301311 A    
C1    C10   1.454363 S    
N7    O17   1.301356 A    
C8    C19   1.449729 S    
C2    C9    1.454336 S    
C31   H9    1.096124 S    
O1    C1    1.302415 A    
O7    C8    1.303163 A    
C17   C20   1.410682 A    
C35   H19   1.096083 S    
C14   N6    1.437606 S    
C18   C19   1.411964 A    
C6    N14   1.435204 S    
C30   H3    1.109135 S    
C29   H4    1.074539 S    
C21   C24   1.440241 A    
N8    O19   1.301307 A    
C22   C23   1.440202 A    
N3    O9    1.301282 A    
N10   O24   1.301285 A    
C17   N9    1.435303 S    
O5    Zn1   1.987465 S    
N12   O28   1.299896 A    
N6    O16   1.301565 A    
C11   C15   1.396960 A    
C13   N5    1.439432 S    
C31   C32   1.531538 S    
O4    Zn2   2.029088 S    
C3    N11   1.454282 S    
O5    C7    1.303191 A    
C30   H1    1.108096 S    
N9    O21   1.301356 A    
N11   O26   1.301164 A    
C32   H7    1.108502 S    
O2    C2    1.310430 A    
C34   H13   1.109148 S    
N4    O12   1.301271 A    
N7    O18   1.297219 A    
C13   C17   1.396930 A    
C3    C10   1.414088 A    
N9    O22   1.297225 A    
C5    C9    1.414030 A    
C15   C19   1.410776 A    
C6    C10   1.412747 A    
C16   C20   1.411973 A    
C34   H12   1.107845 S    
C27   C28   1.187228 T    
N1    C24   1.382036 A    
C35   C36   1.531517 S    
C34   H11   1.108135 S    
N1    C22   1.382031 A    
C24   C35   1.516341 S    
C11   C25   1.402594 A    
Zn1   N1    2.050362 S    
C5    N13   1.454301 S    
N10   O23   1.301318 A    
N2    C23   1.381446 A    
C13   C26   1.402650 A    
C12   C26   1.404499 A    
N5    O13   1.301278 A    
N12   O27   1.301521 A    
N6    O15   1.301477 A    
N14   O32   1.299903 A    
O7    Zn1   1.987521 S    
N13   O30   1.301163 A    
C4    C6    1.377442 A    
C14   C18   1.402701 A    
C36   H17   1.108481 S    
C12   N4    1.437858 S    
C32   H8    1.110117 S    
C22   C31   1.516321 S    
C33   H15   1.106208 S    
N4    O11   1.301248 A    
N2    C21   1.381495 A    
Zn2   N2    2.050362 S    
C12   C16   1.402815 A    
O4    C1    1.310452 A    
C15   N7    1.435302 S    
C14   C25   1.404356 A    
O1    Zn1   2.029108 S    
C11   N3    1.439424 S    
N13   O29   1.297786 A    
O8    C7    1.307373 A    
C18   N10   1.440468 S    
C25   C27   1.414978 S    
C29   H5    1.106191 S    
C26   C28   1.414985 S    
C3    C5    1.406262 A    
C33   H14   1.074551 S    
O8    Zn2   1.987522 S    
C4    C9    1.412678 A    
C23   C33   1.518630 S    
N8    O20   1.301275 A    
O3    Zn1   2.029087 S    
N14   O31   1.301533 A    
O6    Zn2   1.987463 S    
C33   C34   1.526083 S    
O6    C8    1.307391 A    
C29   C30   1.526074 S    
C36   H18   1.110123 S    
C31   H10   1.096714 S    
C4    N12   1.435214 S    
C35   H20   1.096718 S    
