data_mof_unit_16103.cif
_audit_creation_date              2012-12-10T19:11:04-0500
_audit_creation_method            fapswitch 2.2
_symmetry_space_group_name_H-M    P1
_symmetry_Int_Tables_number       1
_space_group_crystal_system       triclinic
_cell_length_a                    10.830022
_cell_length_b                    9.068283
_cell_length_c                    7.790801
_cell_angle_alpha                 89.957591
_cell_angle_beta                  89.74156
_cell_angle_gamma                 90.406758
_cell_volume                      765.104970573

loop_
_atom_site_label
_atom_site_type_symbol
_atom_type_description
_atom_site_fract_x
_atom_site_fract_y
_atom_site_fract_z
_atom_type_partial_charge
C1    C     C_R   0.499844 0.220078 0.500031 0.832135
C2    C     C_R   0.259414 0.499135 0.500803 0.839193
C3    C     C_R   0.740685 0.507246 0.499064 0.830267
C4    C     C_R   0.499431 0.779898 0.499974 0.819145
C5    C     C_1   0.499489 0.065389 0.500029 -0.192389
C6    C     C_3   0.068316 0.457131 0.680247 0.182163
C7    C     C_3   0.069877 0.396463 0.368250 0.087781
C8    C     C_3   0.926892 0.475696 0.680455 0.156572
C9    C     C_3   0.927697 0.390850 0.376220 0.137897
C10   C     C_1   0.499321 0.934529 0.499940 -0.186967
C11   C     C_3   0.080944 0.678499 0.469737 0.431271
C12   C     C_3   0.931461 0.677139 0.438039 0.464012
C13   C     C_3   0.121921 0.510739 0.502234 -0.170066
C14   C     C_3   0.879054 0.516543 0.496361 -0.161466
Cu1   Cu    Cu3+1 0.500000 0.500010 0.669080 0.994679
Cu2   Cu    Cu3+1 0.500000 0.500010 0.330920 1.005062
H1    H     H_    0.087488 0.336431 0.693713 0.002730
H2    H     H_    0.104032 0.284957 0.406613 0.050260
H3    H     H_    0.885508 0.366629 0.717564 0.065027
H4    H     H_    0.899728 0.283106 0.435229 0.037972
N1    N     N_1   0.500000 0.499970 0.076820 -0.048584
N2    N     N_1   0.500000 0.499970 0.923180 -0.047868
O1    O     O_R   0.500000 0.288400 0.642760 -0.585350
O2    O     O_R   0.500000 0.288400 0.357240 -0.577545
O3    O     O_R   0.317700 0.499990 0.642790 -0.583129
O4    O     O_R   0.317700 0.499990 0.357210 -0.540177
O5    O     O_R   0.682300 0.499990 0.642790 -0.576072
O6    O     O_R   0.682300 0.499990 0.357210 -0.542048
O7    O     O_R   0.500000 0.711620 0.642810 -0.580936
O8    O     O_R   0.500000 0.711620 0.357190 -0.592395
O9    O     O_3   0.120025 0.532291 0.821624 -0.635938
H5    H     H_    0.172312 0.461741 0.885310 0.353235
O10   O     O_3   0.111635 0.424233 0.200363 -0.706343
H6    H     H_    0.111269 0.328438 0.138530 0.323139
O11   O     O_3   0.889799 0.581020 0.801854 -0.691361
H7    H     H_    0.888697 0.530314 0.914464 0.376940
O12   O     O_3   0.876170 0.396380 0.210776 -0.691042
H8    H     H_    0.883665 0.296267 0.160315 0.317918
N3    N     N_2   0.129404 0.760674 0.620144 -0.344590
H9    H     H_    0.224382 0.771450 0.619861 0.256720
C15   C     C_3   0.072599 0.868484 0.732087 -0.522379
H10   H     H_    0.135200 0.889944 0.842022 0.191252
H11   H     H_    0.986168 0.827265 0.790906 0.291760
H12   H     H_    0.062147 0.975282 0.665408 0.177749
N4    N     N_2   0.148528 0.735633 0.318095 -0.434797
H13   H     H_    0.159339 0.670823 0.211346 0.324042
C16   C     C_3   0.157969 0.891789 0.280380 -0.718456
H14   H     H_    0.081546 0.925204 0.194708 0.226845
H15   H     H_    0.245969 0.913257 0.210799 0.237859
H16   H     H_    0.159380 0.960108 0.397915 0.231475
N5    N     N_2   0.867887 0.793629 0.536574 -0.395820
H17   H     H_    0.790735 0.764269 0.606614 0.268349
C17   C     C_3   0.862482 0.946290 0.479061 -0.716479
H18   H     H_    0.859882 0.020103 0.592546 0.206235
H19   H     H_    0.776430 0.968163 0.407604 0.219267
H20   H     H_    0.942379 0.976982 0.398998 0.248155
N6    N     N_2   0.908548 0.699469 0.252955 -0.409798
H21   H     H_    0.961915 0.642576 0.166586 0.319732
C18   C     C_3   0.790307 0.742939 0.182941 -0.536569
H22   H     H_    0.753974 0.655745 0.096815 0.255385
H23   H     H_    0.802761 0.845332 0.106540 0.198313
H24   H     H_    0.720655 0.762157 0.283653 0.228028

loop_
_geom_bond_atom_site_label_1
_geom_bond_atom_site_label_2
_ccdc_geom_bond_type
Cu2   O6    S    
C6    C8    S    
C9    C14   S    
C1    O1    A    
Cu2   N1    S    
C16   H16   S    
C15   H11   S    
C15   H10   S    
C9    H4    S    
Cu1   O5    S    
C4    O7    A    
C7    C13   S    
C11   C12   S    
C7    H2    S    
N1    N2    T    
C17   H20   S    
C3    O5    A    
C6    O9    S    
C18   H22   S    
C2    O4    A    
C16   H15   S    
C17   H18   S    
C6    C13   S    
C11   N3    S    
C7    O10   S    
N6    H21   S    
O12   H8    S    
C3    C14   S    
C1    C5    S    
C12   N6    S    
Cu1   O1    S    
C3    O6    A    
C12   C14   S    
Cu1   O7    S    
C2    O3    A    
C17   H19   S    
Cu2   O4    S    
N6    C18   S    
C15   H12   S    
C11   N4    S    
C8    H3    S    
C18   H23   S    
Cu1   Cu2   S    
Cu2   O8    S    
N5    H17   S    
C6    H1    S    
C16   H14   S    
C11   C13   S    
C12   N5    S    
O10   H6    S    
N3    C15   S    
C1    O2    A    
Cu2   O2    S    
C9    O12   S    
N4    C16   S    
N3    H9    S    
C7    C9    S    
C2    C13   S    
C18   H24   S    
C8    C14   S    
Cu1   O3    S    
C5    C10   T    
N4    H13   S    
C4    C10   S    
C8    O11   S    
Cu1   N2    S    
C4    O8    A    
O9    H5    S    
N5    C17   S    
O11   H7    S    
