data_mof_unit_53411.cif
_audit_creation_date              2012-12-11T14:40:17-0500
_audit_creation_method            fapswitch 2.2
_symmetry_space_group_name_H-M    P1
_symmetry_Int_Tables_number       1
_space_group_crystal_system       triclinic
_cell_length_a                    19.670037
_cell_length_b                    10.820578
_cell_length_c                    19.430472
_cell_angle_alpha                 89.804397
_cell_angle_beta                  97.690714
_cell_angle_gamma                 89.683477
_cell_volume                      4098.3056891

loop_
_atom_site_label
_atom_site_type_symbol
_atom_type_description
_atom_site_fract_x
_atom_site_fract_y
_atom_site_fract_z
_atom_type_partial_charge
C1    C     C_R   0.706679 0.002435 0.365996 0.563414
C2    C     C_3   0.246084 0.421849 0.571306 0.057193
C3    C     C_3   0.252056 0.915162 0.431114 0.057929
C4    C     C_3   0.746084 0.921847 0.571305 0.057194
C5    C     C_3   0.781392 0.540265 0.455734 -0.145297
C6    C     C_3   0.269385 0.542069 0.540639 -0.134995
C7    C     C_3   0.281382 0.040271 0.455733 -0.145298
C8    C     C_3   0.769377 0.042077 0.540642 -0.135002
C9    C     C_3   0.831809 0.471711 0.511387 -0.132432
C10   C     C_3   0.196840 0.554745 0.497906 -0.147400
C11   C     C_3   0.331807 0.971731 0.511384 -0.132442
C12   C     C_R   0.293348 0.003235 0.634105 0.562198
C13   C     C_3   0.696831 0.054737 0.497906 -0.147400
C14   C     C_3   0.802079 0.346157 0.486050 -0.101879
C15   C     C_3   0.174147 0.433535 0.530218 -0.114489
C16   C     C_3   0.302087 0.846170 0.486048 -0.101878
C17   C     C_3   0.674147 0.933517 0.530215 -0.114485
C18   C     C_3   0.747739 0.353212 0.535986 -0.113131
C19   C     C_3   0.199364 0.357606 0.471655 -0.112767
C20   C     C_3   0.247749 0.853207 0.535987 -0.113132
C21   C     C_3   0.699372 0.857599 0.471652 -0.112771
C22   C     C_3   0.777626 0.477442 0.560768 0.050140
C23   C     C_R   0.206679 0.502434 0.365996 0.563413
C24   C     C_3   0.221903 0.477664 0.440116 0.052927
C25   C     C_3   0.277626 0.977445 0.560768 0.050137
C26   C     C_3   0.721904 0.977667 0.440116 0.052928
C27   C     C_3   0.549794 0.176803 0.957943 -0.102763
C28   C     C_3   0.538063 0.276948 0.011483 -0.113238
C29   C     C_3   0.049793 0.676805 0.957943 -0.102763
C30   C     C_3   0.038061 0.776950 0.011484 -0.113236
C31   C     C_3   0.542145 0.073712 0.011635 -0.125104
C32   C     C_3   0.459913 0.273054 0.988762 -0.116814
C33   C     C_3   0.042146 0.573713 0.011634 -0.125102
C34   C     C_R   0.793347 0.503234 0.634105 0.562197
C35   C     C_3   0.959910 0.773054 0.988762 -0.116814
C36   C     C_3   0.529851 0.174149 0.063943 0.053268
C37   C     C_3   0.472003 0.173180 0.936087 0.051346
C38   C     C_3   0.029851 0.674148 0.063943 0.053268
C39   C     C_3   0.972002 0.673180 0.936087 0.051345
C40   C     C_R   0.534933 0.179905 0.337937 0.544899
C41   C     C_R   0.465416 0.179819 0.662334 0.549139
C42   C     C_R   0.034933 0.679905 0.337937 0.544899
C43   C     C_R   0.965416 0.679819 0.662334 0.549139
C44   C     C_3   0.452073 0.169981 0.042065 -0.107349
C45   C     C_3   0.697634 0.420978 0.480674 -0.119810
C46   C     C_3   0.463671 0.069821 0.988219 -0.129062
C47   C     C_3   0.952072 0.669978 0.042066 -0.107351
C48   C     C_3   0.963671 0.569819 0.988219 -0.129059
C49   C     C_1   0.782901 0.478122 0.915119 -0.017838
C50   C     C_1   0.237025 0.424482 0.095958 -0.008801
C51   C     C_1   0.282901 0.978121 0.915119 -0.017838
C52   C     C_1   0.737025 0.924482 0.095958 -0.008800
C53   C     C_1   0.758581 0.441716 0.042327 -0.043165
C54   C     C_1   0.252653 0.407542 0.965510 -0.048435
C55   C     C_1   0.258581 0.941715 0.042327 -0.043165
C56   C     C_3   0.271511 0.346357 0.513170 -0.118480
C57   C     C_1   0.752653 0.907542 0.965510 -0.048436
C58   C     C_1   0.771720 0.463161 0.973911 -0.046727
C59   C     C_1   0.245727 0.414440 0.036295 -0.048387
C60   C     C_1   0.271720 0.963161 0.973911 -0.046727
C61   C     C_1   0.745727 0.914440 0.036295 -0.048386
C62   C     C_1   0.747862 0.413739 0.099811 -0.009321
C63   C     C_1   0.257588 0.394748 0.905083 -0.006295
C64   C     C_1   0.247862 0.913739 0.099811 -0.009321
C65   C     C_1   0.757588 0.894749 0.905083 -0.006296
C66   C     C_R   0.740011 0.365736 0.361261 0.542207
C67   C     C_3   0.197637 0.920961 0.480677 -0.119812
C68   C     C_R   0.258977 0.369058 0.640394 0.539880
C69   C     C_R   0.240010 0.865735 0.361261 0.542207
C70   C     C_R   0.758977 0.869057 0.640394 0.539881
C71   C     C_R   0.721842 0.952311 0.163827 0.545376
C72   C     C_R   0.295679 0.998958 0.845312 0.541517
C73   C     C_R   0.221842 0.452311 0.163827 0.545375
C74   C     C_R   0.795678 0.498958 0.845312 0.541517
C75   C     C_R   0.560249 0.182181 0.135631 0.553617
C76   C     C_R   0.440797 0.181930 0.864630 0.531692
C77   C     C_R   0.060249 0.682181 0.135631 0.553616
C78   C     C_3   0.771520 0.846366 0.513170 -0.118480
C79   C     C_R   0.940797 0.681930 0.864630 0.531691
C80   C     C_R   0.736457 0.363339 0.165312 0.540316
C81   C     C_R   0.264195 0.360473 0.835632 0.533161
C82   C     C_R   0.236457 0.863339 0.165312 0.540316
C83   C     C_R   0.764195 0.860473 0.835632 0.533161
C84   C     C_1   0.487054 0.171988 0.595376 -0.019044
C85   C     C_1   0.514412 0.171777 0.405387 -0.016401
C86   C     C_1   0.987053 0.671988 0.595376 -0.019045
C87   C     C_1   0.014411 0.671777 0.405386 -0.016401
C88   C     C_1   0.504979 0.168420 0.465120 -0.061248
C89   C     C_3   0.752056 0.415163 0.431113 0.057929
C90   C     C_1   0.497156 0.168619 0.535849 -0.064980
C91   C     C_1   0.004978 0.668420 0.465119 -0.061246
C92   C     C_1   0.997155 0.668618 0.535849 -0.064980
C93   C     C_3   0.727202 0.546641 0.506977 -0.130693
C94   C     C_3   0.294087 0.466799 0.481117 -0.105006
C95   C     C_3   0.227194 0.046631 0.506978 -0.130682
C96   C     C_3   0.794088 0.966819 0.481119 -0.105005
Cr1   Cr    Cr6+3 0.765830 0.160660 0.268180 1.022538
Cr2   Cr    Cr6+3 0.384070 0.324050 0.751550 1.021980
Cr3   Cr    Cr6+3 0.115930 0.824050 0.248450 1.020500
Cr4   Cr    Cr6+3 0.884070 0.824050 0.751550 1.021981
Cr5   Cr    Cr6+3 0.234170 0.160660 0.731820 1.025395
Cr6   Cr    Cr6+3 0.265830 0.660660 0.268180 1.022538
Cr7   Cr    Cr6+3 0.734170 0.660660 0.731820 1.025395
Cr8   Cr    Cr6+3 0.612110 0.009150 0.248770 1.023554
Cr9   Cr    Cr6+3 0.387890 0.009150 0.751230 1.020597
Cr10  Cr    Cr6+3 0.112110 0.509150 0.248770 1.023554
Cr11  Cr    Cr6+3 0.887890 0.509150 0.751230 1.020596
Cr12  Cr    Cr6+3 0.615930 0.324050 0.248450 1.020499
H1    H     H_    0.642408 0.399585 0.466414 0.127062
H2    H     H_    0.300533 0.611942 0.572049 0.119869
H3    H     H_    0.294371 0.115607 0.420917 0.119831
H4    H     H_    0.800518 0.111956 0.572056 0.119870
H5    H     H_    0.387052 0.991814 0.525890 0.123030
H6    H     H_    0.665198 0.139915 0.488931 0.105849
H7    H     H_    0.887056 0.491779 0.525896 0.123031
H8    H     H_    0.165212 0.639928 0.488930 0.105845
H9    H     H_    0.833064 0.263069 0.477129 0.132053
H10   H     H_    0.125232 0.420162 0.551854 0.129852
H11   H     H_    0.333079 0.763091 0.477126 0.132056
H12   H     H_    0.304700 0.263239 0.522333 0.107833
H13   H     H_    0.625231 0.920127 0.551848 0.129854
H14   H     H_    0.732498 0.282784 0.572398 0.126183
H15   H     H_    0.170222 0.283321 0.441743 0.133021
H16   H     H_    0.232516 0.782775 0.572401 0.126188
H17   H     H_    0.670238 0.783309 0.441737 0.133023
H18   H     H_    0.576756 0.992709 0.023050 0.130073
H19   H     H_    0.425339 0.354261 0.977800 0.128417
H20   H     H_    0.076757 0.492709 0.023049 0.130072
H21   H     H_    0.925336 0.854259 0.977802 0.128416
H22   H     H_    0.588843 0.179438 0.921662 0.135688
H23   H     H_    0.142412 0.899552 0.466419 0.127058
H24   H     H_    0.569405 0.361370 0.022626 0.129159
H25   H     H_    0.088842 0.679446 0.921662 0.135689
H26   H     H_    0.069404 0.861373 0.022626 0.129158
H27   H     H_    0.412945 0.167214 0.078265 0.132127
H28   H     H_    0.432610 0.985246 0.976776 0.126842
H29   H     H_    0.912945 0.667206 0.078265 0.132127
H30   H     H_    0.932610 0.485244 0.976775 0.126841
H31   H     H_    0.804715 0.763254 0.522331 0.107834
H32   H     H_    0.695286 0.624785 0.520827 0.129562
H33   H     H_    0.343066 0.480290 0.459633 0.130188
H34   H     H_    0.195273 0.124769 0.520826 0.129562
H35   H     H_    0.843067 0.980327 0.459638 0.130186
H36   H     H_    0.794389 0.615597 0.420920 0.119829
O1    O     O_R   0.783230 0.287800 0.346510 -0.526620
O2    O     O_R   0.454570 0.285140 0.836900 -0.500181
O3    O     O_R   0.045430 0.785140 0.163100 -0.507401
O4    O     O_R   0.954570 0.785140 0.836900 -0.500181
O5    O     O_R   0.677850 0.374730 0.185500 -0.510288
O6    O     O_R   0.322150 0.374730 0.814500 -0.510904
O7    O     O_R   0.177850 0.874730 0.185500 -0.510288
O8    O     O_R   0.822150 0.874730 0.814500 -0.510904
O9    O     O_3   0.664630 0.164620 0.255130 -0.293978
O10   O     O_3   0.335370 0.164620 0.744870 -0.314657
O11   O     O_3   0.164630 0.664620 0.255130 -0.293977
O12   O     O_R   0.216770 0.287800 0.653490 -0.528054
O13   O     O_3   0.835370 0.664620 0.744870 -0.314658
O14   O     O_R   0.760130 0.037060 0.338610 -0.502169
O15   O     O_R   0.239870 0.037060 0.661390 -0.488816
O16   O     O_R   0.260130 0.537060 0.338610 -0.502168
O17   O     O_R   0.739870 0.537060 0.661390 -0.488816
O18   O     O_R   0.666620 0.921370 0.332440 -0.515223
O19   O     O_R   0.333380 0.921370 0.667560 -0.506941
O20   O     O_R   0.166620 0.421370 0.332440 -0.515223
O21   O     O_R   0.833380 0.421370 0.667560 -0.506942
O22   O     O_R   0.557170 0.082420 0.312350 -0.505391
O23   O     O_R   0.283230 0.787800 0.346510 -0.526620
O24   O     O_R   0.442830 0.082420 0.687650 -0.511051
O25   O     O_R   0.057170 0.582420 0.312350 -0.505392
O26   O     O_R   0.942830 0.582420 0.687650 -0.511052
O27   O     O_R   0.548310 0.285980 0.316250 -0.505210
O28   O     O_R   0.451690 0.285980 0.683750 -0.495172
O29   O     O_R   0.048310 0.785980 0.316250 -0.505209
O30   O     O_R   0.951690 0.785980 0.683750 -0.495171
O31   O     O_R   0.680520 0.375500 0.327470 -0.503566
O32   O     O_R   0.319480 0.375500 0.672530 -0.497454
O33   O     O_R   0.180520 0.875500 0.327470 -0.503565
O34   O     O_R   0.716770 0.787800 0.653490 -0.528056
O35   O     O_R   0.819480 0.875500 0.672530 -0.497453
O36   O     O_R   0.780350 0.286970 0.193350 -0.501462
O37   O     O_R   0.219650 0.286970 0.806650 -0.509855
O38   O     O_R   0.280350 0.786970 0.193350 -0.501462
O39   O     O_R   0.719650 0.786970 0.806650 -0.509855
O40   O     O_R   0.757460 0.036290 0.196640 -0.487805
O41   O     O_R   0.242540 0.036290 0.803360 -0.475185
O42   O     O_R   0.257460 0.536290 0.196640 -0.487805
O43   O     O_R   0.742540 0.536290 0.803360 -0.475185
O44   O     O_R   0.663740 0.920540 0.179290 -0.512452
O45   O     O_R   0.554500 0.081650 0.170370 -0.494435
O46   O     O_R   0.336260 0.920540 0.820710 -0.499047
O47   O     O_R   0.163740 0.420540 0.179290 -0.512451
O48   O     O_R   0.836260 0.420540 0.820710 -0.499047
O49   O     O_R   0.445500 0.081650 0.829630 -0.506749
O50   O     O_R   0.054500 0.581650 0.170370 -0.494435
O51   O     O_R   0.945500 0.581650 0.829630 -0.506748
O52   O     O_R   0.545430 0.285140 0.163100 -0.507402

loop_
_geom_bond_atom_site_label_1
_geom_bond_atom_site_label_2
_ccdc_geom_bond_type
C19   C56   S    
Cr9   O49   S    
C29   H25   S    
C21   C26   S    
Cr11  O21   S    
C8    C13   S    
C87   C91   T    
C6    H2    S    
C14   C18   S    
C20   C67   S    
C8    C96   S    
C81   O37   A    
C71   O44   A    
C4    C8    S    
C34   O17   A    
C35   C47   S    
C78   H31   S    
Cr2   O10   S    
C73   O42   A    
C68   O32   A    
C10   H8    S    
Cr10  O50   S    
Cr4   O8    S    
C56   C94   S    
C19   H15   S    
Cr6   O23   S    
C30   C35   S    
C63   C81   S    
Cr7   O39   S    
C50   C59   T    
C80   O36   A    
C32   H19   S    
C62   C80   S    
C1    O14   A    
C75   O45   A    
C27   C37   S    
Cr3   O33   S    
C3    C7    S    
C10   C15   S    
C8    H4    S    
Cr8   O18   S    
C43   O30   A    
C45   H1    S    
C70   O35   A    
C65   C83   S    
C20   C25   S    
C11   C25   S    
C81   O6    A    
Cr12  O31   S    
C29   C33   S    
C79   O51   A    
C30   C38   S    
C4    C78   S    
C11   C16   S    
C72   O46   A    
C66   O1    A    
C69   O33   A    
C15   C19   S    
Cr4   O13   S    
Cr12  O9    S    
C78   C96   S    
C6    C94   S    
C31   C46   S    
Cr3   O11   S    
Cr11  O48   S    
C23   C24   S    
Cr9   O19   S    
Cr1   O9    S    
Cr8   O9    S    
Cr12  O52   S    
C34   O21   A    
C45   C89   S    
C77   O3    A    
C31   C36   S    
C40   O22   A    
C13   H6    S    
Cr2   O28   S    
C75   O52   A    
C44   H27   S    
Cr9   O10   S    
C76   O2    A    
C68   O12   A    
C55   C60   S    
C55   C64   T    
Cr8   O44   S    
C67   C95   S    
C56   H12   S    
C29   C39   S    
C2    C6    S    
C84   C90   T    
Cr10  O47   S    
Cr5   O41   S    
C35   H21   S    
C71   O40   A    
Cr11  O51   S    
Cr11  O13   S    
C43   O26   A    
C44   C46   S    
C7    C11   S    
C66   C89   S    
C54   C59   S    
C26   C96   S    
C80   O5    A    
C22   C34   S    
C41   O28   A    
C67   H23   S    
C4    C70   S    
Cr7   O17   S    
C27   C31   S    
Cr6   O38   S    
C28   C32   S    
Cr7   O43   S    
C76   O49   A    
C16   H11   S    
Cr6   O16   S    
C91   C92   S    
C9    C14   S    
C70   O34   A    
Cr1   O36   S    
Cr2   O2    S    
Cr5   O12   S    
C30   H26   S    
C41   C84   S    
Cr3   O7    S    
C33   H20   S    
C17   C21   S    
C49   C58   T    
C28   H24   S    
C46   H28   S    
C39   C79   S    
C40   C85   S    
C21   C78   S    
C35   C39   S    
C77   O50   A    
C69   O23   A    
C14   C89   S    
C5    C9    S    
C29   C30   S    
C42   O25   A    
C24   C94   S    
Cr2   O32   S    
C53   C62   T    
C47   C48   S    
Cr3   O29   S    
C16   C20   S    
C14   H9    S    
C23   O16   A    
C47   H29   S    
C32   C44   S    
C83   O39   A    
Cr6   O42   S    
C32   C37   S    
C2    C15   S    
C64   C82   S    
C38   C47   S    
C73   O47   A    
C18   H14   S    
C74   O48   A    
C4    C17   S    
C17   H13   S    
C13   C26   S    
C37   C76   S    
C88   C90   S    
C45   C93   S    
C25   C95   S    
Cr10  O20   S    
Cr4   O30   S    
C1    C26   S    
C22   C93   S    
C66   O31   A    
C36   C44   S    
C51   C72   S    
C83   O8    A    
C21   H17   S    
C18   C45   S    
Cr5   O37   S    
C94   H33   S    
Cr1   O40   S    
C23   O20   A    
Cr2   O6    S    
C85   C88   T    
C33   C48   S    
Cr3   O3    S    
C9    H7    S    
C3    C69   S    
C18   C22   S    
C43   C86   S    
Cr1   O1    S    
Cr9   O46   S    
C3    C67   S    
C82   O7    A    
C57   C65   T    
C41   O24   A    
C5    H36   S    
C42   O29   A    
C6    C10   S    
C5    C93   S    
C53   C58   S    
C15   H10   S    
C57   C61   S    
C79   O4    A    
C51   C60   T    
C38   C77   S    
C48   H30   S    
C7    C95   S    
C82   O38   A    
C2    C68   S    
C33   C38   S    
Cr9   O24   S    
C13   C17   S    
C12   C25   S    
C52   C61   T    
Cr7   O34   S    
C10   C24   S    
Cr1   O14   S    
C19   C24   S    
C93   H32   S    
C86   C92   T    
C12   O19   A    
C36   C75   S    
Cr5   O10   S    
Cr4   O4    S    
Cr8   O45   S    
C50   C73   S    
Cr10  O25   S    
Cr10  O11   S    
C7    H3    S    
C12   O15   A    
C11   H5    S    
C72   O41   A    
C20   H16   S    
C1    O18   A    
C74   O43   A    
Cr8   O22   S    
Cr12  O5    S    
Cr5   O15   S    
Cr7   O13   S    
C28   C36   S    
C95   H34   S    
C9    C22   S    
C54   C63   T    
Cr12  O27   S    
C27   C28   S    
C52   C71   S    
C27   H22   S    
C49   C74   S    
C2    C56   S    
C42   C87   S    
C31   H18   S    
C37   C46   S    
Cr4   O35   S    
Cr6   O11   S    
C40   O27   A    
C5    C89   S    
C3    C16   S    
C39   C48   S    
C96   H35   S    
Cr11  O26   S    
