data_mof_unit_42386.cif
_audit_creation_date              2013-03-05T16:20:09-0500
_audit_creation_method            fapswitch 2.2
_symmetry_space_group_name_H-M    P1
_symmetry_Int_Tables_number       1
_space_group_crystal_system       triclinic
_cell_length_a                    8.195541
_cell_length_b                    18.928375
_cell_length_c                    27.066152
_cell_angle_alpha                 100.225673
_cell_angle_beta                  92.303483
_cell_angle_gamma                 87.863619
_cell_volume                      4126.75437789

loop_
_atom_site_label
_atom_site_type_symbol
_atom_site_description
_atom_site_fract_x
_atom_site_fract_y
_atom_site_fract_z
_atom_type_partial_charge
P1    P     P_3+3 0.929380 0.335110 0.452880 0.529339
O1    O     O_2   0.106080 0.324280 0.466820 -0.359712
O2    O     O_3   0.859130 0.413620 0.470620 -0.341771
O3    O     O_3   0.376230 0.370290 0.556910 -0.386435
O4    O     O_2   0.245390 0.244333 0.521124 -0.414171
O5    O     O_3   0.962431 0.307060 0.388360 -0.597111
O6    O     O_3   0.360130 0.258146 0.612952 -0.540138
H1    H     H_    0.411673 0.362080 0.648008 0.138384
C1    C     C_3   0.419763 0.289882 0.700514 -0.873107
H2    H     H_    0.287019 0.295492 0.707748 0.275083
H3    H     H_    0.463617 0.234470 0.703357 0.253602
P2    P     P_3+3 0.398530 0.559060 0.613740 0.495493
P3    P     P_3+3 0.968184 0.418318 0.648535 0.469054
O7    O     O_2   0.227190 0.537650 0.620070 -0.361340
O8    O     O_3   0.971110 0.406970 0.583250 -0.397185
O9    O     O_2   0.141513 0.440217 0.668822 -0.402139
O10   O     O_3   0.392028 0.652684 0.631611 -0.537529
O11   O     O_3   0.944269 0.334745 0.666393 -0.514177
C2    C     C_3   0.938511 0.281312 0.623184 0.462494
H4    H     H_    0.050818 0.280542 0.601537 0.171957
H5    H     H_    0.830187 0.290539 0.599032 0.025184
C3    C     C_3   0.925836 0.208257 0.638468 -0.950274
H6    H     H_    0.924187 0.165605 0.604535 0.223319
H7    H     H_    0.032549 0.197972 0.663095 0.279667
C4    C     C_3   0.823439 0.634637 0.634228 0.405834
H8    H     H_    0.711276 0.613272 0.613805 0.094699
H9    H     H_    0.917665 0.591098 0.634250 0.095539
C5    C     C_3   0.781520 0.666970 0.688021 -0.858494
H10   H     H_    0.695236 0.713678 0.688150 0.275652
H11   H     H_    0.722920 0.627263 0.706395 0.211296
H12   H     H_    0.894255 0.685090 0.710039 0.277249
Ba1   Ba    Ba6+2 0.160810 0.465630 0.521640 1.603573
C6    C     C_3   0.856231 0.337765 0.356142 0.537372
H13   H     H_    0.736532 0.351513 0.372233 0.010445
C7    C     C_3   0.834220 0.283182 0.306370 0.222689
H14   H     H_    0.957782 0.263356 0.293507 0.135713
C8    C     C_3   0.334021 0.684780 0.591307 0.276665
H15   H     H_    0.204486 0.672135 0.582971 0.094588
H16   H     H_    0.405496 0.665920 0.557231 0.099408
C9    C     C_3   0.351753 0.766213 0.605288 -0.141399
H17   H     H_    0.319723 0.791022 0.571889 0.069977
H18   H     H_    0.481398 0.777792 0.616275 0.117776
P4    P     P_3+3 0.880940 0.664900 0.547160 0.475183
O12   O     O_2   0.704230 0.675760 0.533200 -0.390453
O13   O     O_3   0.951180 0.586390 0.529420 -0.383840
O14   O     O_3   0.434080 0.629720 0.443130 -0.366115
O15   O     O_3   0.886600 0.688663 0.612560 -0.535086
P5    P     P_3+3 0.833813 0.595330 0.352380 0.528300
O16   O     O_3   0.351080 0.462080 0.440130 -0.388675
O17   O     O_3   0.839200 0.593040 0.416790 -0.340218
O18   O     O_2   0.679696 0.555068 0.330157 -0.370918
O19   O     O_3   0.793670 0.683089 0.342309 -0.509223
Ba2   Ba    Ba6+2 0.649380 0.534380 0.478400 1.626127
P6    P     P_3+3 0.392728 0.277282 0.553314 0.412149
C10   C     C_3   0.450594 0.305437 0.648609 0.391531
H19   H     H_    0.583265 0.298031 0.641802 0.056139
H20   H     H_    0.485567 0.328552 0.729246 0.258209
O20   O     O_3   0.459240 0.537930 0.559910 -0.403460
C11   C     C_3   0.414820 0.316466 0.394454 0.358102
H21   H     H_    0.337350 0.338824 0.425810 0.155584
C12   C     C_3   0.368404 0.239462 0.378320 -0.683112
H22   H     H_    0.446480 0.212381 0.347889 0.308234
H23   H     H_    0.383550 0.211456 0.411040 0.189141
P7    P     P_3+3 0.396434 0.445463 0.376304 0.571066
O21   O     O_2   0.583120 0.462390 0.379940 -0.353665
O22   O     O_3   0.391442 0.353039 0.353618 -0.485729
H24   H     H_    0.811728 0.206368 0.658920 0.261646
C13   C     C_3   0.873838 0.730647 0.380418 0.504488
H25   H     H_    0.813367 0.732726 0.416674 0.138358
C14   C     C_3   0.863712 0.805322 0.366820 -0.926484
H26   H     H_    0.733920 0.823306 0.363196 0.281034
H27   H     H_    0.923756 0.804638 0.330668 0.261112
P8    P     P_3+3 0.417618 0.722192 0.445513 0.435514
C15   C     C_3   0.332309 0.730913 0.354288 0.337438
H28   H     H_    0.236781 0.772384 0.367255 0.057544
O23   O     O_2   0.557446 0.755056 0.481016 -0.404303
O24   O     O_3   0.470236 0.739381 0.386882 -0.487998
H29   H     H_    0.283001 0.676450 0.351210 0.071271
H30   H     H_    0.269726 0.741300 0.277628 0.248797
C16   C     C_3   0.380609 0.740929 0.302447 -0.793207
H31   H     H_    0.441605 0.792935 0.304918 0.249302
C17   C     C_R   0.988141 0.044830 0.473675 -0.007075
C18   C     C_R   0.065349 0.088129 0.444558 -0.057608
C19   C     C_R   0.196395 0.057446 0.414324 0.328129
C20   C     C_R   0.265555 0.990553 0.420580 -0.276699
C21   C     C_R   0.192565 0.948529 0.450500 0.075890
C22   C     C_R   0.049036 0.973936 0.475273 0.026976
C23   C     C_R   0.255037 0.879212 0.452502 -0.224972
C24   C     C_R   0.168100 0.831132 0.474899 -0.022232
C25   C     C_R   0.021920 0.855619 0.499637 0.002282
C26   C     C_R   0.965145 0.927934 0.500633 -0.000900
C27   C     C_R   0.219471 0.758443 0.471355 0.140735
C28   C     C_R   0.122677 0.710667 0.490333 -0.553923
C29   C     C_R   0.982878 0.733706 0.517301 0.257632
C30   C     C_R   0.932125 0.808022 0.522911 -0.034786
C31   C     C_R   0.846167 0.071024 0.499317 0.015064
C32   C     C_R   0.788414 0.143026 0.499697 0.005162
C33   C     C_R   0.877163 0.190102 0.475555 -0.018796
C34   C     C_R   0.011002 0.160551 0.446573 -0.004761
H32   H     H_    0.368798 0.968353 0.398476 0.184164
H33   H     H_    0.162170 0.654870 0.486596 0.181384
H34   H     H_    0.367656 0.862197 0.433886 0.173886
H35   H     H_    0.075563 0.194046 0.426169 0.174403
C35   C     C_R   0.793464 0.836411 0.549931 -0.101451
C36   C     C_R   0.735047 0.907459 0.549804 0.097385
C37   C     C_R   0.820621 0.953352 0.524906 0.015926
C38   C     C_R   0.761007 0.024721 0.524226 0.021442
C39   C     C_R   0.589644 0.933048 0.573407 -0.150350
C40   C     C_R   0.529370 0.002896 0.572105 -0.161900
C41   C     C_R   0.614422 0.049224 0.547823 0.113328
C42   C     C_R   0.641448 0.167513 0.524136 -0.012124
C43   C     C_R   0.554661 0.119489 0.546957 -0.235158
C44   C     C_R   0.586504 0.239542 0.525327 0.196191
C45   C     C_R   0.681275 0.286716 0.505145 -0.525936
C46   C     C_R   0.826029 0.264452 0.480692 0.223609
H36   H     H_    0.726806 0.803303 0.570240 0.156491
H37   H     H_    0.416072 0.020800 0.590330 0.150466
H38   H     H_    0.440675 0.136213 0.564810 0.187456
C47   C     C_R   0.312453 0.464458 0.173596 0.569125
O25   O     O_2   0.327012 0.410627 0.192745 -0.508711
N1    N     N_R   0.251896 0.528058 0.201175 -0.169213
C48   C     C_R   0.229791 0.588371 0.178895 0.523081
C49   C     C_2   0.061384 0.555958 0.270007 -0.241045
C50   C     C_3   0.020191 0.549417 0.322679 0.337302
C51   C     C_1   0.292668 0.504598 0.337216 0.350361
C52   C     C_2   0.332411 0.504373 0.289993 -0.161277
C53   C     C_2   0.210846 0.531009 0.253395 0.145018
C54   C     C_R   0.332010 0.521659 0.100055 -0.066513
C55   C     C_R   0.355221 0.460784 0.123149 -0.093620
C56   C     C_R   0.418986 0.397117 0.095225 -0.032577
C57   C     C_R   0.267985 0.585733 0.128191 -0.050082
C58   C     C_2   0.169548 0.545682 0.356542 -0.406163
H39   H     H_    0.452138 0.484396 0.277394 0.194225
H40   H     H_    0.436631 0.349141 0.111737 0.189869
C59   C     C_2   0.657083 0.478632 0.639340 -0.487343
C60   C     C_R   0.488628 0.451873 0.970864 0.042986
C61   C     C_R   0.376173 0.575191 0.973650 0.041820
C62   C     C_R   0.452215 0.511900 0.946893 0.085957
C63   C     C_R   0.571994 0.391647 0.943321 -0.195747
C64   C     C_R   0.612967 0.389517 0.893707 -0.076801
C65   C     C_R   0.573054 0.447266 0.869130 -0.053912
C66   C     C_R   0.492535 0.508632 0.895603 -0.066740
C67   C     C_R   0.453010 0.566849 0.870870 -0.064884
C68   C     C_R   0.493885 0.562929 0.820228 0.532951
N2    N     N_R   0.571895 0.502102 0.794449 -0.164568
C69   C     C_R   0.612889 0.444862 0.818594 0.517206
C70   C     C_2   0.767298 0.483998 0.727057 -0.152589
C71   C     C_3   0.808728 0.485898 0.673330 0.156720
C72   C     C_1   0.521871 0.512112 0.656555 0.282986
C73   C     C_2   0.482855 0.513776 0.703904 -0.201311
C74   C     C_2   0.611949 0.498852 0.742159 0.101110
O26   O     O_2   0.683441 0.391527 0.795987 -0.591384
C75   C     C_R   0.442076 0.454072 0.021381 0.037561
C76   C     C_R   0.372370 0.518405 0.048771 0.089351
C77   C     C_R   0.342441 0.579507 0.025451 0.040424
C78   C     C_R   0.461574 0.393726 0.045610 -0.197003
H41   H     H_    0.864932 0.476260 0.754080 0.162621
H42   H     H_    0.676684 0.341909 0.874548 0.173252
H43   H     H_    0.610739 0.345298 0.959231 0.135078
H44   H     H_    0.506656 0.342098 0.027010 0.137571
O27   O     O_2   0.177649 0.644624 0.203311 -0.609012
C79   C     C_R   0.244438 0.646193 0.105255 -0.071702
H45   H     H_    0.967712 0.572881 0.244713 0.172921
H46   H     H_    0.197299 0.696537 0.126082 0.174403
C80   C     C_R   0.335514 0.632044 0.947302 -0.197522
C81   C     C_R   0.373319 0.627885 0.897201 -0.073128
O28   O     O_2   0.462230 0.614209 0.799308 -0.574946
C82   C     C_R   0.280562 0.643284 0.055154 -0.197640
H47   H     H_    0.271346 0.680515 0.963990 0.133998
H48   H     H_    0.339356 0.673173 0.879051 0.176483
H49   H     H_    0.358364 0.526608 0.715338 0.186467
H50   H     H_    0.261130 0.692841 0.041181 0.135142
H51   H     H_    0.173700 0.573829 0.395120 0.141465
H52   H     H_    0.660205 0.448783 0.601191 0.170921
N3    N     N_R   0.930986 0.402275 0.347299 0.206093
O29   O     O_R   0.027789 0.398637 0.309891 -0.431734
O30   O     O_R   0.948272 0.453605 0.385648 -0.371799
N4    N     N_R   0.751693 0.317736 0.267424 0.247722
O31   O     O_R   0.605023 0.345705 0.273690 -0.331628
O32   O     O_R   0.823290 0.318943 0.225554 -0.312245
N5    N     N_R   0.743758 0.220665 0.313627 0.221655
O33   O     O_R   0.786181 0.187025 0.350316 -0.382908
O34   O     O_R   0.648200 0.188840 0.277525 -0.286523
N6    N     N_R   0.247992 0.799307 0.646388 0.283054
O35   O     O_R   0.245697 0.868724 0.660220 -0.374183
O36   O     O_R   0.160512 0.760997 0.670138 -0.320550
H53   H     H_    0.542323 0.317922 0.409132 0.010649
H54   H     H_    0.239473 0.237818 0.364332 0.273129
H55   H     H_    0.004453 0.714366 0.384574 -0.050500
H56   H     H_    0.926038 0.844089 0.396365 0.216813
H57   H     H_    0.465255 0.696447 0.286129 0.270701
N7    N     N_R   0.246183 0.088062 0.372709 0.219774
O37   O     O_R   0.135097 0.111307 0.343264 -0.347941
O38   O     O_R   0.393949 0.075534 0.356674 -0.364972
H58   H     H_    0.521310 0.898814 0.592530 0.147597
H59   H     H_    0.639138 0.342031 0.507472 0.174678

loop_
_geom_bond_atom_site_label_1
_geom_bond_atom_site_label_2
_geom_bond_distance
_ccdc_geom_bond_type
O6    P6    1.748588 S    
C34   H35   1.076899 S    
C10   H19   1.109686 S    
C80   C81   1.391062 A    
C22   C26   1.413092 A    
Ba1   O13   2.790378 S    
Ba1   Ba2   4.516840 S    
C42   C43   1.413015 A    
Ba1   O20   2.910376 S    
C54   C55   1.408689 A    
C61   C80   1.415755 A    
C45   C46   1.396366 A    
C33   C46   1.437628 A    
C40   H37   1.083679 S    
C49   C50   1.505369 S    
N3    O30   1.296850 A    
N5    O33   1.301020 A    
C39   C40   1.399883 A    
C4    C5    1.523328 S    
C50   C58   1.506570 S    
C52   C53   1.512782 S    
C48   O27   1.221484 D    
C45   H59   1.082069 S    
P3    O11   1.754041 S    
C3    H7    1.110674 S    
C5    H10   1.110943 S    
C2    H5    1.108279 S    
C56   C78   1.390940 A    
N1    C53   1.456990 S    
C8    C9    1.531472 S    
P8    O23   1.541420 D    
C11   O22   1.407955 S    
N2    C69   1.385796 Am   
C32   C42   1.420095 A    
C21   C23   1.399819 A    
C37   C38   1.422274 A    
C67   C68   1.412606 A    
P6    C44   1.850988 S    
P4    C29   1.885842 S    
O11   C2    1.404286 S    
N6    O35   1.300405 A    
C61   C77   1.427469 A    
O1    Ba1   2.861412 S    
P1    O1    1.497641 D    
C12   H23   1.110726 S    
C64   H42   1.083704 S    
C35   H36   1.079496 S    
C72   C73   1.327934 D    
O12   Ba2   2.861871 S    
P4    Ba2   3.406138 S    
P5    O18   1.544636 D    
C70   C71   1.513421 S    
C52   H39   1.084213 S    
C13   H25   1.110878 S    
C15   O24   1.401737 S    
P2    O10   1.751572 S    
C11   H53   1.102463 S    
C14   H26   1.110621 S    
C1    C10   1.518260 S    
O6    C10   1.402699 S    
C9    H18   1.110962 S    
Ba2   O21   2.811246 S    
C1    H2    1.110985 S    
C4    O15   1.390865 S    
C12   H22   1.103898 S    
O19   C13   1.402098 S    
C54   C76   1.430041 A    
P2    O20   1.538449 S    
C7    N4    1.466581 S    
N5    O34   1.302191 A    
C63   H43   1.076250 S    
C11   H21   1.094645 S    
O16   P7    1.752547 S    
C18   C34   1.417901 A    
P2    Ba1   3.382077 S    
C26   C37   1.404946 A    
C56   H40   1.083716 S    
C60   C63   1.415374 A    
H1    C10   1.109878 S    
C35   C36   1.411119 A    
C32   C33   1.429427 A    
C79   H46   1.083704 S    
C47   N1    1.385238 Am   
C73   H49   1.084418 S    
C80   H47   1.076253 S    
C3    H24   1.110588 S    
C36   C39   1.403949 A    
C11   C12   1.503943 S    
O17   Ba2   2.725513 S    
C17   C31   1.407510 A    
C15   H28   1.109398 S    
C68   O28   1.222534 D    
P1    O5    1.761509 S    
C59   H52   1.086244 S    
N4    O31   1.300388 A    
O4    P6    1.544276 D    
O8    Ba1   2.724907 S    
C2    C3    1.520325 S    
C19   C20   1.402847 A    
C60   C62   1.421926 A    
C62   C66   1.430044 A    
C28   H33   1.081511 S    
C21   C22   1.404010 A    
C16   H31   1.110859 S    
C23   H34   1.080312 S    
C57   C79   1.399443 A    
C4    H8    1.105265 S    
C20   C21   1.396264 A    
C17   C18   1.414667 A    
C12   H54   1.107671 S    
C39   H58   1.082074 S    
C7    H14   1.114057 S    
P7    O22   1.749611 S    
C70   C74   1.356991 D    
P4    O12   1.497932 D    
C67   C81   1.399299 A    
C8    H15   1.102597 S    
C6    C7    1.554018 S    
C49   H45   1.085337 S    
C49   C53   1.360648 D    
C18   C19   1.419783 A    
C78   H44   1.076242 S    
C77   C82   1.415400 A    
C63   C64   1.390547 A    
C31   C32   1.424384 A    
C6    H13   1.093079 S    
C76   C77   1.421882 A    
C47   O25   1.222529 D    
C29   C30   1.435416 A    
C42   C44   1.415085 A    
C28   C29   1.397371 A    
O10   C8    1.398994 S    
C64   C65   1.399416 A    
C24   C27   1.411630 A    
P5    O17   1.750280 S    
C1    H3    1.110647 S    
N1    C48   1.385637 Am   
O3    Ba1   2.742914 S    
C65   C69   1.411489 A    
C69   O26   1.222089 D    
C13   C14   1.521090 S    
C9    H17   1.108636 S    
C31   C38   1.415289 A    
P2    O7    1.500616 D    
C33   C34   1.413863 A    
C24   C25   1.418213 A    
P3    O8    1.742789 S    
C51   C52   1.330870 D    
C16   H57   1.110992 S    
C79   C82   1.390695 A    
C4    H9    1.108244 S    
C70   H41   1.085764 S    
C54   C57   1.408164 A    
C48   C57   1.411720 A    
C30   C35   1.413070 A    
C14   H56   1.107071 S    
C44   C45   1.399264 A    
C61   C62   1.421488 A    
O3    P6    1.746296 S    
C3    H6    1.109963 S    
P2    C72   1.832744 S    
C5    H12   1.110504 S    
P8    C27   1.853380 S    
O7    Ba1   2.810903 S    
C68   N2    1.384530 Am   
C15   C16   1.518584 S    
C25   C30   1.427684 A    
P5    C50   1.867178 S    
N4    O32   1.301053 A    
Ba2   O20   2.741510 S    
C81   H48   1.083694 S    
N2    C74   1.455860 S    
C7    N5    1.465673 S    
C36   C37   1.411325 A    
C73   C74   1.504912 S    
O5    C6    1.391755 S    
C38   C41   1.407558 A    
P7    O21   1.570496 D    
C2    H4    1.109036 S    
C5    H11   1.105314 S    
C55   C56   1.399288 A    
P4    O13   1.573344 S    
N3    O29   1.301938 A    
C59   C72   1.315667 D    
C65   C66   1.408350 A    
N7    O37   1.301491 A    
C43   H38   1.079960 S    
C60   C75   1.427356 A    
O2    Ba2   2.790956 S    
C51   C58   1.317580 D    
C25   C26   1.425236 A    
C13   H55   1.109752 S    
C59   C71   1.511871 S    
O16   Ba2   2.909477 S    
O14   Ba2   2.742320 S    
C75   C78   1.415711 A    
C27   C28   1.400743 A    
C47   C55   1.412446 A    
N6    O36   1.301684 A    
C19   N7    1.434353 S    
C1    H20   1.106800 S    
C58   H51   1.084554 S    
P1    Ba1   3.405538 S    
O2    Ba1   2.900580 S    
C6    N3    1.447401 S    
C41   C43   1.403902 A    
Ba1   O16   2.742152 S    
O13   Ba2   2.901409 S    
H30   C16   1.108716 S    
C82   H50   1.076248 S    
C23   C24   1.407936 A    
C8    H16   1.110032 S    
P7    C51   1.836442 S    
C15   H29   1.109431 S    
P3    O9    1.546483 D    
C40   C41   1.404914 A    
C20   H32   1.084147 S    
P8    O24   1.748988 S    
C66   C67   1.408992 A    
C14   H27   1.110633 S    
P1    C46   1.888394 S    
P3    C71   1.853527 S    
P1    O2    1.573372 S    
C75   C76   1.421420 A    
P5    O19   1.747784 S    
P4    O15   1.746446 S    
O14   P8    1.740419 S    
C17   C22   1.421463 A    
N7    O38   1.302100 A    
C9    N6    1.463526 S    
