data_mof_unit_57496.cif
_audit_creation_date              2012-12-10T16:42:56-0500
_audit_creation_method            fapswitch 2.2
_symmetry_space_group_name_H-M    P1
_symmetry_Int_Tables_number       1
_space_group_crystal_system       triclinic
_cell_length_a                    7.488939
_cell_length_b                    8.746345
_cell_length_c                    12.955432
_cell_angle_alpha                 87.385579
_cell_angle_beta                  78.748338
_cell_angle_gamma                 102.922885
_cell_volume                      807.658079146

loop_
_atom_site_label
_atom_site_type_symbol
_atom_type_description
_atom_site_fract_x
_atom_site_fract_y
_atom_site_fract_z
_atom_type_partial_charge
C1    C     C_R   0.453133 0.200275 0.504307 0.842176
C2    C     C_R   0.546867 0.799721 0.495690 0.811679
C3    C     C_R   0.465497 0.494369 0.701197 0.849123
C4    C     C_R   0.534637 0.507659 0.298955 0.927739
C5    C     C_R   0.555053 0.524110 0.185359 -0.178975
C6    C     C_R   0.444743 0.486409 0.815216 -0.244318
C7    C     C_R   0.293617 0.346253 0.986942 0.362814
C8    C     C_R   0.697326 0.673875 0.015954 0.401056
C9    C     C_R   0.298254 0.371520 0.878372 0.264758
C10   C     C_R   0.692213 0.647930 0.124687 0.198720
C11   C     C_R   0.574249 0.590727 0.859775 0.376963
C12   C     C_R   0.433503 0.416739 0.139728 0.356664
C13   C     C_R   0.569954 0.568849 0.968568 -0.101337
C14   C     C_R   0.432405 0.441933 0.031757 -0.171875
C15   C     C_2   0.427039 0.032658 0.516731 -0.029438
C16   C     C_2   0.572958 0.967330 0.483267 -0.028987
Cu1   Cu    Cu3+1 0.686350 0.517570 0.488220 1.089243
Cu2   Cu    Cu3+1 0.313650 0.482430 0.511780 1.100712
N1    N     N_2   0.033570 0.455950 0.529530 0.151844
N2    N     N_2   0.966430 0.544050 0.470470 0.151863
O1    O     O_R   0.621060 0.286250 0.492350 -0.521141
O2    O     O_R   0.378940 0.713750 0.507650 -0.521342
O3    O     O_R   0.306310 0.256580 0.512240 -0.615467
O4    O     O_R   0.693690 0.743420 0.487760 -0.625129
O5    O     O_R   0.631800 0.512400 0.642670 -0.544236
O6    O     O_R   0.368200 0.487600 0.357330 -0.523200
O7    O     O_R   0.317060 0.482730 0.662570 -0.550755
O8    O     O_R   0.682940 0.517270 0.337430 -0.567008
O9    O     O_3   0.321666 0.285386 0.202561 -0.660317
H1    H     H_    0.349355 0.192562 0.167193 0.347352
O10   O     O_3   0.705923 0.714091 0.797899 -0.624764
H2    H     H_    0.651343 0.752950 0.741045 0.309993
O11   O     O_3   0.817403 0.742905 0.174067 -0.730404
H3    H     H_    0.937837 0.782458 0.122699 0.343009
O12   O     O_3   0.163785 0.283277 0.831480 -0.718752
H4    H     H_    0.042199 0.256561 0.882874 0.344707
O13   O     O_3   0.152376 0.231597 0.050236 -0.697037
H5    H     H_    0.122586 0.139435 0.009530 0.325138
O14   O     O_3   0.820079 0.803965 0.956344 -0.656909
H6    H     H_    0.837041 0.892578 0.001283 0.323099
O15   O     O_3   0.905986 0.349248 0.599468 -0.591069
H7    H     H_    0.980218 0.293441 0.636379 0.349279
O16   O     O_3   0.094008 0.650766 0.400538 -0.594214
H8    H     H_    0.019769 0.706541 0.363606 0.348016
N3    N     N_3   0.245848 0.940158 0.571247 -0.530858
H9    H     H_    0.146273 0.956864 0.528123 0.244463
H10   H     H_    0.212257 0.981551 0.645335 0.242571
N4    N     N_3   0.754138 0.059818 0.428732 -0.525501
H11   H     H_    0.853721 0.043103 0.471847 0.242956
H12   H     H_    0.787695 0.018405 0.354646 0.247097

loop_
_geom_bond_atom_site_label_1
_geom_bond_atom_site_label_2
_ccdc_geom_bond_type
C2    O2    A    
C4    O6    A    
O16   H8    S    
C1    O1    A    
C8    C13   A    
C1    C15   S    
C8    O14   S    
C12   O9    S    
C10   O11   S    
C2    C16   S    
O15   H7    S    
O10   H2    S    
Cu2   O6    S    
C3    C6    S    
Cu1   O5    S    
C16   N4    S    
C6    C9    A    
C3    O7    A    
Cu1   Cu2   S    
C7    O13   S    
C11   O10   S    
C5    C10   A    
C13   C14   A    
C11   C13   A    
C6    C11   A    
N1    O15   S    
O9    H1    S    
Cu2   O3    S    
N4    H12   S    
N4    H11   S    
C4    O8    A    
O13   H5    S    
C12   C14   A    
O11   H3    S    
C1    O3    A    
N3    H10   S    
C2    O4    A    
C9    O12   S    
Cu1   O4    S    
C15   N3    S    
C15   C16   D    
N3    H9    S    
C3    O5    A    
N2    O16   S    
C5    C12   A    
C8    C10   A    
Cu2   N1    S    
O14   H6    S    
C7    C9    A    
Cu2   O2    S    
Cu1   O8    S    
Cu1   N2    S    
C7    C14   A    
Cu1   O1    S    
Cu2   O7    S    
N1    N2    D    
C4    C5    S    
O12   H4    S    
