data_mof_unit_66599.cif
_audit_creation_date              2012-12-11T17:44:43-0500
_audit_creation_method            fapswitch 2.2
_symmetry_space_group_name_H-M    P1
_symmetry_Int_Tables_number       1
_space_group_crystal_system       triclinic
_cell_length_a                    8.375615
_cell_length_b                    13.103607
_cell_length_c                    14.937915
_cell_angle_alpha                 96.369279
_cell_angle_beta                  98.95026
_cell_angle_gamma                 98.879319
_cell_volume                      1584.70732706

loop_
_atom_site_label
_atom_site_type_symbol
_atom_type_description
_atom_site_fract_x
_atom_site_fract_y
_atom_site_fract_z
_atom_type_partial_charge
Ba1   Ba    Ba6+2 0.843760 0.550230 0.455610 1.625005
Ba2   Ba    Ba6+2 0.346080 0.449860 0.544400 1.627365
C1    C     C_3   0.592437 0.906957 0.215097 -0.380900
C2    C     C_R   0.120924 0.446067 0.203132 0.059184
C3    C     C_R   0.914520 0.498415 0.771069 -0.074728
C4    C     C_3   0.969714 0.860142 0.222761 0.271010
C5    C     C_R   0.820533 0.452221 0.830485 0.005792
C6    C     C_R   0.892944 0.445195 0.919383 -0.187120
C7    C     C_R   0.061150 0.484512 0.952202 0.004712
C8    C     C_R   0.155810 0.533577 0.891200 -0.066114
C9    C     C_R   0.137861 0.475575 0.043743 0.008583
C10   C     C_R   0.311491 0.508228 0.070320 -0.033414
C11   C     C_R   0.399648 0.555565 0.008556 -0.061324
C12   C     C_3   0.518660 0.798619 0.231369 0.516174
C13   C     C_R   0.321759 0.573953 0.924019 -0.033605
C14   C     C_R   0.045767 0.443823 0.111955 -0.137947
C15   C     C_R   0.292316 0.471815 0.225891 -0.297159
C16   C     C_3   0.974048 0.946769 0.161972 0.176075
C17   C     C_R   0.081840 0.538606 0.798656 0.048139
C18   C     C_R   0.779386 0.170086 0.531806 -0.222051
C19   C     C_R   0.430389 0.811318 0.460808 -0.283217
C20   C     C_R   0.392332 0.986008 0.436713 -0.076169
C21   C     C_R   0.331200 0.879355 0.427212 0.006928
C22   C     C_R   0.588611 0.847926 0.509906 0.061385
C23   C     C_3   0.442055 0.271454 0.263050 0.351013
C24   C     C_R   0.653604 0.958144 0.522368 -0.045336
C25   C     C_R   0.552919 0.027348 0.483041 -0.053410
C26   C     C_R   0.616338 0.135933 0.490827 0.024793
C27   C     C_R   0.877341 0.109065 0.576755 0.003095
C28   C     C_3   0.297249 0.769799 0.655456 0.336710
C29   C     C_R   0.813774 0.002089 0.572756 -0.111187
C30   C     C_3   0.368139 0.884389 0.686461 -0.046567
C31   C     C_3   0.918155 0.232749 0.354064 0.286261
C32   C     C_3   0.880687 0.116152 0.332909 -0.363171
C33   C     C_3   0.757529 0.712266 0.738892 0.265834
C34   C     C_3   0.476869 0.246500 0.166728 -0.361846
C35   C     C_3   0.781554 0.751312 0.840699 -0.407122
C36   C     C_3   0.129023 0.922435 0.754052 -0.153391
C37   C     C_3   0.250251 0.693295 0.224737 -0.205184
C38   C     C_3   0.100578 0.080972 0.957782 -0.235931
C39   C     C_3   0.614948 0.114573 0.984450 -0.226338
C40   C     C_3   0.862584 0.394569 0.626179 -0.001879
C41   C     C_3   0.121149 0.241601 0.800274 0.390535
C42   C     C_3   0.203092 0.244818 0.900550 -0.001711
C43   C     C_3   0.627040 0.186476 0.773491 0.436699
C44   C     C_3   0.712757 0.121592 0.838404 -0.033523
C45   C     C_R   0.388271 0.509104 0.162997 0.002893
Cl1   Cl    Cl    0.171282 0.027198 0.185842 -0.778248
H1    H     H_    0.564459 0.793478 0.304086 0.028885
H2    H     H_    0.649123 0.649133 0.722681 0.068249
H3    H     H_    0.712219 0.928191 0.259915 0.087077
H4    H     H_    0.888393 0.815907 0.860573 0.110462
H5    H     H_    0.803884 0.686781 0.880706 0.072759
H6    H     H_    0.669894 0.779841 0.857215 0.116621
H7    H     H_    0.520803 0.967473 0.235834 0.147283
H8    H     H_    0.310713 0.277908 0.259362 0.051315
H9    H     H_    0.521957 0.346890 0.292755 0.035467
H10   H     H_    0.398430 0.172817 0.131492 0.190974
H11   H     H_    0.451685 0.309699 0.125881 0.050814
H12   H     H_    0.450499 0.893528 0.753647 0.091150
H13   H     H_    0.607771 0.238711 0.169983 0.113517
H14   H     H_    0.602692 0.908691 0.141999 0.123827
H15   H     H_    0.950783 0.911204 0.089040 0.021929
H16   H     H_    0.158599 0.320537 0.782074 0.037777
H17   H     H_    0.986933 0.227035 0.794589 -0.117615
H18   H     H_    0.324140 0.297197 0.913021 0.117891
H19   H     H_    0.128450 0.279971 0.946708 0.032076
H20   H     H_    0.717017 0.218690 0.732122 -0.135808
H21   H     H_    0.525941 0.135456 0.724656 0.033183
H22   H     H_    0.816861 0.173432 0.885359 0.072461
H23   H     H_    0.443638 0.914328 0.637902 0.019334
H24   H     H_    0.763303 0.062967 0.796407 0.018139
H25   H     H_    0.854151 0.803745 0.203418 0.050054
H26   H     H_    0.349000 0.476861 0.296869 0.061182
H27   H     H_    0.530592 0.582681 0.026086 0.102551
H28   H     H_    0.914162 0.421925 0.097855 0.080722
H29   H     H_    0.816180 0.403049 0.959426 0.074362
H30   H     H_    0.395776 0.618265 0.883858 0.103476
H31   H     H_    0.310949 0.036093 0.409969 0.141972
H32   H     H_    0.891817 0.953951 0.605267 0.126687
H33   H     H_    0.840563 0.241154 0.516661 -0.044464
H34   H     H_    0.808723 0.262381 0.371298 0.016442
H35   H     H_    0.062700 0.821699 0.202467 0.023994
H36   H     H_    0.378414 0.729472 0.455266 0.059645
H37   H     H_    0.880353 0.995847 0.169725 0.053539
H38   H     H_    0.395619 0.729400 0.636053 -0.016675
H39   H     H_    0.196154 0.760726 0.595972 0.075451
H40   H     H_    0.292846 0.023980 0.702392 0.250041
H41   H     H_    0.050474 0.982619 0.759358 0.105272
H42   H     H_    0.197155 0.917646 0.823049 0.098988
H43   H     H_    0.045129 0.848398 0.726607 0.154949
H44   H     H_    0.311037 0.853484 0.255521 0.177934
H45   H     H_    0.024419 0.254916 0.411229 0.080415
H46   H     H_    0.223993 0.649868 0.156578 0.119735
H47   H     H_    0.310657 0.660051 0.283144 0.055102
H48   H     H_    0.125796 0.692125 0.237071 0.091452
H49   H     H_    0.292260 0.102879 0.882365 0.258887
H50   H     H_    0.148402 0.014678 0.986141 0.155728
H51   H     H_    0.996978 0.048690 0.901500 0.091382
H52   H     H_    0.057521 0.127798 0.012939 0.154100
H53   H     H_    0.599384 0.989257 0.884770 0.192340
H54   H     H_    0.518495 0.071206 0.015918 0.125931
H55   H     H_    0.598675 0.197359 0.987935 0.149992
H56   H     H_    0.778444 0.096822 0.273934 0.119377
H57   H     H_    0.736866 0.109922 0.024052 0.096061
H58   H     H_    0.739669 0.517147 0.659578 0.206158
H59   H     H_    0.748415 0.359252 0.585017 0.115839
H60   H     H_    0.896073 0.336885 0.671471 -0.006846
H61   H     H_    0.938175 0.405783 0.573192 0.149206
H62   H     H_    0.846103 0.076730 0.390006 0.081643
H63   H     H_    0.992355 0.089244 0.316133 0.206793
H64   H     H_    0.870917 0.685491 0.724286 0.019084
N1    N     N_2   0.241149 0.946831 0.691791 -0.404374
N2    N     N_2   0.342894 0.792550 0.217186 -0.429441
N3    N     N_2   0.229777 0.143551 0.924000 -0.420091
N4    N     N_2   0.600826 0.068514 0.890282 -0.422706
N5    N     N_2   0.847718 0.490796 0.677396 -0.436695
O1    O     O_2   0.827930 0.435360 0.277760 -0.475911
O2    O     O_2   0.216983 0.128020 0.574211 -0.466095
O3    O     O_3   0.168290 0.164025 0.742064 -0.614419
O4    O     O_3   0.100310 0.439010 0.391180 -0.504105
O5    O     O_3   0.587770 0.631830 0.546230 -0.508312
O6    O     O_2   0.332600 0.233710 0.456170 -0.457896
O7    O     O_3   0.474313 0.190038 0.312625 -0.607404
O8    O     O_2   0.482422 0.444720 0.820668 -0.495292
O9    O     O_3   0.562472 0.262517 0.823995 -0.598207
O10   O     O_3   0.625610 0.634200 0.333270 -0.485173
O11   O     O_2   0.735262 0.573313 0.181055 -0.492468
O12   O     O_3   0.731052 0.794070 0.689602 -0.658529
O13   O     O_3   0.954440 0.268693 0.274469 -0.622959
O14   O     O_3   0.566068 0.723257 0.169385 -0.609052
O15   O     O_2   0.857120 0.766320 0.543890 -0.444930
O16   O     O_3   0.056570 0.691100 0.379020 -0.488098
O17   O     O_2   0.057169 0.867962 0.480970 -0.447781
O18   O     O_3   0.994900 0.899886 0.316946 -0.599914
O19   O     O_2   0.361790 0.564680 0.722290 -0.479523
O20   O     O_3   0.089410 0.561080 0.608830 -0.491190
O21   O     O_3   0.564100 0.365890 0.666740 -0.484455
O22   O     O_3   0.239636 0.730864 0.729604 -0.659719
O23   O     O_3   0.601940 0.368260 0.453780 -0.521809
O24   O     O_3   0.133140 0.308990 0.620990 -0.500484
P1    P     P_3+3 0.998770 0.403620 0.291990 0.978267
P2    P     P_3+3 0.687370 0.751000 0.571300 0.948801
P3    P     P_3+3 0.110090 0.829958 0.390938 0.962215
P4    P     P_3+3 0.190950 0.596470 0.708020 0.970707
P5    P     P_3+3 0.094570 0.174535 0.627434 0.952914
P6    P     P_3+3 0.580475 0.604487 0.213648 0.949259
P7    P     P_3+3 0.509112 0.232722 0.430646 0.935071
P8    P     P_3+3 0.608601 0.383613 0.786126 0.953939

loop_
_geom_bond_atom_site_label_1
_geom_bond_atom_site_label_2
_ccdc_geom_bond_type
C31   O13   S    
O3    P5    S    
C42   H18   S    
C23   H8    S    
Ba1   O15   S    
O23   P7    S    
C38   H51   S    
C29   H32   S    
Ba2   O6    S    
Ba2   P4    S    
O7    P7    S    
C36   H41   S    
C24   C25   A    
C17   P4    S    
C39   H57   S    
O20   P4    S    
C33   C35   S    
C40   H61   S    
C22   C24   A    
C20   H31   S    
C34   H10   S    
C8    C13   A    
C2    P1    S    
O9    P8    S    
C16   H15   S    
Ba2   O4    S    
C38   N3    S    
H53   N4    S    
C22   P2    S    
C39   H54   S    
Ba1   Ba2   S    
H40   N1    S    
Ba1   O5    S    
Ba1   P1    S    
C5    P8    S    
C1    H7    S    
C11   H27   S    
C42   N3    S    
C6    C7    A    
O14   P6    S    
C28   O22   S    
C30   N1    S    
H49   N3    S    
C31   H34   S    
C8    C17   A    
C44   H24   S    
O19   P4    D    
C41   O3    S    
C18   C27   A    
C35   H5    S    
C34   H11   S    
O15   P2    D    
C24   C29   A    
C18   H33   S    
C32   H63   S    
C23   H9    S    
O5    P2    S    
C43   H20   S    
C10   C45   A    
Ba1   O16   S    
C41   H16   S    
C30   H23   S    
Ba1   O4    S    
C12   O14   S    
Ba2   O5    S    
O21   P8    S    
C4    C16   S    
C45   P6    S    
C26   P7    S    
C16   H37   S    
C43   H21   S    
Ba2   O21   S    
C15   C45   A    
C5    C6    A    
C27   P5    S    
C3    C5    A    
C36   N1    S    
C1    H3    S    
C18   C26   A    
C12   N2    S    
C36   H43   S    
C32   H56   S    
C39   H55   S    
C3    N5    S    
O2    P5    D    
C2    C14   A    
C41   C42   S    
C37   H46   S    
C4    O18   S    
Ba1   P2    S    
C9    C14   A    
C19   H36   S    
C43   O9    S    
C41   H17   S    
C37   N2    S    
C33   H2    S    
C31   C32   S    
O11   P6    D    
O6    P7    D    
C7    C9    A    
C37   H47   S    
Ba1   O23   S    
O8    P8    D    
O24   P5    S    
O12   P2    S    
C2    C15   A    
O18   P3    S    
C20   C25   A    
C11   C13   A    
H58   N5    S    
C15   H26   S    
C32   H62   S    
C40   H59   S    
C21   P3    S    
C28   H38   S    
C35   H6    S    
C39   N4    S    
C34   H13   S    
Ba1   O20   S    
C12   H1    S    
C4    H25   S    
C7    C8    A    
C1    H14   S    
C35   H4    S    
C33   O12   S    
O22   P4    S    
O16   P3    S    
C4    H35   S    
C14   H28   S    
Ba2   O20   S    
O4    P1    S    
Ba1   O10   S    
O1    P1    D    
C31   H45   S    
C38   H52   S    
C16   Cl1   S    
C9    C10   A    
C40   N5    S    
C3    C17   A    
C1    C12   S    
C36   H42   S    
C44   N4    S    
Ba2   O23   S    
C19   C21   A    
C27   C29   A    
C28   C30   S    
C6    H29   S    
H44   N2    S    
Ba1   O1    S    
O13   P1    S    
C23   O7    S    
Ba2   O19   S    
C37   H48   S    
C44   H22   S    
C23   C34   S    
O17   P3    D    
C13   H30   S    
C43   C44   S    
C10   C11   A    
C19   C22   A    
C25   C26   A    
Ba2   O24   S    
C30   H12   S    
C20   C21   A    
C38   H50   S    
C42   H19   S    
C28   H39   S    
C40   H60   S    
C33   H64   S    
O10   P6    S    
