data_mof_unit_11983.cif
_audit_creation_date              2012-12-10T18:52:12-0500
_audit_creation_method            fapswitch 2.2
_symmetry_space_group_name_H-M    P1
_symmetry_Int_Tables_number       1
_space_group_crystal_system       triclinic
_cell_length_a                    15.743948
_cell_length_b                    10.815653
_cell_length_c                    9.881304
_cell_angle_alpha                 88.498771
_cell_angle_beta                  89.431326
_cell_angle_gamma                 91.430443
_cell_volume                      1681.40317837

loop_
_atom_site_label
_atom_site_type_symbol
_atom_type_description
_atom_site_fract_x
_atom_site_fract_y
_atom_site_fract_z
_atom_type_partial_charge
C1    C     C_R   0.502840 0.260171 0.501883 0.906800
C2    C     C_R   0.497164 0.739831 0.498119 0.906544
C3    C     C_R   0.530952 0.940620 0.384609 0.154413
C4    C     C_R   0.469071 0.059388 0.615410 0.155536
C5    C     C_R   0.493310 0.872667 0.494400 -0.158950
C6    C     C_R   0.506709 0.127339 0.505615 -0.159161
C7    C     C_R   0.560227 0.566894 0.068900 -0.014905
C8    C     C_R   0.439768 0.433114 0.931101 -0.013511
C9    C     C_R   0.559152 0.568786 0.924806 -0.012556
C10   C     C_R   0.440839 0.431227 0.075195 -0.010518
C11   C     C_R   0.338111 0.500093 0.500592 0.904969
C12   C     C_R   0.661889 0.499856 0.499401 0.903021
C13   C     C_3   0.970114 0.419618 0.598089 -0.064985
C14   C     C_3   0.029878 0.577533 0.400504 -0.064375
C15   C     C_3   0.027100 0.384763 0.477817 0.159338
C16   C     C_3   0.972980 0.612347 0.520723 0.183666
C17   C     C_1   0.249525 0.500755 0.501931 -0.146392
C18   C     C_1   0.750461 0.498422 0.497977 -0.147009
C19   C     C_3   0.026369 0.535841 0.619917 0.175449
C20   C     C_3   0.973539 0.461271 0.378615 0.153847
C21   C     C_3   0.083811 0.500627 0.500554 -0.059134
C22   C     C_3   0.916155 0.496796 0.498295 -0.059762
C23   C     C_1   0.174465 0.501081 0.502084 -0.014793
C24   C     C_1   0.825507 0.497267 0.497450 -0.017087
C25   C     C_R   0.541488 0.067734 0.393598 -0.097025
C26   C     C_R   0.458546 0.932273 0.606433 -0.098221
N1    N     N_R   0.499980 0.499970 0.857200 -0.120087
N2    N     N_R   0.500020 0.500030 0.142800 -0.120136
O1    O     O_R   0.499990 0.316750 0.614620 -0.595032
O2    O     O_R   0.500010 0.683250 0.385380 -0.595159
O3    O     O_R   0.500000 0.316780 0.385290 -0.617923
O4    O     O_R   0.500000 0.683220 0.614710 -0.619112
O5    O     O_R   0.376780 0.499970 0.614640 -0.609746
O6    O     O_R   0.623220 0.500030 0.385360 -0.610760
O7    O     O_R   0.376780 0.500000 0.385310 -0.619002
O8    O     O_R   0.623220 0.500000 0.614690 -0.617550
Zn1   Zn    Zn3+2 0.500000 0.499980 0.653120 0.983103
Zn2   Zn    Zn3+2 0.500000 0.500020 0.346880 0.982427
N3    N     N_2   0.062557 0.264603 0.455341 -0.288031
H1    H     H_    0.110694 0.266999 0.383797 0.237262
C27   C     C_3   0.002030 0.163525 0.439464 -0.771196
H2    H     H_    0.036855 0.077262 0.423134 0.240435
H3    H     H_    0.961033 0.180562 0.350732 0.239438
H4    H     H_    0.961926 0.150008 0.531704 0.253559
N4    N     N_2   0.939291 0.733484 0.543748 -0.298732
H5    H     H_    0.892617 0.757439 0.476210 0.238096
C28   C     C_3   0.001828 0.831590 0.562029 -0.762786
H6    H     H_    0.969616 0.914714 0.598455 0.243078
H7    H     H_    0.034635 0.855501 0.464671 0.236233
H8    H     H_    0.049576 0.804176 0.638213 0.274345
C29   C     C_1   0.935746 0.335183 0.704967 0.185499
N5    N     N_1   0.908606 0.268653 0.789158 -0.216551
C30   C     C_1   0.064237 0.663120 0.294698 0.187767
N6    N     N_1   0.091365 0.730564 0.211358 -0.216266
N7    N     N_2   0.939362 0.422072 0.250533 -0.290199
H9    H     H_    0.890157 0.357804 0.261236 0.235947
C31   C     C_3   0.000895 0.391510 0.147861 -0.762089
H10   H     H_    0.045739 0.470394 0.126624 0.251707
H11   H     H_    0.036897 0.309170 0.179680 0.240609
H12   H     H_    0.967344 0.369821 0.052871 0.248686
N8    N     N_2   0.059278 0.575205 0.748729 -0.303257
H13   H     H_    0.103198 0.515558 0.788454 0.238582
C32   C     C_3   0.996350 0.610360 0.847231 -0.735972
H14   H     H_    0.028790 0.645266 0.938379 0.248237
H15   H     H_    0.954968 0.529815 0.877738 0.239248
H16   H     H_    0.956413 0.685049 0.805877 0.274903
C33   C     C_1   0.590198 0.135100 0.288318 0.190565
N9    N     N_1   0.628936 0.188530 0.204438 -0.203530
C34   C     C_1   0.409871 0.864908 0.711754 0.194827
N10   N     N_1   0.371164 0.811480 0.795672 -0.198038
N11   N     N_2   0.556821 0.881465 0.264131 -0.278756
H17   H     H_    0.616431 0.908622 0.228817 0.233112
C35   C     C_3   0.493639 0.883548 0.158535 -0.708224
H18   H     H_    0.480245 0.980342 0.126730 0.226183
H19   H     H_    0.433753 0.836684 0.194815 0.256716
H20   H     H_    0.517312 0.834323 0.069103 0.220588
N12   N     N_2   0.443193 0.118549 0.735882 -0.277851
H21   H     H_    0.383583 0.091389 0.771194 0.234954
C36   C     C_3   0.506373 0.116495 0.841482 -0.709521
H22   H     H_    0.519786 0.019707 0.873290 0.225701
H23   H     H_    0.482687 0.165710 0.930913 0.221501
H24   H     H_    0.566251 0.163383 0.805206 0.256661
C37   C     C_1   0.627548 0.631961 0.137498 0.257546
N13   N     N_1   0.682556 0.683707 0.190701 -0.211863
C38   C     C_1   0.372435 0.368067 0.862508 0.251872
N14   N     N_1   0.317415 0.316338 0.809314 -0.212438
C39   C     C_1   0.619285 0.646707 0.848804 0.237867
N15   N     N_1   0.667581 0.709874 0.788827 -0.203912
C40   C     C_1   0.380675 0.353352 0.151196 0.235840
N16   N     N_1   0.332349 0.290227 0.211168 -0.214575

loop_
_geom_bond_atom_site_label_1
_geom_bond_atom_site_label_2
_ccdc_geom_bond_type
C7    C37   S    
N7    H9    S    
C32   H15   S    
C5    C26   A    
C35   H19   S    
C27   H2    S    
C25   C33   S    
C39   N15   T    
C28   H7    S    
N12   H21   S    
C17   C23   T    
C18   C24   T    
C14   C21   S    
O8    Zn1   S    
C19   C21   S    
N1    Zn1   S    
C38   N14   T    
C31   H11   S    
C6    C25   A    
O1    Zn1   S    
C1    O3    A    
O2    Zn2   S    
C2    O4    A    
C8    C38   S    
C35   H18   S    
N8    C32   S    
C13   C29   S    
C37   N13   T    
C10   C40   S    
N2    Zn2   S    
C12   O8    A    
N12   C36   S    
C32   H16   S    
C27   H3    S    
C34   N10   T    
C20   N7    S    
C28   H8    S    
N4    C28   S    
C21   C23   S    
C15   C20   S    
C26   C34   S    
C13   C19   S    
C33   N9    T    
C14   C20   S    
C11   O5    A    
O7    Zn2   S    
C36   H22   S    
N3    C27   S    
N3    H1    S    
C36   H23   S    
C31   H12   S    
C30   N6    T    
O5    Zn1   S    
C7    N2    A    
C29   N5    T    
C3    N11   S    
C28   H6    S    
C3    C25   A    
C1    O1    A    
O4    Zn1   S    
C15   N3    S    
C4    C6    A    
C20   C22   S    
N7    C31   S    
C27   H4    S    
C14   C16   S    
C2    C5    S    
C12   O6    A    
C9    N1    A    
N11   C35   S    
C10   N2    A    
C7    C9    A    
C11   C17   S    
C16   C22   S    
O6    Zn2   S    
C3    C5    A    
C16   N4    S    
C36   H24   S    
C4    C26   A    
O3    Zn2   S    
C2    O2    A    
C13   C15   S    
C4    N12   S    
C9    C39   S    
C31   H10   S    
C15   C21   S    
C19   N8    S    
C16   C19   S    
C11   O7    A    
C35   H20   S    
C13   C22   S    
C22   C24   S    
N8    H13   S    
C32   H14   S    
N4    H5    S    
N11   H17   S    
C14   C30   S    
C8    C10   A    
C12   C18   S    
C1    C6    S    
C8    N1    A    
C40   N16   T    
