data_mof_unit_36179.cif
_audit_creation_date              2012-12-10T18:31:57-0500
_audit_creation_method            fapswitch 2.2
_symmetry_space_group_name_H-M    P1
_symmetry_Int_Tables_number       1
_space_group_crystal_system       triclinic
_cell_length_a                    10.659165
_cell_length_b                    14.994919
_cell_length_c                    15.404343
_cell_angle_alpha                 81.803129
_cell_angle_beta                  90.429823
_cell_angle_gamma                 104.434409
_cell_volume                      2359.03790059

loop_
_atom_site_label
_atom_site_type_symbol
_atom_type_description
_atom_site_fract_x
_atom_site_fract_y
_atom_site_fract_z
_atom_type_partial_charge
C1    C     C_R   0.478435 0.441694 0.662220 0.883421
C2    C     C_R   0.417615 0.457783 0.894511 0.037944
C3    C     C_R   0.318290 0.375133 0.921461 0.068558
C4    C     C_R   0.742206 0.500175 0.502604 0.838090
C5    C     C_R   0.453018 0.527980 0.949123 0.086530
C6    C     C_R   0.408641 0.508000 0.037440 0.058592
C7    C     C_R   0.311405 0.425669 0.064315 -0.300242
C8    C     C_R   0.266055 0.360248 0.008195 -0.017138
C9    C     C_R   0.531052 0.618090 0.917760 -0.227443
C10   C     C_R   0.580079 0.681261 0.974762 -0.243402
C11   C     C_R   0.555167 0.655819 0.064556 0.171830
C12   C     C_3   0.121178 0.495253 0.507145 -0.009745
C13   C     C_R   0.467431 0.569560 0.096600 0.107689
C14   C     C_R   0.620275 0.714091 0.123075 -0.202520
C15   C     C_R   0.607063 0.684043 0.213164 -0.167237
C16   C     C_R   0.518163 0.558745 0.337821 0.863791
C17   C     C_R   0.451007 0.543849 0.187455 -0.272988
C18   C     C_R   0.674028 0.832684 0.652936 -0.307228
C19   C     C_R   0.648057 0.747024 0.623449 -0.012417
C20   C     C_R   0.518135 0.796956 0.510313 0.076097
C21   C     C_R   0.527500 0.881834 0.544700 -0.075374
C22   C     C_R   0.614590 0.901708 0.613866 0.089102
C23   C     C_3   0.097683 0.562246 0.425180 -0.442800
C24   C     C_R   0.456885 0.947937 0.512120 0.070489
C25   C     C_R   0.496347 0.040372 0.532083 0.044508
C26   C     C_R   0.587376 0.059256 0.598053 -0.274757
C27   C     C_R   0.642192 0.990013 0.642141 0.230617
C28   C     C_R   0.257937 0.497217 0.504545 0.889119
C29   C     C_R   0.342943 0.923056 0.464709 -0.207123
C30   C     C_R   0.286146 0.989732 0.422132 -0.187092
C31   C     C_R   0.337231 0.083070 0.429262 0.130805
C32   C     C_R   0.439620 0.109876 0.486792 0.017395
C33   C     C_R   0.285091 0.149500 0.379784 -0.345685
C34   C     C_3   0.086807 0.529494 0.592285 -0.439453
C35   C     C_R   0.331484 0.243166 0.388854 0.356941
C36   C     C_R   0.480937 0.205445 0.494958 -0.123494
C37   C     C_3   0.892607 0.398612 0.510521 -0.501366
C38   C     C_3   0.034514 0.395444 0.504634 0.071353
C39   C     C_3   0.950845 0.556415 0.414119 0.186969
C40   C     C_3   0.948683 0.547797 0.586867 0.419177
C41   C     C_3   0.880906 0.502292 0.504047 -0.064636
C42   C     C_1   0.931204 0.651887 0.394067 0.192318
C43   C     C_1   0.172093 0.276270 0.045535 0.208399
C44   C     C_3   0.044573 0.255488 0.858160 -0.795127
C45   C     C_R   0.438712 0.407741 0.753750 -0.088508
C46   C     C_3   0.781508 0.101672 0.730826 -0.828834
C47   C     C_3   0.156855 0.292947 0.304315 -0.865372
C48   C     C_1   0.463523 0.780475 0.426305 0.201766
C49   C     C_3   0.051105 0.234877 0.555574 -0.791235
C50   C     C_3   0.959298 0.536791 0.253881 -0.793058
C51   C     C_3   0.064004 0.719999 0.594311 -0.820530
C52   C     C_3   0.905542 0.542818 0.747679 -0.815327
C53   C     C_R   0.525487 0.596963 0.244955 -0.055137
C54   C     C_R   0.276493 0.311343 0.860151 0.211547
C55   C     C_R   0.337236 0.328883 0.776908 -0.271648
C56   C     C_R   0.482797 0.467699 0.814083 -0.248110
H1    H     H_    0.842472 0.363839 0.456103 0.209226
H2    H     H_    0.266063 0.411107 0.128836 0.152429
H3    H     H_    0.554259 0.642060 0.848920 0.149057
H4    H     H_    0.686317 0.780548 0.099063 0.141386
H5    H     H_    0.556096 0.232249 0.538361 0.140589
H6    H     H_    0.201918 0.968013 0.383075 0.153900
H7    H     H_    0.739424 0.843423 0.706650 0.150937
H8    H     H_    0.687854 0.692313 0.656873 0.127434
H9    H     H_    0.610370 0.126158 0.619887 0.153474
H10   H     H_    0.293390 0.851664 0.461731 0.145597
H11   H     H_    0.210370 0.128193 0.333570 0.169477
H12   H     H_    0.163244 0.589403 0.607039 0.199193
H13   H     H_    0.052848 0.375304 0.439884 0.188123
H14   H     H_    0.142083 0.546094 0.366405 0.173718
H15   H     H_    0.091422 0.476673 0.649652 0.151492
H16   H     H_    0.176346 0.175879 0.851867 0.226226
H17   H     H_    0.964476 0.195490 0.885547 0.246647
H18   H     H_    0.034840 0.269827 0.786094 0.225151
H19   H     H_    0.035948 0.317015 0.888038 0.250634
H20   H     H_    0.696783 0.960470 0.771210 0.219576
H21   H     H_    0.859197 0.101131 0.778992 0.246947
H22   H     H_    0.706784 0.130732 0.758289 0.239482
H23   H     H_    0.152068 0.634522 0.432225 0.182124
H24   H     H_    0.825614 0.146221 0.669506 0.253229
H25   H     H_    0.354539 0.341220 0.282071 0.222858
H26   H     H_    0.146815 0.250729 0.249866 0.247836
H27   H     H_    0.131211 0.359196 0.279745 0.242176
H28   H     H_    0.088151 0.255172 0.358799 0.250302
H29   H     H_    0.025532 0.328841 0.636478 0.217509
H30   H     H_    0.064756 0.188558 0.615997 0.238203
H31   H     H_    0.127543 0.235487 0.507155 0.268436
H32   H     H_    0.953855 0.206946 0.529636 0.234354
H33   H     H_    0.799364 0.490209 0.338408 0.230514
H34   H     H_    0.385166 0.480553 0.215669 0.145180
H35   H     H_    0.990798 0.613866 0.239445 0.248479
H36   H     H_    0.889035 0.511616 0.203668 0.239512
H37   H     H_    0.042979 0.506540 0.247087 0.238088
H38   H     H_    0.868020 0.663053 0.592413 0.257637
H39   H     H_    0.038981 0.788303 0.585993 0.244838
H40   H     H_    0.145304 0.726992 0.547407 0.241431
H41   H     H_    0.093581 0.705056 0.662996 0.245479
H42   H     H_    0.858363 0.430852 0.679731 0.206218
H43   H     H_    0.843952 0.498307 0.803157 0.238122
H44   H     H_    0.885569 0.612526 0.741712 0.248418
H45   H     H_    0.663413 0.727193 0.257559 0.168512
H46   H     H_    0.008693 0.547914 0.763403 0.244691
H47   H     H_    0.642715 0.748489 0.948803 0.144104
H48   H     H_    0.299307 0.283910 0.728571 0.169104
H49   H     H_    0.567472 0.524082 0.795344 0.154258
H50   H     H_    0.842479 0.354989 0.570596 0.167441
N1    N     N_R   0.573860 0.731700 0.552730 -0.114699
N2    N     N_2   0.899079 0.505917 0.341063 -0.310310
N3    N     N_2   0.952596 0.648248 0.574872 -0.276364
N4    N     N_2   0.873522 0.502064 0.667857 -0.323096
N5    N     N_R   0.426060 0.268290 0.447230 -0.122760
N6    N     N_1   0.915830 0.726164 0.378115 -0.211727
N7    N     N_1   0.097042 0.209204 0.075856 -0.212081
N8    N     N_2   0.167421 0.233666 0.878105 -0.300809
N9    N     N_2   0.725120 0.007378 0.714847 -0.301905
N10   N     N_2   0.289192 0.313426 0.333453 -0.261473
N11   N     N_1   0.419577 0.767979 0.358781 -0.216001
N12   N     N_2   0.063396 0.327986 0.575368 -0.291650
O1    O     O_R   0.462770 0.383110 0.605620 -0.615355
O2    O     O_R   0.510160 0.531900 0.639510 -0.620849
O3    O     O_R   0.661510 0.425600 0.483070 -0.630155
O4    O     O_R   0.708900 0.574390 0.516960 -0.623225
O5    O     O_R   0.489840 0.468100 0.360490 -0.617392
O6    O     O_R   0.537230 0.616890 0.394380 -0.599980
O7    O     O_R   0.291100 0.425610 0.483040 -0.580559
O8    O     O_R   0.338490 0.574400 0.516930 -0.633996
Zn1   Zn    Zn3+2 0.468350 0.400660 0.477370 0.948303
Zn2   Zn    Zn3+2 0.531650 0.599340 0.522630 0.948319

loop_
_geom_bond_atom_site_label_1
_geom_bond_atom_site_label_2
_ccdc_geom_bond_type
C51   H41   S    
H42   N4    S    
C17   C53   A    
O4    Zn2   S    
C49   H31   S    
C23   H14   S    
C8    C43   S    
C7    C8    A    
C39   C41   S    
H29   N12   S    
C12   C23   S    
C52   H46   S    
C26   C27   A    
C29   C30   A    
C46   N9    S    
C12   C28   S    
C34   C40   S    
C32   C36   A    
C10   H47   S    
C16   O5    A    
N1    Zn2   S    
O3    Zn1   S    
O1    Zn1   S    
C30   C31   A    
C3    C54   A    
C18   H7    S    
C4    C41   S    
H16   N8    S    
H20   N9    S    
H33   N2    S    
C18   C19   A    
C1    O1    A    
C47   H26   S    
C42   N6    T    
C16   C53   S    
C33   C35   A    
C24   C29   A    
C27   N9    S    
C6    C7    A    
C49   N12   S    
C45   C56   A    
C31   C33   A    
C47   H27   S    
C9    C10   A    
C7    H2    S    
C51   H40   S    
O6    Zn2   S    
C20   N1    A    
C25   C32   A    
C38   H13   S    
C44   N8    S    
C51   N3    S    
C21   C22   A    
C50   N2    S    
C49   H32   S    
C47   N10   S    
C28   O8    A    
C39   C42   S    
C39   N2    S    
C24   C25   A    
C3    C8    A    
C34   H12   S    
C46   H22   S    
C40   N4    S    
C25   C26   A    
C55   H48   S    
C52   H44   S    
C9    H3    S    
C1    O2    A    
C44   H19   S    
C5    C9    A    
C37   C38   S    
O5    Zn1   S    
C31   C32   A    
C52   N4    S    
C19   H8    S    
C36   N5    A    
C40   N3    S    
C4    O4    A    
C35   N10   S    
C47   H28   S    
C15   H45   S    
C44   H18   S    
C20   C48   S    
C50   H36   S    
C40   C41   S    
C22   C27   A    
C30   H6    S    
N5    Zn1   S    
C2    C5    A    
C12   C34   S    
C36   H5    S    
C12   C38   S    
C15   C53   A    
C35   N5    A    
C28   O7    A    
C33   H11   S    
C54   C55   A    
O8    Zn2   S    
C52   H43   S    
C18   C22   A    
C26   H9    S    
C49   H30   S    
C17   H34   S    
C46   H21   S    
O2    Zn2   S    
C50   H37   S    
C48   N11   T    
C14   H4    S    
H38   N3    S    
C13   C17   A    
C2    C3    A    
C16   O6    A    
C37   H50   S    
C2    C56   A    
C43   N7    T    
C6    C13   A    
C46   H24   S    
C11   C13   A    
C1    C45   S    
C5    C6    A    
C23   C39   S    
C54   N8    S    
H25   N10   S    
C11   C14   A    
C4    O3    A    
C37   C41   S    
C44   H17   S    
C56   H49   S    
C10   C11   A    
C29   H10   S    
C38   N12   S    
C50   H35   S    
C20   C21   A    
C45   C55   A    
C21   C24   A    
O7    Zn1   S    
C14   C15   A    
C23   H23   S    
C34   H15   S    
C37   H1    S    
C51   H39   S    
C19   N1    A    
