data_mof_unit_51519.cif
_audit_creation_date              2012-12-10T16:52:40-0500
_audit_creation_method            fapswitch 2.2
_symmetry_space_group_name_H-M    P1
_symmetry_Int_Tables_number       1
_space_group_crystal_system       triclinic
_cell_length_a                    13.003806
_cell_length_b                    10.931009
_cell_length_c                    9.685736
_cell_angle_alpha                 89.49196
_cell_angle_beta                  96.122883
_cell_angle_gamma                 90.102232
_cell_volume                      1368.86801109

loop_
_atom_site_label
_atom_site_type_symbol
_atom_type_description
_atom_site_fract_x
_atom_site_fract_y
_atom_site_fract_z
_atom_type_partial_charge
C1    C     C_R   0.502421 0.265307 0.500983 0.884747
C2    C     C_R   0.027777 0.493125 0.564416 0.114553
C3    C     C_R   0.971802 0.510836 0.432341 0.066016
C4    C     C_R   0.864161 0.513465 0.421722 -0.237541
C5    C     C_R   0.868347 0.482020 0.670863 -0.189678
C6    C     C_R   0.975722 0.478691 0.682733 -0.190535
C7    C     C_2   0.523506 0.934855 0.389513 0.473581
C8    C     C_2   0.495947 0.867485 0.496961 -0.400345
C9    C     C_2   0.510358 0.068728 0.388612 -0.275716
C10   C     C_2   0.512765 0.133565 0.505467 -0.390090
C11   C     C_2   0.438559 0.431618 0.913985 -0.061920
C12   C     C_R   0.300536 0.500299 0.474071 0.826957
C13   C     C_2   0.440163 0.429626 0.070008 -0.071247
C14   C     C_R   0.500161 0.734898 0.499184 0.878468
C15   C     C_R   0.699466 0.500026 0.525819 0.798746
C16   C     C_R   0.812222 0.499001 0.540333 -0.066431
C17   C     C_R   0.187785 0.502640 0.458732 -0.114743
C18   C     C_R   0.024700 0.525767 0.313776 0.421961
C19   C     C_R   0.132487 0.519203 0.327562 -0.284613
C20   C     C_R   0.135102 0.489726 0.576607 -0.267296
Cu1   Cu    Cu3+1 0.500020 0.500020 0.638640 0.940484
Cu2   Cu    Cu3+1 0.499980 0.499980 0.361360 0.963330
H1    H     H_    0.820618 0.527041 0.321002 0.191215
H2    H     H_    0.527208 0.091175 0.607274 0.154017
H3    H     H_    0.383474 0.372216 0.855230 0.149517
H4    H     H_    0.552892 0.553268 0.900992 0.193495
H5    H     H_    0.388118 0.366507 0.114658 0.150853
H6    H     H_    0.546751 0.560768 0.112172 0.204215
H7    H     H_    0.829373 0.470225 0.763494 0.167654
H8    H     H_    0.018055 0.464416 0.784160 0.145115
H9    H     H_    0.172551 0.528374 0.235505 0.174628
H10   H     H_    0.177482 0.476318 0.678256 0.163995
H11   H     H_    0.467665 0.909262 0.586631 0.118173
H12   H     H_    0.500740 0.114553 0.288077 0.181193
N1    N     N_2   0.498860 0.498660 0.846770 -0.280357
N2    N     N_2   0.498840 0.498630 0.152900 -0.277178
O1    O     O_R   0.500020 0.321960 0.617050 -0.580388
O2    O     O_R   0.499980 0.321920 0.382890 -0.577750
O3    O     O_R   0.349010 0.500000 0.598060 -0.583568
O4    O     O_R   0.348980 0.499950 0.363910 -0.585724
O5    O     O_R   0.500020 0.678080 0.617110 -0.588904
O6    O     O_R   0.499980 0.678040 0.382950 -0.513546
O7    O     O_R   0.651020 0.500050 0.636090 -0.586220
O8    O     O_R   0.650990 0.500000 0.401940 -0.586697
O9    O     O_3   0.971399 0.539224 0.183172 -0.586702
C21   C     C_3   0.967794 0.664861 0.148000 0.040699
H13   H     H_    0.047087 0.703325 0.146334 0.149087
H14   H     H_    0.925889 0.717237 0.222799 0.140253
C22   C     C_3   0.910423 0.681003 0.003811 -0.789128
H15   H     H_    0.830975 0.642971 0.001197 0.247459
H16   H     H_    0.905516 0.779681 0.975803 0.201384
H17   H     H_    0.952436 0.633005 0.926515 0.250284
O10   O     O_3   0.553662 0.877380 0.272871 -0.553777
C23   C     C_3   0.649595 0.924446 0.240862 0.081769
H18   H     H_    0.705722 0.934295 0.335670 0.132637
H19   H     H_    0.638513 0.014595 0.187255 0.146231
C24   C     C_3   0.696113 0.836606 0.143750 -0.807756
H20   H     H_    0.642814 0.824858 0.047257 0.248721
H21   H     H_    0.770813 0.873709 0.116117 0.199951
H22   H     H_    0.709945 0.746096 0.195493 0.246458

loop_
_geom_bond_atom_site_label_1
_geom_bond_atom_site_label_2
_ccdc_geom_bond_type
C12   C17   S    
C4    C16   A    
C18   O9    S    
C12   O4    A    
Cu1   N1    S    
Cu2   N2    S    
C9    C10   D    
C23   H18   S    
Cu1   O3    S    
C1    O1    A    
C14   O6    A    
C22   H17   S    
Cu2   O4    S    
C19   H9    S    
C12   O3    A    
C11   N1    D    
C2    C3    A    
C15   O7    A    
C7    C8    D    
Cu2   O6    S    
Cu1   Cu2   S    
C11   C13   S    
C21   C22   S    
C24   H20   S    
C2    C6    A    
C1    O2    A    
C13   N2    D    
C14   O5    A    
Cu1   O5    S    
C17   C19   A    
C15   O8    A    
C18   C19   A    
C5    H7    S    
C8    H11   S    
C5    C6    A    
C23   H19   S    
C24   H21   S    
C7    O10   S    
C2    C20   A    
C15   C16   S    
Cu2   O2    S    
C21   H14   S    
O9    C21   S    
H4    N1    S    
C17   C20   A    
Cu1   O1    S    
H6    N2    S    
C3    C18   A    
C22   H15   S    
C20   H10   S    
C22   H16   S    
C7    C9    S    
C4    H1    S    
C11   H3    S    
C21   H13   S    
C13   H5    S    
C24   H22   S    
C8    C14   S    
C10   H2    S    
Cu1   O7    S    
C6    H8    S    
Cu2   O8    S    
C1    C10   S    
C3    C4    A    
O10   C23   S    
C9    H12   S    
C5    C16   A    
C23   C24   S    
