data_mof_unit_24234.cif
_audit_creation_date              2012-12-11T15:34:59-0500
_audit_creation_method            fapswitch 2.2
_symmetry_space_group_name_H-M    P1
_symmetry_Int_Tables_number       1
_space_group_crystal_system       triclinic
_cell_length_a                    30.559993
_cell_length_b                    7.248765
_cell_length_c                    25.973803
_cell_angle_alpha                 90.011874
_cell_angle_beta                  111.976637
_cell_angle_gamma                 89.987249
_cell_volume                      5335.68479026

loop_
_atom_site_label
_atom_site_type_symbol
_atom_type_description
_atom_site_fract_x
_atom_site_fract_y
_atom_site_fract_z
_atom_type_partial_charge
O1    O     O_R   0.295360 0.592990 0.320420 -0.528760
O2    O     O_R   0.704640 0.407010 0.679580 -0.533537
O3    O     O_R   0.204640 0.092990 0.179580 -0.534039
O4    O     O_R   0.795360 0.907010 0.820420 -0.533813
O5    O     O_R   0.294060 0.265620 0.213230 -0.542749
O6    O     O_R   0.705940 0.734380 0.786770 -0.516627
O7    O     O_R   0.205940 0.765620 0.286770 -0.515008
O8    O     O_R   0.794060 0.234380 0.713230 -0.542632
C1    C     C_R   0.303951 0.432384 0.199018 0.708542
C2    C     C_R   0.696142 0.567939 0.801024 0.708256
C3    C     C_R   0.196078 0.932157 0.300874 0.722960
C4    C     C_R   0.803951 0.067561 0.699009 0.709611
O9    O     O_R   0.300850 0.263360 0.322080 -0.536936
O10   O     O_R   0.699150 0.736640 0.677920 -0.535882
O11   O     O_R   0.199150 0.763360 0.177920 -0.537265
O12   O     O_R   0.800850 0.236640 0.822080 -0.536049
O13   O     O_R   0.211480 0.091820 0.289210 -0.545112
O14   O     O_R   0.788520 0.908180 0.710790 -0.513889
O15   O     O_R   0.288520 0.591820 0.210790 -0.514146
O16   O     O_R   0.711480 0.408180 0.789210 -0.542369
C5    C     C_R   0.313232 0.431536 0.343182 0.692806
C6    C     C_R   0.686694 0.568434 0.656851 0.687020
C7    C     C_R   0.186691 0.931565 0.156853 0.683317
C8    C     C_R   0.813226 0.068467 0.843185 0.684464
O17   O     O_3   0.220670 0.426670 0.239090 -0.376485
O18   O     O_3   0.779330 0.573330 0.760910 -0.369358
O19   O     O_3   0.279330 0.926670 0.260910 -0.368946
O20   O     O_3   0.720670 0.073330 0.739090 -0.373217
V1    V     V_3+5 0.255440 0.152290 0.252020 1.437208
V2    V     V_3+5 0.744560 0.847710 0.747980 1.466653
V3    V     V_3+5 0.244560 0.652290 0.247980 1.469944
V4    V     V_3+5 0.755440 0.347710 0.752020 1.438164
C9    C     C_R   0.850141 0.062770 0.899400 -0.040285
C10   C     C_R   0.149650 0.937379 0.100683 -0.039113
C11   C     C_R   0.649656 0.562630 0.600678 -0.040401
C12   C     C_R   0.350154 0.437229 0.399396 -0.040184
C13   C     C_R   0.873027 0.114130 0.997944 -0.151864
C14   C     C_R   0.126692 0.887297 0.002066 -0.152102
C15   C     C_R   0.626685 0.612955 0.502075 -0.151574
C16   C     C_R   0.373057 0.385729 0.497933 -0.153769
C17   C     C_R   0.838382 0.109023 0.944753 -0.165443
C18   C     C_R   0.161367 0.892521 0.055206 -0.158153
C19   C     C_R   0.661363 0.607700 0.555214 -0.158626
C20   C     C_R   0.338407 0.390884 0.444746 -0.156032
C21   C     C_R   0.897294 0.022023 0.907587 -0.209588
C22   C     C_R   0.102454 0.977189 0.092606 -0.212475
C23   C     C_R   0.602469 0.522697 0.592592 -0.210825
C24   C     C_R   0.397302 0.478010 0.407584 -0.212091
C25   C     C_R   0.933661 0.029169 0.961534 0.086580
C26   C     C_R   0.066060 0.970489 0.038651 0.087209
C27   C     C_R   0.566070 0.529486 0.538642 0.086938
C28   C     C_R   0.433674 0.470807 0.461527 0.087394
C29   C     C_R   0.920316 0.075793 0.006705 0.131894
C30   C     C_R   0.079395 0.924638 0.993416 0.130828
C31   C     C_R   0.579395 0.575492 0.493416 0.130864
C32   C     C_R   0.420341 0.424094 0.506692 0.131312
C33   C     C_R   0.982614 0.993909 0.972263 0.055478
C34   C     C_R   0.017098 0.005624 0.027941 0.056119
C35   C     C_R   0.517113 0.494308 0.527929 0.055618
C36   C     C_R   0.482623 0.506095 0.472256 0.055845
C37   C     C_R   0.001444 0.051796 0.070988 -0.180784
C38   C     C_R   0.998265 0.948040 0.929194 -0.180154
C39   C     C_R   0.498266 0.552073 0.429194 -0.179887
C40   C     C_R   0.501468 0.448050 0.570970 -0.179858
C41   C     C_R   0.954167 0.085771 0.060450 -0.189492
C42   C     C_R   0.045543 0.914618 0.939687 -0.188633
C43   C     C_R   0.545538 0.585563 0.439690 -0.188696
C44   C     C_R   0.454196 0.414055 0.560433 -0.188088
H1    H     H_    0.943996 0.121332 0.094978 0.135677
H2    H     H_    0.055717 0.879560 0.905125 0.136179
H3    H     H_    0.555705 0.620726 0.405136 0.136204
H4    H     H_    0.444033 0.378430 0.594957 0.136418
H5    H     H_    0.095433 0.009118 0.129284 0.095828
H6    H     H_    0.904297 0.989070 0.870966 0.098137
H7    H     H_    0.404298 0.511020 0.370965 0.097967
H8    H     H_    0.595456 0.490623 0.629263 0.097493
H9    H     H_    0.197501 0.860802 0.060890 0.106518
H10   H     H_    0.802234 0.141997 0.938880 0.114702
H11   H     H_    0.302265 0.357873 0.438874 0.118728
H12   H     H_    0.697489 0.639570 0.560909 0.106330
H13   H     H_    0.862862 0.150313 0.032414 0.125318
H14   H     H_    0.136859 0.851983 0.967534 0.125033
H15   H     H_    0.636843 0.648412 0.467551 0.125013
H16   H     H_    0.362900 0.349479 0.532399 0.125808
H17   H     H_    0.024958 0.063598 0.113709 0.129806
H18   H     H_    0.974773 0.936416 0.886462 0.131061
H19   H     H_    0.474769 0.563748 0.386466 0.131103
H20   H     H_    0.524986 0.436206 0.613689 0.130943
C45   C     C_R   0.093800 0.000761 0.481300 0.571524
C46   C     C_R   0.907676 0.047821 0.519152 0.571841
C47   C     C_R   0.407883 0.445000 0.019398 0.572147
C48   C     C_R   0.593824 0.505372 0.981633 0.570823
N1    N     N_R   0.074106 0.992097 0.424403 -0.553105
N2    N     N_R   0.927322 0.053708 0.576075 -0.553269
N3    N     N_R   0.427456 0.445685 0.076342 -0.553562
N4    N     N_R   0.574195 0.507154 0.924684 -0.553276
C49   C     C_R   0.026067 0.998499 0.396807 0.572476
C50   C     C_R   0.975381 0.052074 0.603663 0.574546
C51   C     C_R   0.475450 0.453843 0.104010 0.574704
C52   C     C_R   0.526270 0.493710 0.897047 0.575100
C53   C     C_R   0.995882 0.013023 0.426452 -0.029284
C54   C     C_R   0.005632 0.041934 0.573980 -0.030182
C55   C     C_R   0.505712 0.464131 0.074352 -0.030287
C56   C     C_R   0.496102 0.479122 0.926710 -0.030368
C57   C     C_R   0.015617 0.021097 0.484862 -0.016383
C58   C     C_R   0.985912 0.033982 0.515562 -0.016514
C59   C     C_R   0.486063 0.465216 0.015880 -0.016387
C60   C     C_R   0.515760 0.478038 0.985175 -0.016435
C61   C     C_R   0.064977 0.015457 0.512649 -0.029303
C62   C     C_R   0.936540 0.037880 0.487778 -0.029249
C63   C     C_R   0.436764 0.454557 0.988040 -0.029420
C64   C     C_R   0.565029 0.490642 0.013005 -0.028967
C65   C     C_R   0.946547 0.018441 0.399165 -0.142204
C66   C     C_R   0.054979 0.037562 0.601246 -0.142072
C67   C     C_R   0.554978 0.475318 0.101671 -0.142224
C68   C     C_R   0.446856 0.466883 0.899382 -0.141790
C69   C     C_R   0.917247 0.030604 0.429445 -0.141520
C70   C     C_R   0.084278 0.024358 0.570968 -0.141674
C71   C     C_R   0.584263 0.488587 0.071383 -0.141596
C72   C     C_R   0.417554 0.454920 0.929665 -0.141354
O21   O     O_2   0.141138 0.996348 0.507502 -0.524004
O22   O     O_2   0.860335 0.051889 0.492934 -0.523683
O23   O     O_2   0.360607 0.434889 0.993159 -0.523426
O24   O     O_2   0.641078 0.516779 0.007868 -0.524353
O25   O     O_2   0.007493 0.988879 0.340880 -0.524398
O26   O     O_2   0.993866 0.057685 0.659638 -0.523159
O27   O     O_2   0.493833 0.454465 0.160012 -0.523009
O28   O     O_2   0.507784 0.496362 0.841050 -0.522784
H21   H     H_    0.930373 0.012595 0.354300 0.169942
H22   H     H_    0.071149 0.043493 0.646110 0.170007
H23   H     H_    0.571087 0.474755 0.146575 0.169956
H24   H     H_    0.430746 0.467282 0.854479 0.170128
H25   H     H_    0.879414 0.033644 0.406962 0.170621
H26   H     H_    0.122106 0.020650 0.593456 0.170518
H27   H     H_    0.622023 0.497721 0.093902 0.170481
H28   H     H_    0.379781 0.446570 0.907145 0.170612
C73   C     C_R   0.893484 0.212877 0.636867 -0.100272
C74   C     C_R   0.108019 0.119591 0.359267 -0.102065
C75   C     C_R   0.610344 0.376327 0.862207 -0.103790
C76   C     C_R   0.393824 0.287218 0.137370 -0.100648
H29   H     H_    0.913990 0.334565 0.636732 0.134455
H30   H     H_    0.088099 0.245390 0.356299 0.131660
H31   H     H_    0.592166 0.247380 0.861253 0.134236
H32   H     H_    0.414584 0.165947 0.137564 0.133919
C77   C     C_R   0.863396 0.214807 0.666348 -0.260504
C78   C     C_R   0.137578 0.103612 0.329375 -0.273313
C79   C     C_R   0.639951 0.392543 0.832432 -0.257761
C80   C     C_R   0.363683 0.285373 0.166779 -0.259761
H33   H     H_    0.861833 0.339003 0.688772 0.163078
H34   H     H_    0.139423 0.218013 0.303455 0.148196
H35   H     H_    0.643544 0.274676 0.808684 0.165698
H36   H     H_    0.362305 0.161620 0.189469 0.162818
C81   C     C_R   0.835939 0.059180 0.667200 -0.068815
C82   C     C_R   0.164159 0.942200 0.332453 -0.044619
C83   C     C_R   0.664360 0.558031 0.832910 -0.068381
C84   C     C_R   0.335954 0.440595 0.167244 -0.068428
C85   C     C_R   0.839417 0.899378 0.637088 0.175207
C86   C     C_R   0.160413 0.795710 0.366731 0.161006
C87   C     C_R   0.658442 0.708895 0.864693 0.174393
C88   C     C_R   0.339180 0.599824 0.136794 0.175327
C89   C     C_R   0.869986 0.899798 0.607768 -0.134164
C90   C     C_R   0.130561 0.813453 0.396616 -0.148487
C91   C     C_R   0.628353 0.690315 0.894385 -0.129876
C92   C     C_R   0.369767 0.599257 0.107497 -0.134806
H37   H     H_    0.872678 0.778756 0.584654 0.121409
H38   H     H_    0.127903 0.701229 0.422836 0.129950
H39   H     H_    0.623728 0.804503 0.918785 0.122203
H40   H     H_    0.372256 0.719782 0.084085 0.120838
C93   C     C_R   0.896889 0.055619 0.607307 0.352603
C94   C     C_R   0.104347 0.974916 0.393165 0.359237
C95   C     C_R   0.604391 0.524747 0.893428 0.351672
C96   C     C_R   0.396964 0.443899 0.107470 0.353821
N5    N     N_3   0.811252 0.738722 0.635033 -0.640967
H41   H     H_    0.776440 0.771416 0.610070 0.216984
H42   H     H_    0.821214 0.629047 0.615615 0.220260
N6    N     N_3   0.187744 0.630864 0.372711 -0.651904
H43   H     H_    0.164501 0.519012 0.361104 0.224294
H44   H     H_    0.208946 0.615257 0.414703 0.230894
N7    N     N_3   0.683719 0.878545 0.868009 -0.647079
H45   H     H_    0.719274 0.852846 0.891693 0.222352
H46   H     H_    0.672566 0.979104 0.889287 0.222012
N8    N     N_3   0.310737 0.759970 0.134375 -0.641051
H47   H     H_    0.275985 0.726174 0.109490 0.216786
H48   H     H_    0.320515 0.869409 0.114718 0.220837

loop_
_geom_bond_atom_site_label_1
_geom_bond_atom_site_label_2
_ccdc_geom_bond_type
C66   H22   S    
O17   V3    S    
C51   C55   A    
C25   C29   A    
O1    C5    A    
N1    C49   A    
O19   V1    S    
C53   C65   A    
C16   H16   S    
O3    C7    A    
C68   H24   S    
C10   C18   A    
C48   N4    A    
C4    C81   S    
O4    V2    S    
C11   C23   A    
C76   C80   A    
C25   C33   A    
C33   C38   A    
C5    C12   S    
C67   H23   S    
N5    H41   S    
O7    C3    A    
C6    C11   S    
C38   H18   S    
C75   C79   A    
C35   C40   A    
C26   C30   A    
C65   H21   S    
C36   C39   A    
C88   C92   A    
C73   C77   A    
C23   H8    S    
C82   C86   A    
C48   O24   S    
N2    C93   S    
O16   V4    S    
O4    C8    A    
N3    C51   A    
C43   H3    S    
C74   C94   A    
N2    C50   A    
C45   C61   A    
O1    V3    S    
O13   V1    S    
O2    V4    S    
C47   C63   A    
O3    V1    S    
N8    H47   S    
C57   C61   A    
C28   C36   A    
C3    C82   S    
C69   H25   S    
C78   H34   S    
C75   H31   S    
C1    O15   A    
C52   C56   A    
C15   C31   A    
C1    C84   S    
C2    O16   A    
C16   C32   A    
N4    C95   S    
C90   C94   A    
O2    C6    A    
C59   C60   A    
C75   C95   A    
C10   C22   A    
C87   C91   A    
C11   C19   A    
N3    C96   S    
C16   C20   A    
C73   C93   A    
C70   H26   S    
C44   H4    S    
C13   C29   A    
C34   C37   A    
O11   C7    A    
O15   V3    S    
C35   C36   A    
O12   C8    A    
C47   O23   S    
C14   H14   S    
C13   C17   A    
C46   O22   S    
C24   H7    S    
C13   H13   S    
O10   V2    S    
C62   C69   A    
C88   N8    S    
C61   C70   A    
C46   N2    A    
O5    V1    S    
N5    H42   S    
C53   C57   A    
C39   C43   A    
N1    C94   S    
O7    V3    S    
C38   C42   A    
C83   C87   A    
C26   C34   A    
C80   H36   S    
C92   H40   S    
C49   O25   S    
C74   H30   S    
C17   H10   S    
C90   H38   S    
O18   V4    S    
C48   C64   A    
C15   C19   A    
C91   C95   A    
C19   H12   S    
C50   C54   A    
C47   N3    A    
C45   N1    A    
C71   H27   S    
C68   C72   A    
C21   H6    S    
C72   H28   S    
O8    V4    S    
C55   C67   A    
O5    C1    A    
C9    C21   A    
C54   C66   A    
C37   C41   A    
C31   C43   A    
C78   C82   A    
C21   C25   A    
C91   H39   S    
O8    C4    A    
C7    C10   S    
O9    C5    A    
C66   C70   A    
C37   H17   S    
C51   O27   S    
C86   N6    S    
N6    H43   S    
O6    V2    S    
C67   C71   A    
C89   H37   S    
O14   V2    S    
C65   C69   A    
C12   C20   A    
C27   C35   A    
C46   C62   A    
C40   C44   A    
C85   C89   A    
C56   C60   A    
C29   C41   A    
C58   C62   A    
C50   O26   S    
O9    V1    S    
C77   C81   A    
C73   H29   S    
C3    O13   A    
C39   H19   S    
C52   O28   S    
C59   C63   A    
C20   H11   S    
C76   H32   S    
C87   N7    S    
C2    C83   S    
O6    C2    A    
C64   C71   A    
C23   C27   A    
O11   V3    S    
C30   C42   A    
C84   C88   A    
C79   C83   A    
O12   V4    S    
C57   C58   A    
C22   C26   A    
C8    C9    S    
C14   C30   A    
C9    C17   A    
C56   C68   A    
O10   C6    A    
O20   V2    S    
C89   C93   A    
C32   C44   A    
C33   C34   A    
C42   H2    S    
C45   O21   S    
C74   C78   A    
C41   H1    S    
C79   H35   S    
N4    C52   A    
N6    H44   S    
C12   C24   A    
C27   C31   A    
C81   C85   A    
N8    H48   S    
C92   C96   A    
C86   C90   A    
C15   H15   S    
N7    H45   S    
C14   C18   A    
C60   C64   A    
C24   C28   A    
C18   H9    S    
C76   C96   A    
C54   C58   A    
C4    O14   A    
C77   H33   S    
C63   C72   A    
C55   C59   A    
C80   C84   A    
C40   H20   S    
C22   H5    S    
C49   C53   A    
C28   C32   A    
C85   N5    S    
N7    H46   S    
