data_mof_unit_36482.cif
_audit_creation_date              2012-12-10T16:57:06-0500
_audit_creation_method            fapswitch 2.2
_symmetry_space_group_name_H-M    P1
_symmetry_Int_Tables_number       1
_space_group_crystal_system       triclinic
_cell_length_a                    7.768285
_cell_length_b                    8.580202
_cell_length_c                    16.625807
_cell_angle_alpha                 91.719672
_cell_angle_beta                  81.034026
_cell_angle_gamma                 93.699215
_cell_volume                      1092.12235323

loop_
_atom_site_label
_atom_site_type_symbol
_atom_type_description
_atom_site_fract_x
_atom_site_fract_y
_atom_site_fract_z
_atom_type_partial_charge
C1    C     C_R   0.546167 0.794785 0.497946 0.967771
C2    C     C_R   0.453828 0.205221 0.502120 0.974984
C3    C     C_2   0.570495 0.958221 0.496825 -0.375554
C4    C     C_2   0.429492 0.041774 0.503345 -0.379835
C5    C     C_R   0.480114 0.512688 0.654171 0.887987
C6    C     C_R   0.522490 0.499753 0.345366 0.888159
C7    C     C_R   0.481255 0.572445 0.737054 -0.126075
C8    C     C_R   0.539423 0.521874 0.257947 -0.135065
C9    C     C_R   0.639324 0.632436 0.759565 -0.202551
C10   C     C_R   0.395239 0.561536 0.223678 -0.203078
C11   C     C_R   0.641543 0.703678 0.835069 -0.203634
C12   C     C_R   0.416155 0.600689 0.142451 -0.172409
C13   C     C_R   0.486520 0.712359 0.890318 0.056905
C14   C     C_R   0.581835 0.602099 0.094445 0.054151
C15   C     C_R   0.324496 0.663496 0.865891 0.488743
C16   C     C_R   0.727815 0.559768 0.128406 0.459604
C17   C     C_R   0.324107 0.592472 0.789434 -0.197167
C18   C     C_R   0.704245 0.518538 0.209689 -0.188805
C19   C     C_2   0.501534 0.729237 0.976641 -0.214571
C20   C     C_2   0.595839 0.627002 0.007263 -0.208734
H1    H     H_    0.761928 0.624521 0.718907 0.166987
H2    H     H_    0.266608 0.564185 0.259724 0.175242
H3    H     H_    0.817193 0.488567 0.235563 0.178340
H4    H     H_    0.200437 0.552371 0.771234 0.173469
H5    H     H_    0.674602 0.548025 0.966804 0.184175
H6    H     H_    0.419807 0.806854 0.016261 0.152417
H7    H     H_    0.301512 0.626441 0.116789 0.186611
H8    H     H_    0.766174 0.741721 0.852969 0.182486
H9    H     H_    0.703641 0.009265 0.490625 0.180427
H10   H     H_    0.296344 0.990722 0.509557 0.180486
H11   H     H_    0.022712 0.380627 0.439427 0.190559
H12   H     H_    0.977292 0.619396 0.560565 0.185643
N1    N     N_2   0.953500 0.457650 0.478520 -0.173779
N2    N     N_2   0.046500 0.542350 0.521480 -0.173687
O1    O     O_R   0.388470 0.738640 0.505270 -0.611598
O2    O     O_R   0.611530 0.261360 0.494730 -0.608557
O3    O     O_R   0.679650 0.711510 0.491500 -0.630149
O4    O     O_R   0.320350 0.288490 0.508500 -0.625771
O5    O     O_R   0.337210 0.515200 0.623500 -0.619069
O6    O     O_R   0.662790 0.484800 0.376500 -0.621335
O7    O     O_R   0.628380 0.488060 0.609730 -0.622834
O8    O     O_R   0.371620 0.511940 0.390270 -0.624330
Zn1   Zn    Zn3+2 0.305580 0.518120 0.509190 0.942717
Zn2   Zn    Zn3+2 0.694420 0.481880 0.490810 0.942223
O9    O     O_3   0.165892 0.673950 0.915693 -0.790865
H13   H     H_    0.180220 0.746251 0.961912 0.327918
O10   O     O_3   0.895001 0.559096 0.085515 -0.776084
H14   H     H_    0.901613 0.618503 0.035032 0.357535

loop_
_geom_bond_atom_site_label_1
_geom_bond_atom_site_label_2
_ccdc_geom_bond_type
C2    C4    S    
H11   N1    S    
C15   C17   A    
C14   C20   S    
O1    Zn1   S    
C2    O4    A    
O6    Zn2   S    
C19   C20   D    
C1    O3    A    
O3    Zn2   S    
C5    O5    A    
N1    N2    D    
C3    C4    D    
C4    H10   S    
O4    Zn1   S    
O9    H13   S    
C10   H2    S    
C9    C11   A    
C9    H1    S    
C10   C12   A    
C11   H8    S    
C6    C8    S    
C16   O10   S    
C16   C18   A    
C12   C14   A    
C6    O6    A    
C13   C15   A    
C6    O8    A    
O7    Zn2   S    
C14   C16   A    
O2    Zn2   S    
C17   H4    S    
O8    Zn1   S    
C13   C19   S    
C12   H7    S    
C18   H3    S    
C7    C9    A    
C11   C13   A    
C1    O1    A    
C3    H9    S    
C20   H5    S    
C2    O2    A    
C5    C7    S    
C19   H6    S    
C5    O7    A    
O5    Zn1   S    
C1    C3    S    
N1    Zn2   S    
C8    C10   A    
C8    C18   A    
N2    Zn1   S    
O10   H14   S    
C7    C17   A    
C15   O9    S    
H12   N2    S    
