data_mof_unit_33925.cif
_audit_creation_date              2013-03-05T15:43:19-0500
_audit_creation_method            fapswitch 2.2
_symmetry_space_group_name_H-M    P1
_symmetry_Int_Tables_number       1
_space_group_crystal_system       triclinic
_cell_length_a                    8.336378
_cell_length_b                    15.234828
_cell_length_c                    27.002231
_cell_angle_alpha                 97.712657
_cell_angle_beta                  92.771872
_cell_angle_gamma                 80.533167
_cell_volume                      3350.85401127

loop_
_atom_site_label
_atom_site_type_symbol
_atom_site_description
_atom_site_fract_x
_atom_site_fract_y
_atom_site_fract_z
_atom_type_partial_charge
P1    P     P_3+3 0.070480 0.574800 0.610950 0.568191
O1    O     O_2   0.905540 0.548000 0.618290 -0.342822
O2    O     O_3   0.137550 0.547930 0.558110 -0.362243
O3    O     O_3   0.688580 0.383890 0.587540 -0.350287
O4    O     O_2   0.840009 0.432060 0.671262 -0.294094
O5    O     O_3   0.028966 0.691997 0.622881 -0.518116
O6    O     O_3   0.672639 0.308223 0.676903 -0.527690
H1    H     H_    0.545360 0.245216 0.618836 0.091946
C1    C     C_3   0.515771 0.195710 0.688486 -0.765284
H2    H     H_    0.403708 0.167801 0.676720 0.261044
H3    H     H_    0.619433 0.140424 0.681979 0.251828
P2    P     P_3+3 0.668430 0.292880 0.460530 0.556652
P3    P     P_3+3 0.149599 0.219087 0.556597 0.558492
O7    O     O_2   0.848360 0.279400 0.474970 -0.350792
O8    O     O_3   0.104690 0.337720 0.562900 -0.311836
O9    O     O_2   0.004411 0.177040 0.531460 -0.334186
O10   O     O_3   0.673369 0.264442 0.395155 -0.556171
O11   O     O_3   0.173596 0.184653 0.616107 -0.608072
C2    C     C_3   0.034296 0.215252 0.644654 0.757853
H4    H     H_    0.934756 0.256560 0.625271 0.114539
C3    C     C_3   0.971790 0.134313 0.659987 -0.003936
H5    H     H_    0.887343 0.156161 0.691329 0.142328
C4    C     C_3   0.064108 0.259260 0.376468 0.908013
H6    H     H_    0.957187 0.294976 0.396695 0.040833
C5    C     C_3   0.023374 0.233941 0.321222 -0.977480
H7    H     H_    0.133981 0.198383 0.301469 0.285051
H8    H     H_    0.929439 0.189380 0.317197 0.263467
H9    H     H_    0.975196 0.294668 0.303401 0.215577
Ba1   Ba    Ba6+2 0.860900 0.457020 0.523210 1.704609
C6    C     C_3   0.969604 0.729365 0.579871 0.210175
H10   H     H_    0.853364 0.706534 0.567871 0.045293
H11   H     H_    0.056841 0.710264 0.549067 0.135426
C7    C     C_3   0.941592 0.831233 0.592720 0.114438
H12   H     H_    0.857633 0.851500 0.624420 0.162229
H13   H     H_    0.886599 0.863781 0.560435 0.088362
C8    C     C_3   0.635003 0.339474 0.369221 0.441256
H14   H     H_    0.747659 0.362698 0.361160 -0.044699
H15   H     H_    0.557515 0.396777 0.389632 0.149472
C9    C     C_3   0.551801 0.311854 0.319447 -0.872884
H16   H     H_    0.636624 0.261245 0.295858 0.245995
H17   H     H_    0.514020 0.371078 0.299276 0.209024
H18   H     H_    0.442557 0.282352 0.325650 0.286431
P4    P     P_3+3 0.119230 0.425130 0.389040 0.509265
O12   O     O_2   0.284150 0.451970 0.381680 -0.349069
O13   O     O_3   0.052160 0.451990 0.441880 -0.338834
O14   O     O_3   0.501140 0.616030 0.412450 -0.396929
O15   O     O_3   0.191647 0.309233 0.381961 -0.554183
P5    P     P_3+3 0.041453 0.778997 0.435677 0.486992
O16   O     O_3   0.615020 0.608480 0.525380 -0.400645
O17   O     O_3   0.085020 0.662210 0.437090 -0.417424
O18   O     O_2   0.171110 0.822123 0.469081 -0.337628
O19   O     O_3   0.066162 0.808317 0.375950 -0.537205
Ba2   Ba    Ba6+2 0.328940 0.542910 0.476780 1.634521
P6    P     P_3+3 0.672064 0.409198 0.652674 0.537424
C10   C     C_3   0.533066 0.272110 0.659047 0.401342
H19   H     H_    0.420839 0.322829 0.664191 0.119867
H20   H     H_    0.510526 0.220313 0.729053 0.291669
O20   O     O_3   0.574690 0.391440 0.474610 -0.359303
C11   C     C_3   0.485720 0.694919 0.629573 0.415647
H21   H     H_    0.361593 0.682960 0.616798 0.110812
H22   H     H_    0.574012 0.631498 0.624671 0.076076
C12   C     C_3   0.479913 0.731319 0.684873 -0.817153
H23   H     H_    0.398790 0.797212 0.690342 0.289567
H24   H     H_    0.431881 0.684470 0.706252 0.207939
H25   H     H_    0.603938 0.739852 0.699529 0.273635
P7    P     P_3+3 0.526397 0.721947 0.539233 0.469728
O21   O     O_2   0.341330 0.720570 0.525000 -0.339823
O22   O     O_3   0.536366 0.758214 0.603437 -0.550367
H26   H     H_    0.074767 0.085865 0.672887 0.184416
C13   C     C_3   0.051926 0.735459 0.338928 0.841084
H27   H     H_    0.126259 0.672845 0.348605 0.095003
C14   C     C_3   0.107644 0.754864 0.289177 -0.791069
H28   H     H_    0.232215 0.770199 0.292661 0.222189
H29   H     H_    0.107650 0.695132 0.260728 0.243562
H30   H     H_    0.026403 0.813106 0.276069 0.269039
P8    P     P_3+3 0.517181 0.596503 0.347112 0.460462
C15   C     C_3   0.478027 0.769595 0.365312 0.311387
H31   H     H_    0.577447 0.761279 0.393770 0.103671
O23   O     O_2   0.359473 0.562743 0.325935 -0.431161
O24   O     O_3   0.503629 0.700652 0.324829 -0.513967
H32   H     H_    0.361964 0.768031 0.383021 0.149304
H33   H     H_    0.415835 0.863063 0.309778 0.159405
C16   C     C_3   0.474864 0.860904 0.347342 0.003508
H34   H     H_    0.600654 0.874818 0.345034 0.172996
C17   C     C_R   0.997278 0.418884 0.173332 0.527922
O25   O     O_2   0.011544 0.347987 0.190842 -0.584043
N1    N     N_R   0.938567 0.498411 0.202666 -0.172760
C18   C     C_R   0.918492 0.578605 0.182462 0.524589
C19   C     C_2   0.739811 0.521135 0.269273 -0.061998
C20   C     C_3   0.697833 0.514715 0.322827 0.138294
C21   C     C_1   0.987066 0.476293 0.340829 0.168925
C22   C     C_2   0.025726 0.471108 0.293101 -0.217243
C23   C     C_2   0.896421 0.497513 0.254499 0.149743
C24   C     C_R   0.026053 0.500442 0.102823 -0.066136
C25   C     C_R   0.038981 0.418787 0.122969 -0.063302
C26   C     C_R   0.087461 0.338558 0.091698 -0.081110
C27   C     C_R   0.964451 0.580785 0.132814 -0.067635
C28   C     C_2   0.845046 0.518799 0.357211 -0.337509
H35   H     H_    0.150930 0.449729 0.282003 0.167555
H36   H     H_    0.088967 0.274320 0.104888 0.179773
C29   C     C_2   0.362686 0.509123 0.644553 -0.448469
C30   C     C_R   0.194572 0.421764 0.973791 -0.103174
C31   C     C_R   0.085985 0.583710 0.980331 0.070611
C32   C     C_R   0.158533 0.502823 0.951642 0.060954
C33   C     C_R   0.291597 0.347004 0.945987 0.425818
C34   C     C_R   0.322225 0.347968 0.895591 -0.123020
C35   C     C_R   0.273833 0.424837 0.871992 -0.156605
C36   C     C_R   0.198055 0.503520 0.900548 -0.057973
C37   C     C_R   0.164036 0.583254 0.878195 -0.061370
C38   C     C_R   0.205138 0.583068 0.827818 0.605179
N2    N     N_R   0.270916 0.504097 0.799116 -0.159185
C39   C     C_R   0.307016 0.425635 0.820980 0.654481
C40   C     C_2   0.463428 0.487537 0.732012 -0.205779
C41   C     C_3   0.507819 0.499776 0.679826 0.141551
C42   C     C_1   0.212285 0.532662 0.660867 0.142450
C43   C     C_2   0.173742 0.530414 0.708496 0.300133
C44   C     C_2   0.306856 0.504296 0.746517 0.019874
O26   O     O_2   0.367787 0.356294 0.796025 -0.560214
C45   C     C_R   0.136483 0.420093 0.022822 0.061362
C46   C     C_R   0.072195 0.501554 0.052381 0.087887
C47   C     C_R   0.050507 0.583809 0.031717 0.046109
C48   C     C_R   0.129903 0.339291 0.042392 -0.104292
H37   H     H_    0.560832 0.472341 0.759229 0.194084
H38   H     H_    0.392872 0.289024 0.875450 0.208522
H39   H     H_    0.149158 0.275292 0.019338 0.190801
O27   O     O_2   0.860744 0.648273 0.207703 -0.547885
C49   C     C_R   0.949730 0.661780 0.112533 -0.072128
H40   H     H_    0.643107 0.538674 0.242240 0.137564
H41   H     H_    0.904976 0.724929 0.134786 0.171963
C50   C     C_R   0.051202 0.662099 0.956338 -0.200294
C51   C     C_R   0.090079 0.661817 0.906688 -0.054692
O28   O     O_2   0.182848 0.653434 0.809573 -0.554532
C52   C     C_R   0.991808 0.663440 0.063330 -0.196939
H42   H     H_    0.991082 0.725215 0.974682 0.135407
H43   H     H_    0.060642 0.724041 0.890503 0.177335
H44   H     H_    0.978694 0.728990 0.051445 0.134563
H45   H     H_    0.836279 0.561294 0.392983 0.165224
H46   H     H_    0.391610 0.521180 0.607615 0.193787
C53   C     C_R   0.751399 0.765564 0.477834 -0.545906
C54   C     C_R   0.838560 0.824716 0.460137 0.284279
C55   C     C_R   0.776295 0.916899 0.464651 -0.210328
C56   C     C_R   0.628643 0.951826 0.489765 0.124876
C57   C     C_R   0.550122 0.889709 0.510435 -0.198943
C58   C     C_R   0.610157 0.797827 0.503966 0.257987
C59   C     C_R   0.403328 0.083142 0.516839 -0.190897
C60   C     C_R   0.342289 0.174843 0.524797 0.178031
C61   C     C_R   0.581793 0.208543 0.489553 0.190443
C62   C     C_R   0.646171 0.116639 0.481836 -0.201546
C63   C     C_R   0.559735 0.051365 0.496392 0.129310
C64   C     C_R   0.434450 0.236007 0.512556 -0.006111
H47   H     H_    0.325257 0.038844 0.526644 0.182568
H48   H     H_    0.846988 0.959420 0.449308 0.171380
H49   H     H_    0.761337 0.098211 0.463722 0.178717
H50   H     H_    0.446061 0.910740 0.533730 0.173492
H51   H     H_    0.799842 0.694687 0.474549 0.171174
Cl1   Cl    Cl    0.129298 0.870723 0.609303 -0.539993
Cl2   Cl    Cl    0.847249 0.719982 0.329872 -0.691248
Cl3   Cl    Cl    0.366014 0.947536 0.389556 -0.551415
Cl4   Cl    Cl    0.409891 0.257771 0.973304 -0.637249
Cl5   Cl    Cl    0.093109 0.282314 0.699747 -0.615953
N3    N     N_R   0.010860 0.562419 0.725507 0.266202
O29   O     O_R   0.949542 0.521262 0.757488 -0.365834
O30   O     O_R   0.935446 0.640573 0.716318 -0.351594
N4    N     N_R   0.368821 0.327740 0.518698 0.253719
O31   O     O_R   0.392405 0.377731 0.560146 -0.427157
O32   O     O_R   0.267435 0.358326 0.485156 -0.286987
Cl6   Cl    Cl    0.867176 0.079073 0.608931 -0.623889
Cl7   Cl    Cl    0.127799 0.159438 0.404375 -0.534983

loop_
_geom_bond_atom_site_label_1
_geom_bond_atom_site_label_2
_geom_bond_distance
_ccdc_geom_bond_type
P7    O22   1.749790 S    
C10   H19   1.112471 S    
Ba2   O20   2.818820 S    
P2    Ba1   3.407845 S    
C17   C25   1.419577 A    
C35   C39   1.420028 A    
C25   C26   1.401363 A    
P8    O23   1.546202 D    
O6    C10   1.405017 S    
N1    C18   1.386037 Am   
O14   P8    1.757243 S    
C59   C60   1.397500 A    
C7    Cl1   1.783432 S    
C9    H17   1.109859 S    
Ba1   O16   2.819358 S    
C15   H31   1.106094 S    
C43   C44   1.515893 S    
C5    H9    1.107863 S    
P3    O11   1.748699 S    
O1    Ba1   2.788045 S    
C2    Cl5   1.784251 S    
P2    C61   1.848497 S    
N4    O31   1.292477 A    
C2    C3    1.527314 S    
N2    C39   1.386321 Am   
O11   C2    1.404310 S    
C51   H43   1.083590 S    
C6    H10   1.102375 S    
C15   O24   1.408659 S    
P7    C58   1.831976 S    
C34   C35   1.400095 A    
C15   C16   1.529420 S    
C42   C43   1.346798 D    
C26   H36   1.083444 S    
C36   C37   1.409685 A    
C30   C33   1.428727 A    
P1    O1    1.526227 D    
O2    Ba1   2.935188 S    
C38   N2    1.386602 Am   
C18   O27   1.221602 D    
C60   C64   1.382221 A    
C24   C46   1.436127 A    
O12   Ba2   2.788473 S    
P4    Ba2   3.373314 S    
P5    O18   1.547188 D    
C61   C62   1.406128 A    
P2    O10   1.761091 S    
C37   C51   1.400207 A    
C52   H44   1.076544 S    
C12   H24   1.109023 S    
C4    H6    1.093905 S    
C38   O28   1.222231 D    
C13   H27   1.104089 S    
C1    C10   1.523835 S    
O10   C8    1.404379 S    
C15   H32   1.104884 S    
C6    H11   1.108754 S    
C1    H2    1.104607 S    
O3    Ba1   2.758535 S    
C12   H25   1.110561 S    
C27   C49   1.400957 A    
P2    O20   1.580940 S    
P5    O17   1.761624 S    
P7    O21   1.574632 D    
O13   Ba2   2.936191 S    
C11   H21   1.110659 S    
C3    H5    1.107954 S    
C29   C41   1.503181 S    
C50   H42   1.076466 S    
P3    C60   1.842247 S    
C14   H30   1.111177 S    
H1    C10   1.111262 S    
N3    O30   1.300954 A    
O8    Ba1   2.771168 S    
C9    H18   1.108628 S    
C17   N1    1.385539 Am   
C11   H22   1.110853 S    
O17   Ba2   2.771826 S    
C4    O15   1.397408 S    
O16   P7    1.762678 S    
P5    C54   1.838263 S    
C28   H45   1.086684 S    
P1    O5    1.750602 S    
C49   C52   1.394920 A    
C43   N3    1.440454 S    
C61   C64   1.380064 A    
C62   C63   1.425005 A    
C14   H29   1.109320 S    
C37   C38   1.418288 A    
C21   C22   1.332489 D    
C57   H50   1.076164 S    
C24   C27   1.408945 A    
C5    H7    1.110781 S    
C17   O25   1.222182 D    
P4    C21   1.835013 S    
Ba1   O13   2.761186 S    
P1    O2    1.536565 S    
P4    O12   1.526446 D    
C49   H41   1.083623 S    
C12   H23   1.110603 S    
C11   O22   1.396998 S    
P4    O13   1.536552 S    
C53   C58   1.386635 A    
O4    P6    1.542367 D    
C16   H34   1.109697 S    
C40   H37   1.085893 S    
C53   H51   1.082233 S    
C35   C36   1.407298 A    
P1    Ba1   3.372695 S    
C7    H12   1.110775 S    
C54   C55   1.406057 A    
C45   C46   1.421680 A    
C30   C32   1.425397 A    
C1    H3    1.105708 S    
C59   H47   1.076210 S    
C40   C44   1.354706 D    
O5    C6    1.395337 S    
P2    O7    1.519110 D    
P3    O8    1.771062 S    
C29   C42   1.325806 D    
C62   H49   1.076878 S    
O7    Ba1   2.857259 S    
C34   H38   1.083955 S    
C31   C47   1.432371 A    
C32   C36   1.435662 A    
C46   C47   1.420479 A    
C56   C63   1.520595 S    
C40   C41   1.516899 S    
C45   C48   1.413248 A    
C8    H14   1.097399 S    
C11   C12   1.521671 S    
C6    C7    1.525620 S    
O3    P6    1.756373 S    
C8    C9    1.522670 S    
P8    O24   1.755880 S    
C14   H28   1.098320 S    
P6    C41   1.876298 S    
C53   C54   1.390310 A    
C5    H8    1.110295 S    
C64   N4    1.405338 S    
C33   C34   1.399071 A    
C3    Cl6   1.784143 S    
C26   C48   1.395943 A    
N2    C44   1.466156 S    
C13   Cl2   1.761603 S    
C2    H4    1.110489 S    
N4    O32   1.288965 A    
C50   C51   1.393710 A    
C18   C27   1.418065 A    
N3    O29   1.301391 A    
C29   H46   1.083374 S    
C39   O26   1.221701 D    
O2    Ba2   2.761875 S    
C33   Cl4   1.767041 S    
C16   Cl3   1.779605 S    
Ba1   Ba2   4.593545 S    
C48   H39   1.076674 S    
O16   Ba2   2.921777 S    
N1    C23   1.461788 S    
O14   Ba2   2.757829 S    
C8    H15   1.096789 S    
C22   C23   1.507134 S    
C7    H13   1.103894 S    
C1    H20   1.109650 S    
C4    C5    1.526155 S    
C21   C28   1.318440 D    
C19   C23   1.360310 D    
C24   C25   1.409589 A    
Ba2   O21   2.857416 S    
C31   C50   1.416203 A    
O19   C13   1.406942 S    
C4    Cl7   1.779264 S    
C9    H16   1.110219 S    
P5    O19   1.760331 S    
Ba1   O20   2.922762 S    
C22   H35   1.085128 S    
H33   C16   1.107886 S    
P3    O9    1.547538 D    
C3    H26   1.111179 S    
C31   C32   1.424208 A    
C56   C57   1.420001 A    
C13   C14   1.523132 S    
P1    C42   1.858720 S    
O6    P6    1.749820 S    
C47   C52   1.416717 A    
C19   C20   1.523609 S    
C55   C56   1.423557 A    
P4    O15   1.757416 S    
C20   C28   1.507097 S    
C59   C63   1.424608 A    
C30   C45   1.436354 A    
C57   C58   1.397438 A    
C55   H48   1.076935 S    
P8    C20   1.873362 S    
C19   H40   1.085680 S    
