data_mof_unit_67143.cif
_audit_creation_date              2013-03-05T15:58:56-0500
_audit_creation_method            fapswitch 2.2
_symmetry_space_group_name_H-M    P1
_symmetry_Int_Tables_number       1
_space_group_crystal_system       triclinic
_cell_length_a                    8.416923
_cell_length_b                    13.007046
_cell_length_c                    15.117711
_cell_angle_alpha                 96.838154
_cell_angle_beta                  97.503602
_cell_angle_gamma                 99.366921
_cell_volume                      1602.28094584

loop_
_atom_site_label
_atom_site_type_symbol
_atom_site_description
_atom_site_fract_x
_atom_site_fract_y
_atom_site_fract_z
_atom_type_partial_charge
P1    P     P_3+3 0.998730 0.403530 0.291970 0.494478
O1    O     O_2   0.827880 0.435260 0.277750 -0.377886
O2    O     O_3   0.100280 0.438960 0.391170 -0.364105
O3    O     O_3   0.625580 0.634130 0.333250 -0.330781
O4    O     O_2   0.687206 0.548000 0.183516 -0.314050
O5    O     O_3   0.957797 0.266586 0.259139 -0.571352
O6    O     O_3   0.655363 0.743875 0.185762 -0.500852
H1    H     H_    0.536876 0.861277 0.232847 0.137484
C1    C     C_3   0.558092 0.863995 0.091403 -0.033326
H2    H     H_    0.675133 0.919511 0.104399 0.200019
H3    H     H_    0.555493 0.808535 0.029695 0.168507
P2    P     P_3+3 0.687380 0.751030 0.571310 0.537028
P3    P     P_3+3 0.114169 0.828592 0.392678 0.502774
O7    O     O_2   0.857130 0.766340 0.543890 -0.280050
O8    O     O_3   0.056550 0.691050 0.379010 -0.389646
O9    O     O_2   0.012247 0.878249 0.457789 -0.337042
O10   O     O_3   0.750994 0.796007 0.686504 -0.573760
O11   O     O_3   0.048521 0.873634 0.292688 -0.518328
C2    C     C_3   0.070569 0.801686 0.220917 0.339248
H4    H     H_    0.993336 0.723414 0.220123 0.158196
H5    H     H_    0.200613 0.794100 0.225208 0.011801
C3    C     C_3   0.017835 0.842081 0.134064 -0.077080
H6    H     H_    0.890352 0.851927 0.130625 0.186865
H7    H     H_    0.092419 0.919648 0.131172 0.197333
C4    C     C_3   0.247133 0.815249 0.765836 1.204536
C5    C     C_3   0.211426 0.786479 0.856306 -0.904054
H8    H     H_    0.318805 0.763583 0.893073 0.239544
H9    H     H_    0.189809 0.857104 0.898340 0.280522
H10   H     H_    0.098980 0.726951 0.848555 0.238804
Ba1   Ba    Ba6+2 0.843750 0.550210 0.455600 1.681335
C6    C     C_3   0.880575 0.210619 0.319830 0.722614
H11   H     H_    0.797159 0.254193 0.353234 0.044773
C7    C     C_3   0.006057 0.180940 0.387439 -0.771433
H12   H     H_    0.101070 0.152638 0.352369 0.300291
H13   H     H_    0.952945 0.113631 0.418787 0.211523
H14   H     H_    0.055592 0.249971 0.439543 0.254546
C8    C     C_3   0.658009 0.741501 0.740489 0.754528
H15   H     H_    0.528147 0.735037 0.716513 0.097354
C9    C     C_3   0.703129 0.795054 0.837689 -0.872341
H16   H     H_    0.831201 0.792110 0.864714 0.285714
H17   H     H_    0.620371 0.756716 0.880096 0.242794
H18   H     H_    0.692529 0.877941 0.842076 0.248072
P4    P     P_3+3 0.190990 0.596560 0.708040 0.528054
O12   O     O_2   0.361830 0.564780 0.722310 -0.378836
O13   O     O_3   0.089430 0.561130 0.608830 -0.273038
O14   O     O_3   0.564130 0.365960 0.666760 -0.270343
O15   O     O_3   0.247044 0.731018 0.696668 -0.599770
P5    P     P_3+3 0.086043 0.172602 0.624421 0.486004
O16   O     O_3   0.601940 0.368240 0.453770 -0.307138
O17   O     O_3   0.133170 0.309040 0.621000 -0.367819
O18   O     O_2   0.205788 0.121831 0.571420 -0.365646
O19   O     O_3   0.143711 0.151450 0.735806 -0.520784
Ba2   Ba    Ba6+2 0.346090 0.449880 0.544410 1.673995
P6    P     P_3+3 0.575580 0.622344 0.217120 0.535225
C10   C     C_3   0.531958 0.804501 0.171139 0.215615
H19   H     H_    0.407660 0.757441 0.154236 0.069942
O20   O     O_3   0.587780 0.631850 0.546230 -0.349681
C11   C     C_3   0.407336 0.227605 0.252185 1.208974
C12   C     C_3   0.507761 0.230665 0.174346 -0.931889
H20   H     H_    0.505946 0.149986 0.142178 0.334133
H21   H     H_    0.462092 0.277183 0.122596 0.208280
H22   H     H_    0.635468 0.267447 0.200477 0.264044
P7    P     P_3+3 0.509733 0.231496 0.432803 0.487774
O21   O     O_2   0.332590 0.233690 0.456160 -0.372357
O22   O     O_3   0.491024 0.178780 0.317712 -0.599123
C13   C     C_3   0.137829 0.243011 0.794266 0.318132
H23   H     H_    0.225597 0.310423 0.780358 0.123617
H24   H     H_    0.013707 0.261979 0.785436 0.004909
C14   C     C_3   0.187297 0.229197 0.892825 0.108923
H25   H     H_    0.228211 0.308853 0.932444 0.074959
H26   H     H_    0.295170 0.190031 0.901008 0.153549
P8    P     P_3+3 0.611732 0.370331 0.784430 0.531143
C15   C     C_3   0.648773 0.184309 0.812419 0.161699
H27   H     H_    0.774181 0.226142 0.839069 0.109333
O23   O     O_2   0.505038 0.444036 0.824620 -0.361908
O24   O     O_3   0.531311 0.249225 0.813856 -0.538473
H28   H     H_    0.645830 0.147431 0.741847 0.054538
H29   H     H_    0.672590 0.035486 0.850536 0.115199
C16   C     C_3   0.609470 0.099434 0.870996 -0.041266
H30   H     H_    0.476396 0.070254 0.862915 0.212105
C17   C     C_R   0.833283 0.424168 0.829756 0.100555
C18   C     C_R   0.897906 0.438376 0.922761 -0.029322
C19   C     C_R   0.034817 0.458242 0.109201 -0.066090
C20   C     C_R   0.874953 0.405633 0.076706 -0.009754
C21   C     C_R   0.806742 0.398760 0.986459 -0.014102
C22   C     C_R   0.098781 0.475326 0.203391 0.267318
H31   H     H_    0.797951 0.371017 0.120639 0.177218
H32   H     H_    0.680665 0.361290 0.967275 0.178887
C23   C     C_R   0.249761 0.543159 0.230046 -0.424895
C24   C     C_R   0.085283 0.526481 0.796188 0.119073
C25   C     C_R   0.153671 0.533548 0.888907 -0.118884
C26   C     C_R   0.061391 0.489096 0.952113 0.088955
C27   C     C_R   0.316377 0.576006 0.918580 -0.161940
C28   C     C_R   0.392032 0.575093 0.005313 0.300044
C29   C     C_R   0.298656 0.545543 0.073704 -0.115080
C30   C     C_R   0.131431 0.498524 0.045373 0.061306
C31   C     C_R   0.358505 0.565246 0.168201 0.174380
C32   C     C_R   0.936749 0.456774 0.768104 0.044037
H33   H     H_    0.392095 0.607715 0.873210 0.195298
H34   H     H_    0.293845 0.565419 0.301441 0.179979
C33   C     C_R   0.772944 0.175618 0.534769 -0.446105
C34   C     C_R   0.428562 0.810432 0.467474 -0.452489
C35   C     C_R   0.390450 0.986259 0.444679 -0.156434
C36   C     C_R   0.330069 0.878713 0.436088 0.194269
C37   C     C_R   0.586088 0.848591 0.513913 0.215963
C38   C     C_R   0.648717 0.959983 0.525531 -0.061722
C39   C     C_R   0.549104 0.029039 0.488749 -0.031771
C40   C     C_R   0.612078 0.138763 0.495801 0.258235
C41   C     C_R   0.869960 0.112598 0.576106 0.217627
C42   C     C_R   0.807051 0.004912 0.571600 -0.207333
H35   H     H_    0.310259 0.035751 0.417960 0.188831
H36   H     H_    0.885301 0.956468 0.599693 0.233330
H37   H     H_    0.829522 0.250924 0.521849 0.176549
H38   H     H_    0.377511 0.727481 0.461266 0.168041
Br1   Br    Br    0.763304 0.078136 0.253028 -0.545757
Br2   Br    Br    0.717664 0.610508 0.739343 -0.415352
Br3   Br    Br    0.389621 0.944839 0.067164 -0.591716
O25   O     O_3   0.247722 0.166438 0.226314 -0.636246
C43   C     C_3   0.168712 0.181144 0.141430 -0.073084
H39   H     H_    0.219981 0.140554 0.086053 0.176410
H40   H     H_    0.174064 0.265701 0.134767 0.126223
H41   H     H_    0.038753 0.143479 0.133432 0.235829
Br4   Br    Br    0.401124 0.371787 0.291271 -0.510337
Br5   Br    Br    0.031008 0.741074 0.033124 -0.580554
O26   O     O_3   0.054782 0.179159 0.930004 -0.619291
C44   C     C_3   0.031342 0.068918 0.906767 -0.075613
H42   H     H_    0.147171 0.037824 0.913870 0.162527
H43   H     H_    0.963076 0.045712 0.837530 0.180606
H44   H     H_    0.956115 0.031352 0.953171 0.180634
Br6   Br    Br    0.690239 0.145761 0.997128 -0.575284
Br7   Br    Br    0.623975 0.604408 0.009142 -0.499344
Br8   Br    Br    0.870120 0.408260 0.643694 -0.419358
O27   O     O_3   0.400281 0.883614 0.780143 -0.672442
C45   C     C_3   0.433306 0.929031 0.702029 -0.293019
H45   H     H_    0.566715 0.945990 0.702936 0.147440
H46   H     H_    0.389185 0.004947 0.702378 0.219033
H47   H     H_    0.378784 0.877700 0.637856 0.170503
Br9   Br    Br    0.082094 0.893070 0.726399 -0.562454

loop_
_geom_bond_atom_site_label_1
_geom_bond_atom_site_label_2
_geom_bond_distance
_ccdc_geom_bond_type
C13   H24   1.107008 S    
C10   H19   1.104085 S    
P7    O22   1.769590 S    
C44   H42   1.112179 S    
O16   P7    1.794020 S    
C33   H37   1.068817 S    
C15   H27   1.105597 S    
Ba1   O13   2.870073 S    
C2    H4    1.113034 S    
C20   H31   1.073556 S    
O6    C10   1.413416 S    
P8    O24   1.742371 S    
C45   H47   1.107832 S    
C17   C18   1.418662 A    
C9    H17   1.106618 S    
C8    Br2   1.851809 S    
C11   Br4   1.909195 S    
C27   C28   1.383107 A    
P3    O11   1.741166 S    
C2    H5    1.109132 S    
O11   C2    1.398138 S    
P2    C37   1.873836 S    
Ba2   O21   2.943327 S    
C21   H32   1.079514 S    
C13   C14   1.533542 S    
C38   C39   1.435724 A    
C33   C41   1.391340 A    
Ba1   O20   2.969151 S    
C11   O25   1.425337 S    
C7    H14   1.106548 S    
C18   C26   1.414541 A    
C34   C37   1.398889 A    
C35   H35   1.079487 S    
P1    O1    1.555010 D    
C14   H26   1.111508 S    
O25   C43   1.415104 S    
O12   Ba2   2.893018 S    
P4    Ba2   3.463202 S    
P5    O18   1.547743 D    
C29   C30   1.427778 A    
P5    C41   1.872366 S    
P2    O10   1.753152 S    
C39   C40   1.425460 A    
C6    C7    1.501313 S    
P6    C31   1.873868 S    
C1    C10   1.528486 S    
C4    O27   1.416818 S    
C1    H2    1.102089 S    
C4    O15   1.421424 S    
O14   P8    1.763684 S    
P8    C17   1.887916 S    
P2    Ba1   3.499638 S    
C33   C40   1.386827 A    
P5    O17   1.762811 S    
C13   H23   1.110135 S    
C14   O26   1.413546 S    
C12   H20   1.099670 S    
C28   C29   1.429306 A    
O7    Ba1   2.943009 S    
P8    O23   1.542320 D    
H1    C10   1.110519 S    
C6    Br1   1.932673 S    
C9    H18   1.091104 S    
C43   H40   1.110522 S    
C26   C30   1.438253 A    
C15   C16   1.517503 S    
Ba1   Ba2   4.599789 S    
C12   H21   1.111661 S    
O17   Ba2   2.808323 S    
C23   H34   1.082809 S    
P1    O5    1.755813 S    
P4    C24   1.932158 S    
O4    P6    1.542514 D    
C2    C3    1.511646 S    
C20   C21   1.395962 A    
C9    H16   1.110199 S    
Ba2   O20   2.853736 S    
H29   C16   1.093286 S    
C45   H46   1.109791 S    
C44   H44   1.108487 S    
C11   C12   1.536492 S    
C16   Br6   1.927617 S    
C16   H30   1.108328 S    
C23   C31   1.412903 A    
P1    O2    1.601376 S    
O2    Ba1   2.989223 S    
P4    O12   1.555250 D    
C8    H15   1.092029 S    
C34   H38   1.082595 S    
C25   C27   1.384224 A    
P4    O13   1.601532 S    
C11   O22   1.412094 S    
C19   C20   1.402750 A    
C7    H12   1.102831 S    
C5    H8    1.100147 S    
O10   C8    1.380297 S    
P3    C36   1.832755 S    
C34   C36   1.392284 A    
C1    H3    1.104712 S    
P2    O20   1.613569 S    
Ba1   O16   2.854290 S    
P2    O7    1.527942 D    
P3    O8    1.755518 S    
O27   C45   1.420983 S    
C15   O24   1.401388 S    
C3    H7    1.106994 S    
C25   C26   1.424726 A    
O19   C13   1.407789 S    
O8    Ba1   2.807732 S    
C38   C42   1.417660 A    
C43   H41   1.108176 S    
P1    C22   1.926348 S    
C27   H33   1.068970 S    
C12   H22   1.103199 S    
C44   H43   1.108183 S    
O3    P6    1.733416 S    
C6    H11   1.105965 S    
C22   C23   1.404411 A    
C43   H39   1.108633 S    
C29   C31   1.429386 A    
C3    Br5   1.918633 S    
C45   H45   1.106504 S    
C18   C21   1.401439 A    
C37   C38   1.440337 A    
C5    H9    1.107407 S    
C28   Br7   1.919098 S    
O1    Ba1   2.892449 S    
C4    Br9   1.922188 S    
C4    C5    1.514470 S    
C8    C9    1.520878 S    
C41   C42   1.404758 A    
O2    Ba2   2.870845 S    
C24   C25   1.430348 A    
O26   C44   1.410062 S    
O16   Ba2   2.968377 S    
C19   C30   1.433013 A    
O14   Ba2   2.868283 S    
P1    Ba1   3.462636 S    
C7    H13   1.103472 S    
O5    C6    1.398214 S    
C14   H25   1.110421 S    
C42   H36   1.066287 S    
O13   Ba2   2.990091 S    
P7    O21   1.580356 D    
P5    O19   1.757006 S    
C19   C22   1.432589 A    
C5    H10   1.104488 S    
C17   C32   1.411684 A    
P3    O9    1.539980 D    
C32   Br8   1.891246 S    
C35   C36   1.392846 A    
C15   H28   1.111896 S    
C3    H6    1.096460 S    
C35   C39   1.405070 A    
O6    P6    1.757998 S    
P7    C40   1.871218 S    
P4    O15   1.770592 S    
C24   C32   1.402157 A    
O3    Ba1   2.868958 S    
C1    Br3   1.921500 S    
