data_mof_unit_28841.cif
_audit_creation_date              2012-12-10T21:26:04-0500
_audit_creation_method            fapswitch 2.2
_symmetry_space_group_name_H-M    P1
_symmetry_Int_Tables_number       1
_space_group_crystal_system       triclinic
_cell_length_a                    8.653195
_cell_length_b                    16.236251
_cell_length_c                    16.501699
_cell_angle_alpha                 83.913743
_cell_angle_beta                  93.170448
_cell_angle_gamma                 99.946043
_cell_volume                      2269.07787558

loop_
_atom_site_label
_atom_site_type_symbol
_atom_type_description
_atom_site_fract_x
_atom_site_fract_y
_atom_site_fract_z
_atom_type_partial_charge
C1    C     C_R   0.499300 0.486244 0.653350 1.004012
C2    C     C_R   0.500394 0.513725 0.346625 0.907564
C3    C     C_R   0.481747 0.770317 0.441813 0.415839
C4    C     C_R   0.566950 0.235432 0.545608 0.516688
C5    C     C_R   0.510292 0.858784 0.443076 0.208289
C6    C     C_R   0.589843 0.154748 0.530077 0.215142
C7    C     C_R   0.533770 0.893274 0.518237 0.207715
C8    C     C_R   0.491398 0.111433 0.471953 0.106140
C9    C     C_R   0.563780 0.839491 0.587965 0.303730
C10   C     C_R   0.396191 0.157324 0.419205 0.345805
C11   C     C_R   0.562778 0.752807 0.581247 -0.168445
C12   C     C_R   0.398210 0.243710 0.427640 -0.202655
C13   C     C_R   0.799633 0.520834 0.501646 0.939910
C14   C     C_R   0.200391 0.479216 0.498218 0.887764
C15   C     C_2   0.962514 0.527826 0.515750 0.116439
C16   C     C_2   0.037638 0.472426 0.483833 0.099780
C17   C     C_R   0.498434 0.471374 0.741054 -0.119471
C18   C     C_R   0.500712 0.528438 0.258795 -0.222695
C19   C     C_R   0.640272 0.481538 0.787214 0.399850
C20   C     C_R   0.359407 0.521113 0.210674 0.397520
C21   C     C_R   0.636024 0.470232 0.872847 0.358284
C22   C     C_R   0.367111 0.528665 0.125940 0.453810
C23   C     C_R   0.488001 0.451548 0.909532 0.154573
C24   C     C_R   0.515875 0.543292 0.090367 0.083258
C25   C     C_R   0.349890 0.434308 0.862277 -0.179949
C26   C     C_R   0.653316 0.558773 0.138383 -0.176175
C27   C     C_R   0.355021 0.443955 0.778066 -0.227266
C28   C     C_R   0.645854 0.551332 0.222463 -0.158558
H1    H     H_    0.237385 0.418688 0.890797 0.201140
H2    H     H_    0.766695 0.571508 0.110688 0.215455
H3    H     H_    0.246671 0.432908 0.741722 0.204311
H4    H     H_    0.753744 0.560922 0.259309 0.220408
H5    H     H_    0.592280 0.712832 0.634368 0.196107
H6    H     H_    0.331418 0.280131 0.384799 0.208394
N1    N     N_2   0.474127 0.460870 0.992190 -0.150801
N2    N     N_2   0.530200 0.533660 0.007888 -0.151197
N3    N     N_R   0.519180 0.718290 0.509780 -0.152510
N4    N     N_R   0.480820 0.281710 0.490220 -0.174878
N5    N     N_2   0.533442 0.980974 0.526179 -0.054861
N6    N     N_2   0.486016 0.023304 0.464438 0.000758
O1    O     O_R   0.493140 0.422050 0.612640 -0.554110
O2    O     O_R   0.506860 0.577950 0.387360 -0.555925
O3    O     O_R   0.505450 0.562230 0.618920 -0.599626
O4    O     O_R   0.494550 0.437770 0.381080 -0.584204
O5    O     O_R   0.723530 0.446300 0.497600 -0.536576
O6    O     O_R   0.276470 0.553700 0.502400 -0.541620
O7    O     O_R   0.735850 0.586490 0.503880 -0.572651
O8    O     O_R   0.264150 0.413510 0.496120 -0.575889
Zn1   Zn    Zn3+2 0.491780 0.406400 0.495810 1.114429
Zn2   Zn    Zn3+2 0.508220 0.593600 0.504190 1.117632
S1    S     S_3+6 0.045579 0.601335 0.587413 0.063382
O9    O     O_2   0.150159 0.561366 0.649790 -0.342967
O10   O     O_2   0.139387 0.677493 0.542598 -0.248157
O11   O     O_3   0.904114 0.633258 0.636139 -0.503733
H7    H     H_    0.960712 0.673585 0.673083 0.386890
S2    S     S_3+6 0.954581 0.398580 0.412545 0.050052
O12   O     O_2   0.865259 0.321690 0.458275 -0.265356
O13   O     O_2   0.845981 0.437025 0.351367 -0.317238
O14   O     O_3   0.095458 0.368390 0.362009 -0.551816
H8    H     H_    0.038811 0.327083 0.326037 0.393686
O15   O     O_3   0.212456 0.506924 0.243324 -0.648172
H9    H     H_    0.222869 0.514189 0.302165 0.362652
O16   O     O_3   0.779445 0.502148 0.746783 -0.722808
H10   H     H_    0.869696 0.506503 0.786536 0.395445
O17   O     O_3   0.227751 0.520298 0.080044 -0.682772
H11   H     H_    0.249634 0.539780 0.022258 0.349160
O18   O     O_3   0.775535 0.480076 0.918647 -0.754770
H12   H     H_    0.755382 0.456537 0.975677 0.370617
S3    S     S_3+6 0.634756 0.268087 0.643290 0.126497
O19   O     O_2   0.495590 0.278028 0.689648 -0.286804
O20   O     O_2   0.714499 0.203073 0.692683 -0.198444
O21   O     O_3   0.763508 0.358347 0.635207 -0.519576
H13   H     H_    0.824942 0.358999 0.687646 0.387969
S4    S     S_3+6 0.375356 0.732602 0.353701 0.082505
O22   O     O_2   0.262475 0.653080 0.373663 -0.275969
O23   O     O_2   0.280898 0.797066 0.315253 -0.232064
O24   O     O_3   0.503352 0.718253 0.285548 -0.567905
H14   H     H_    0.439955 0.709964 0.234311 0.381397
O25   O     O_3   0.711971 0.121104 0.570358 -0.629840
H15   H     H_    0.759950 0.091805 0.531026 0.360949
O26   O     O_3   0.514934 0.911987 0.371796 -0.653270
H16   H     H_    0.554881 0.884388 0.328397 0.386309
O27   O     O_3   0.596554 0.873173 0.661590 -0.670447
H17   H     H_    0.614788 0.827735 0.704294 0.349777
O28   O     O_3   0.304656 0.117101 0.359254 -0.662882
H18   H     H_    0.244985 0.157581 0.327774 0.347021

loop_
_geom_bond_atom_site_label_1
_geom_bond_atom_site_label_2
_ccdc_geom_bond_type
O4    Zn1   S    
C10   O28   S    
C2    C18   S    
N1    N2    D    
O26   H16   S    
C14   O6    A    
N4    Zn1   S    
O24   H14   S    
C24   N2    S    
S4    O23   D    
C19   C21   A    
C24   C26   A    
C15   C16   D    
S2    O12   D    
S3    O20   D    
C20   O15   S    
C11   N3    A    
C3    S4    S    
C1    O3    A    
C19   O16   S    
S4    O24   S    
C14   C16   S    
C15   S1    S    
O14   H8    S    
C21   O18   S    
O15   H9    S    
C28   H4    S    
O1    Zn1   S    
C4    S3    S    
O7    Zn2   S    
C25   H1    S    
S4    O22   D    
C27   H3    S    
O18   H12   S    
C17   C27   A    
C11   H5    S    
C18   C28   A    
O25   H15   S    
C4    C6    A    
C2    O4    A    
N5    N6    D    
C5    C7    A    
C14   O8    A    
O28   H18   S    
S1    O9    D    
S1    O10   D    
S3    O21   S    
C16   S2    S    
C22   O17   S    
C5    O26   S    
O27   H17   S    
O5    Zn1   S    
C9    C11   A    
C10   C12   A    
O2    Zn2   S    
C1    O1    A    
O8    Zn1   S    
C20   C22   A    
C26   H2    S    
C23   N1    S    
C13   C15   S    
C22   C24   A    
C12   H6    S    
C13   O7    A    
C7    C9    A    
O11   H7    S    
C1    C17   S    
C4    N4    A    
O21   H13   S    
C3    C5    A    
C6    C8    A    
C9    O27   S    
O3    Zn2   S    
C25   C27   A    
O6    Zn2   S    
C26   C28   A    
S2    O14   S    
S1    O11   S    
C21   C23   A    
C13   O5    A    
N3    Zn2   S    
C6    O25   S    
C2    O2    A    
C17   C19   A    
S2    O13   D    
C18   C20   A    
C23   C25   A    
C12   N4    A    
S3    O19   D    
O16   H10   S    
C3    N3    A    
C8    C10   A    
O17   H11   S    
C7    N5    S    
C8    N6    S    
