data_mof_unit_34798.cif
_audit_creation_date              2012-12-10T16:37:41-0500
_audit_creation_method            fapswitch 2.2
_symmetry_space_group_name_H-M    P1
_symmetry_Int_Tables_number       1
_space_group_crystal_system       triclinic
_cell_length_a                    10.901037
_cell_length_b                    10.872582
_cell_length_c                    15.351849
_cell_angle_alpha                 96.685297
_cell_angle_beta                  75.265896
_cell_angle_gamma                 98.86656
_cell_volume                      1732.99139283

loop_
_atom_site_label
_atom_site_type_symbol
_atom_type_description
_atom_site_fract_x
_atom_site_fract_y
_atom_site_fract_z
_atom_type_partial_charge
C1    C     C_R   0.159018 0.477561 0.519907 0.501205
C2    C     C_R   0.547107 0.491857 0.105740 -0.017276
C3    C     C_R   0.583267 0.286904 0.130157 -0.138523
C4    C     C_R   0.842060 0.522040 0.480982 0.489142
C5    C     C_R   0.412042 0.567159 0.842280 -0.039988
C6    C     C_2   0.978172 0.536750 0.478791 -0.058745
C7    C     C_2   0.024605 0.465054 0.526298 -0.030918
C8    C     C_2   0.535577 0.966016 0.469395 -0.019782
C9    C     C_2   0.455224 0.036074 0.529133 0.245094
C10   C     C_R   0.467884 0.168009 0.520767 0.528710
C11   C     C_R   0.529263 0.833532 0.480012 0.532201
C12   C     C_R   0.343630 0.701334 0.979131 0.300129
C13   C     C_R   0.554863 0.443748 0.258153 0.503681
C14   C     C_R   0.443186 0.551228 0.742420 0.521980
C15   C     C_R   0.562065 0.239206 0.046323 -0.025483
C16   C     C_R   0.573970 0.411450 0.160789 -0.017709
C17   C     C_R   0.371371 0.680175 0.884921 -0.162519
C18   C     C_1   0.950479 0.361119 0.575490 0.230550
C19   C     C_1   0.626634 0.018273 0.391681 0.187669
C20   C     C_3   0.248966 0.982063 0.605495 0.038298
C21   C     C_3   0.165514 0.917083 0.687379 -0.249480
C22   C     C_3   0.024228 0.901177 0.686654 -0.470216
C23   C     C_R   0.373899 0.616579 0.030000 0.308169
C24   C     C_1   0.494799 0.143502 0.870623 0.214573
C25   C     C_1   0.579779 0.109433 0.022141 0.223088
C26   C     C_1   0.580564 0.625011 0.124404 0.271730
C27   C     C_3   0.235324 0.538315 0.157465 0.015627
C28   C     C_3   0.104222 0.572098 0.156641 -0.260332
C29   C     C_3   0.996120 0.474506 0.199499 -0.454227
C30   C     C_3   0.179107 0.823308 0.006168 0.006130
C31   C     C_3   0.190410 0.944506 0.961452 -0.259491
C32   C     C_3   0.060632 0.969715 0.952128 -0.478838
C33   C     C_1   0.367300 0.293101 0.796459 0.232565
C34   C     C_R   0.438660 0.513671 0.985235 -0.045201
C35   C     C_1   0.061679 0.633127 0.425964 0.180275
C36   C     C_R   0.430806 0.476299 0.895585 -0.055260
C37   C     C_R   0.500019 0.441344 0.028925 -0.008502
C38   C     C_R   0.516379 0.314963 0.994220 -0.011559
C39   C     C_R   0.481145 0.269499 0.911709 -0.037258
C40   C     C_R   0.434443 0.348834 0.864996 -0.002687
H1    H     H_    0.604581 0.225343 0.173717 0.143582
H2    H     H_    0.237301 0.529844 0.228505 0.175655
H3    H     H_    0.248752 0.444590 0.121244 0.114249
H4    H     H_    0.090753 0.664575 0.194399 0.209265
H5    H     H_    0.099434 0.577923 0.085864 0.142006
H6    H     H_    0.005502 0.382139 0.160786 0.147755
H7    H     H_    0.902593 0.502569 0.198962 0.172650
H8    H     H_    0.998027 0.466294 0.270535 0.165875
H9    H     H_    0.108720 0.829081 0.072597 0.162046
H10   H     H_    0.139337 0.743275 0.964542 0.098267
H11   H     H_    0.230768 0.024050 0.002547 0.190643
H12   H     H_    0.358559 0.751213 0.845293 0.157518
H13   H     H_    0.256074 0.937892 0.893250 0.178955
H14   H     H_    0.019239 0.892063 0.910231 0.153738
H15   H     H_    0.072491 0.057642 0.918868 0.158019
H16   H     H_    0.993730 0.979802 0.019723 0.171964
H17   H     H_    0.231950 0.926102 0.542956 0.149090
H18   H     H_    0.220914 0.076888 0.607804 0.152607
H19   H     H_    0.195035 0.823595 0.687217 0.199279
H20   H     H_    0.179362 0.973347 0.750159 0.178775
H21   H     H_    0.992076 0.993683 0.688147 0.175208
H22   H     H_    0.966423 0.854248 0.747121 0.154466
H23   H     H_    0.007927 0.842798 0.625230 0.165734
N1    N     N_1   0.891885 0.278054 0.614766 -0.270067
N2    N     N_1   0.699058 0.059928 0.329792 -0.286129
N3    N     N_1   0.505662 0.043733 0.836514 -0.256751
N4    N     N_1   0.594391 0.005455 0.003976 -0.221916
N5    N     N_1   0.607836 0.731162 0.139319 -0.223779
N6    N     N_1   0.313029 0.248563 0.742471 -0.303742
N7    N     N_1   0.128232 0.710009 0.384080 -0.294210
O1    O     O_3   0.500000 0.500000 0.500000 -0.453948
O2    O     O_R   0.463530 0.379110 0.309170 -0.535407
O3    O     O_R   0.388210 0.611730 0.699360 -0.550460
O4    O     O_R   0.624720 0.532760 0.292120 -0.536342
O5    O     O_R   0.523540 0.476390 0.699360 -0.520968
O6    O     O_3   0.378413 0.990523 0.608470 -0.538078
O7    O     O_3   0.334124 0.634065 0.123428 -0.527169
O8    O     O_3   0.298536 0.810435 0.022641 -0.508760
O9    O     O_R   0.537910 0.240570 0.564270 -0.503903
O10   O     O_R   0.438950 0.782540 0.540270 -0.498766
O11   O     O_R   0.222350 0.398740 0.468260 -0.539473
O12   O     O_R   0.800790 0.578160 0.427210 -0.537824
O13   O     O_R   0.212140 0.566330 0.564260 -0.545731
O14   O     O_R   0.764730 0.456770 0.540270 -0.529820
O15   O     O_R   0.412790 0.208310 0.468260 -0.565443
O16   O     O_R   0.610350 0.768590 0.427210 -0.529209
Zn1   Zn    Zn3+2 0.580150 0.419820 0.574680 0.990881
Zn2   Zn    Zn3+2 0.401380 0.373730 0.437510 0.957711
Zn3   Zn    Zn3+2 0.631680 0.593260 0.413140 0.966588
Zn4   Zn    Zn3+2 0.386790 0.613180 0.574670 0.958546

loop_
_geom_bond_atom_site_label_1
_geom_bond_atom_site_label_2
_ccdc_geom_bond_type
C10   O15   A    
C34   C37   A    
C2    C37   A    
O14   Zn1   S    
O9    Zn1   S    
C12   C23   A    
O12   Zn3   S    
C29   H7    S    
O4    Zn3   S    
C28   C29   S    
O3    Zn4   S    
C21   H19   S    
C38   C39   A    
C15   C25   S    
C5    C17   A    
C11   O16   A    
C1    O11   A    
C5    C36   A    
C24   C39   S    
C6    C35   S    
C20   O6    S    
C22   H23   S    
C35   N7    T    
C8    C9    D    
O1    Zn3   S    
C12   C17   A    
C9    O6    S    
C2    C16   A    
C9    C10   S    
C32   H15   S    
C24   N3    T    
C23   C34   A    
C30   H10   S    
C21   C22   S    
C17   H12   S    
C32   H14   S    
O2    Zn2   S    
C28   H5    S    
C33   C40   S    
C29   H8    S    
C8    C19   S    
C14   O3    A    
C36   C40   A    
C21   H20   S    
C4    C6    S    
C39   C40   A    
C28   H4    S    
C23   O7    S    
C12   O8    S    
C25   N4    T    
C15   C38   A    
C37   C38   A    
C22   H22   S    
C31   C32   S    
C4    O14   A    
C7    C18   S    
C2    C26   S    
C31   H13   S    
C5    C14   S    
O1    Zn1   S    
O5    Zn1   S    
C30   H9    S    
C20   H18   S    
C3    C15   A    
O15   Zn2   S    
O13   Zn4   S    
C3    H1    S    
C1    C7    S    
C31   H11   S    
C27   O7    S    
O16   Zn3   S    
C10   O9    A    
C6    C7    D    
C13   O2    A    
C33   N6    T    
C1    O13   A    
C29   H6    S    
C26   N5    T    
C14   O5    A    
C22   H21   S    
C27   H2    S    
C18   N1    T    
C30   C31   S    
O1    Zn4   S    
C8    C11   S    
C19   N2    T    
C34   C36   A    
O10   Zn4   S    
O11   Zn2   S    
C11   O10   A    
O1    Zn2   S    
C30   O8    S    
C27   H3    S    
C4    O12   A    
C20   C21   S    
C13   C16   S    
C27   C28   S    
C20   H17   S    
C32   H16   S    
C3    C16   A    
C13   O4    A    
