data_mof_unit_36397.cif
_audit_creation_date              2013-03-05T15:45:59-0500
_audit_creation_method            fapswitch 2.2
_symmetry_space_group_name_H-M    P1
_symmetry_Int_Tables_number       1
_space_group_crystal_system       triclinic
_cell_length_a                    18.912578
_cell_length_b                    10.989982
_cell_length_c                    18.682389
_cell_angle_alpha                 90.333048
_cell_angle_beta                  89.951014
_cell_angle_gamma                 89.753705
_cell_volume                      3883.01086792

loop_
_atom_site_label
_atom_site_type_symbol
_atom_site_description
_atom_site_fract_x
_atom_site_fract_y
_atom_site_fract_z
_atom_type_partial_charge
O1    O     O_R   0.787510 0.042610 0.670410 -0.518292
O2    O     O_R   0.212490 0.042610 0.329590 -0.512029
O3    O     O_R   0.287510 0.542610 0.670410 -0.519068
O4    O     O_R   0.712490 0.542610 0.329590 -0.513154
O5    O     O_R   0.765670 0.292090 0.675090 -0.533984
O6    O     O_R   0.234330 0.292090 0.324910 -0.529636
O7    O     O_R   0.265670 0.792090 0.675090 -0.538763
O8    O     O_R   0.734330 0.792090 0.324910 -0.530259
C1    C     C_R   0.731895 0.381801 0.647894 0.575532
C2    C     C_R   0.268097 0.382635 0.352065 0.553835
C3    C     C_R   0.231897 0.881796 0.647891 0.564334
C4    C     C_R   0.768096 0.882638 0.352066 0.553414
O9    O     O_R   0.670220 0.409020 0.668560 -0.459393
O10   O     O_R   0.329780 0.409020 0.331440 -0.467236
O11   O     O_R   0.170220 0.909020 0.668560 -0.463291
O12   O     O_R   0.829780 0.909020 0.331440 -0.467231
O13   O     O_R   0.556580 0.251590 0.674980 -0.522150
O14   O     O_R   0.443420 0.251590 0.325020 -0.495980
O15   O     O_R   0.056580 0.751590 0.674980 -0.522771
O16   O     O_R   0.943420 0.751590 0.325020 -0.496389
C5    C     C_R   0.531112 0.154338 0.646998 0.516477
C6    C     C_R   0.434903 0.151155 0.360700 0.535600
C7    C     C_R   0.031103 0.654333 0.647004 0.515654
C8    C     C_R   0.934897 0.651154 0.360703 0.535535
O17   O     O_R   0.545890 0.049670 0.670030 -0.527069
O18   O     O_R   0.454110 0.049670 0.329970 -0.510199
O19   O     O_R   0.045890 0.549670 0.670030 -0.528777
O20   O     O_R   0.954110 0.549670 0.329970 -0.509726
O21   O     O_R   0.681340 0.957860 0.676500 -0.449369
O22   O     O_R   0.318660 0.957860 0.323500 -0.485261
O23   O     O_R   0.181340 0.457860 0.676500 -0.452363
O24   O     O_R   0.818660 0.457860 0.323500 -0.485914
C9    C     C_R   0.726723 0.021701 0.640157 0.571657
C10   C     C_R   0.272522 0.020377 0.360259 0.540459
C11   C     C_R   0.226728 0.521678 0.640154 0.570474
C12   C     C_R   0.772523 0.520377 0.360258 0.540066
O25   O     O_R   0.787380 0.044010 0.830940 -0.549712
O26   O     O_R   0.212620 0.044010 0.169060 -0.536893
O27   O     O_R   0.287380 0.544010 0.830940 -0.541606
O28   O     O_R   0.712620 0.544010 0.169060 -0.531321
O29   O     O_R   0.765540 0.293390 0.823910 -0.484663
O30   O     O_R   0.234460 0.293390 0.176090 -0.486171
O31   O     O_R   0.265540 0.793390 0.823910 -0.498788
O32   O     O_R   0.734460 0.793390 0.176090 -0.484292
C13   C     C_R   0.710667 0.330762 0.859781 0.568887
C14   C     C_R   0.269636 0.378944 0.148072 0.569549
C15   C     C_R   0.230370 0.879665 0.851850 0.573246
C16   C     C_R   0.769836 0.878426 0.147823 0.569640
O33   O     O_R   0.670090 0.410410 0.829090 -0.484800
O34   O     O_R   0.329910 0.410410 0.170910 -0.513791
O35   O     O_R   0.170090 0.910410 0.829090 -0.508547
O36   O     O_R   0.829910 0.910410 0.170910 -0.513393
O37   O     O_R   0.556450 0.252890 0.823790 -0.539569
O38   O     O_R   0.443550 0.252890 0.176210 -0.515597
O39   O     O_R   0.056450 0.752890 0.823790 -0.517597
O40   O     O_R   0.943550 0.752890 0.176210 -0.514418
C17   C     C_R   0.530065 0.156666 0.852489 0.550065
C18   C     C_R   0.468814 0.156429 0.146783 0.570319
C19   C     C_R   0.031146 0.656778 0.853280 0.561052
C20   C     C_R   0.969792 0.656511 0.147541 0.570625
O41   O     O_R   0.545750 0.051070 0.830560 -0.440235
O42   O     O_R   0.454250 0.051070 0.169440 -0.435748
O43   O     O_R   0.045750 0.551070 0.830560 -0.442757
O44   O     O_R   0.954250 0.551070 0.169440 -0.438102
O45   O     O_R   0.681210 0.959150 0.825320 -0.474504
O46   O     O_R   0.318790 0.959150 0.174680 -0.478927
O47   O     O_R   0.181210 0.459150 0.825320 -0.473905
O48   O     O_R   0.818790 0.459150 0.174680 -0.482650
C21   C     C_R   0.741376 0.972561 0.854795 0.555863
C22   C     C_R   0.258740 0.972230 0.145064 0.541825
C23   C     C_R   0.241111 0.473497 0.855161 0.560954
C24   C     C_R   0.757425 0.467231 0.147013 0.542476
Cr1   Cr    Cr6+3 0.771950 0.169480 0.750100 1.002465
Cr2   Cr    Cr6+3 0.228050 0.169480 0.249900 1.023923
Cr3   Cr    Cr6+3 0.271950 0.669480 0.750100 1.003721
Cr4   Cr    Cr6+3 0.728050 0.669480 0.249900 1.025599
Cr5   Cr    Cr6+3 0.614930 0.323340 0.749170 1.038556
Cr6   Cr    Cr6+3 0.385070 0.323340 0.250830 1.036613
Cr7   Cr    Cr6+3 0.114930 0.823340 0.749170 1.042492
Cr8   Cr    Cr6+3 0.885070 0.823340 0.250830 1.038054
Cr9   Cr    Cr6+3 0.616590 0.010620 0.750610 1.100595
Cr10  Cr    Cr6+3 0.383410 0.010620 0.249390 1.097560
Cr11  Cr    Cr6+3 0.116590 0.510620 0.750610 1.104171
Cr12  Cr    Cr6+3 0.883410 0.510620 0.249390 1.095990
O49   O     O_3   0.667820 0.167810 0.749960 -0.314785
O50   O     O_3   0.332180 0.167810 0.250040 -0.309305
O51   O     O_3   0.167820 0.667810 0.749960 -0.291683
O52   O     O_3   0.832180 0.667810 0.250040 -0.308103
C25   C     C_R   0.446598 0.156566 0.437901 0.005105
C26   C     C_R   0.488465 0.157759 0.582260 0.006315
C27   C     C_R   0.946569 0.656550 0.437915 0.005044
C28   C     C_R   0.988435 0.657729 0.582277 0.007361
C29   C     C_R   0.447615 0.265756 0.477827 0.004027
C30   C     C_R   0.468969 0.265576 0.548834 -0.011755
C31   C     C_R   0.947531 0.765721 0.477867 0.003959
C32   C     C_R   0.968880 0.765538 0.548881 -0.011571
C33   C     C_R   0.475795 0.047813 0.545959 -0.146164
C34   C     C_R   0.456117 0.047101 0.474752 -0.159762
C35   C     C_R   0.975808 0.547780 0.545958 -0.145488
C36   C     C_R   0.956127 0.547079 0.474752 -0.159758
C37   C     C_3   0.483986 0.385682 0.465968 -0.135668
C38   C     C_3   0.506934 0.383966 0.544842 -0.130073
C39   C     C_3   0.983880 0.885673 0.466038 -0.135611
C40   C     C_3   0.006821 0.883951 0.544906 -0.130251
H1    H     H_    0.490024 0.961978 0.569090 0.138821
H2    H     H_    0.454650 0.960170 0.447380 0.151936
H3    H     H_    0.990074 0.461942 0.569072 0.138835
H4    H     H_    0.954692 0.460156 0.447368 0.152012
H5    H     H_    0.943991 0.956081 0.453825 0.185690
H6    H     H_    0.064866 0.874847 0.552924 0.156521
H7    H     H_    0.444107 0.456109 0.453758 0.185655
H8    H     H_    0.564977 0.374832 0.552856 0.156080
C41   C     C_R   0.676357 0.932668 0.527374 -0.117373
C42   C     C_R   0.312143 0.906119 0.467487 -0.132190
C43   C     C_R   0.176396 0.432517 0.527394 -0.117428
C44   C     C_R   0.812149 0.406140 0.467493 -0.131988
H9    H     H_    0.631149 0.898763 0.556333 0.195975
H10   H     H_    0.349176 0.856030 0.434968 0.219060
H11   H     H_    0.131220 0.398512 0.556363 0.195964
H12   H     H_    0.849188 0.356055 0.434979 0.219134
C45   C     C_R   0.684933 0.901195 0.455403 -0.178407
C46   C     C_R   0.306982 0.879810 0.539802 -0.181278
C47   C     C_R   0.184959 0.401100 0.455415 -0.178505
C48   C     C_R   0.806979 0.379837 0.539807 -0.181948
H13   H     H_    0.648509 0.837565 0.431028 0.149243
H14   H     H_    0.339344 0.808347 0.561667 0.139292
H15   H     H_    0.148545 0.337450 0.431040 0.149335
H16   H     H_    0.839339 0.308373 0.561674 0.139162
C49   C     C_R   0.742840 0.946113 0.416967 -0.001886
C50   C     C_R   0.257208 0.940429 0.582285 0.009648
C51   C     C_R   0.242843 0.446083 0.416971 -0.001825
C52   C     C_R   0.757196 0.440449 0.582286 0.008609
C53   C     C_R   0.785326 0.037889 0.448434 0.192655
C54   C     C_R   0.221372 0.042876 0.554319 0.208752
C55   C     C_R   0.285322 0.537865 0.448439 0.192549
C56   C     C_R   0.721354 0.542897 0.554309 0.207282
C57   C     C_R   0.781199 0.056796 0.522020 -0.133837
C58   C     C_R   0.225515 0.066324 0.481001 -0.124476
C59   C     C_R   0.281193 0.556767 0.522023 -0.133569
C60   C     C_R   0.725518 0.566340 0.480990 -0.124468
H17   H     H_    0.819134 0.115141 0.547800 0.155471
H18   H     H_    0.195633 0.140827 0.458422 0.150626
H19   H     H_    0.319117 0.615137 0.547802 0.155595
H20   H     H_    0.695641 0.640836 0.458394 0.150862
C61   C     C_R   0.728449 0.001221 0.562465 -0.024846
C62   C     C_R   0.268980 0.995138 0.436930 -0.030323
C63   C     C_R   0.228463 0.501150 0.562472 -0.024225
C64   C     C_R   0.768986 0.495149 0.436929 -0.029891
C65   C     C_R   0.494399 0.049477 0.962298 0.204012
C66   C     C_R   0.504988 0.050815 0.035870 0.196250
C67   C     C_R   0.998177 0.550591 0.964453 0.201916
C68   C     C_R   0.009158 0.551280 0.037970 0.195695
C69   C     C_R   0.496066 0.161763 0.073624 -0.024893
C70   C     C_R   0.499084 0.160538 0.924306 -0.017069
C71   C     C_R   0.000396 0.662033 0.075791 -0.024913
C72   C     C_R   0.003736 0.661607 0.926517 -0.018485
C73   C     C_R   0.491201 0.271604 0.035803 -0.191740
C74   C     C_R   0.495200 0.271145 0.961513 -0.198010
C75   C     C_R   0.999083 0.772470 0.038452 -0.184998
C76   C     C_R   0.004222 0.772267 0.964236 -0.182831
H21   H     H_    0.483476 0.357484 0.063527 0.154574
H22   H     H_    0.496231 0.356818 0.933202 0.144405
H23   H     H_    0.992954 0.858456 0.066466 0.155230
H24   H     H_    0.008693 0.858142 0.936454 0.154951
C77   C     C_R   0.797607 0.006074 0.970011 -0.139600
C78   C     C_R   0.200777 0.004093 0.030721 -0.137269
C79   C     C_R   0.294852 0.512341 0.971204 -0.136108
C80   C     C_R   0.674826 0.420480 0.049045 -0.127905
H25   H     H_    0.834808 0.068631 0.946364 0.144935
H26   H     H_    0.161973 0.063760 0.055313 0.147673
H27   H     H_    0.330684 0.577417 0.947778 0.143567
H28   H     H_    0.631533 0.461853 0.078550 0.138270
C81   C     C_R   0.796314 0.998850 0.043041 -0.135739
C82   C     C_R   0.201796 0.998266 0.957653 -0.138797
C83   C     C_R   0.294076 0.503517 0.044257 -0.139328
C84   C     C_R   0.664937 0.394135 0.977358 -0.127441
H29   H     H_    0.833675 0.053264 0.073228 0.151145
H30   H     H_    0.162450 0.050033 0.928473 0.149328
H31   H     H_    0.330818 0.558629 0.074780 0.146129
H32   H     H_    0.614570 0.415302 0.953104 0.137477
C85   C     C_R   0.752028 0.914910 0.076051 0.041417
C86   C     C_R   0.248341 0.918249 0.923339 0.042909
C87   C     C_R   0.251025 0.417234 0.076817 0.045471
C88   C     C_R   0.720908 0.348155 0.936386 0.022106
C89   C     C_R   0.704568 0.845090 0.035161 -0.076572
C90   C     C_R   0.298701 0.852690 0.962873 -0.088041
C91   C     C_R   0.203885 0.347292 0.035728 -0.079365
C92   C     C_R   0.785590 0.319849 0.969279 -0.106809
H33   H     H_    0.671106 0.777211 0.059621 0.182865
H34   H     H_    0.334685 0.789463 0.937124 0.174801
H35   H     H_    0.170496 0.279458 0.060114 0.171782
H36   H     H_    0.829274 0.282118 0.938947 0.181810
C93   C     C_R   0.702863 0.858098 0.961388 -0.109380
C94   C     C_R   0.300185 0.863607 0.036770 -0.124433
C95   C     C_R   0.202557 0.359922 0.961965 -0.117582
C96   C     C_R   0.795971 0.347977 0.041034 -0.125875
H37   H     H_    0.665536 0.805754 0.930075 0.181523
H38   H     H_    0.339542 0.814003 0.067031 0.170181
H39   H     H_    0.166146 0.306034 0.930456 0.169451
H40   H     H_    0.847585 0.333207 0.064356 0.185961
C97   C     C_R   0.749976 0.938042 0.928639 0.019454
C98   C     C_R   0.250561 0.938498 0.070909 0.018881
C99   C     C_R   0.248911 0.441375 0.929474 0.021723
C100  C     C_R   0.741705 0.404381 0.080143 0.013924
C101  C     C_R   0.543417 0.377262 0.411283 0.038443
C102  C     C_R   0.539235 0.448456 0.349091 -0.048831
C103  C     C_R   0.582119 0.421646 0.290002 -0.051181
C104  C     C_R   0.631527 0.326921 0.293463 -0.036821
C105  C     C_R   0.639380 0.260967 0.356627 -0.075246
C106  C     C_R   0.595906 0.285929 0.415401 -0.085342
H41   H     H_    0.499341 0.518929 0.344366 0.142692
H42   H     H_    0.576622 0.473605 0.241266 0.109926
H43   H     H_    0.664419 0.305873 0.247559 0.126796
H44   H     H_    0.677623 0.187851 0.359391 0.155856
H45   H     H_    0.600397 0.228947 0.462268 0.105516
C107  C     C_R   0.474518 0.480411 0.593506 0.037680
C108  C     C_R   0.478564 0.603468 0.574736 -0.032840
C109  C     C_R   0.459079 0.694037 0.623824 -0.087276
C110  C     C_R   0.437169 0.663764 0.692664 -0.063187
C111  C     C_R   0.432871 0.541945 0.712162 -0.066120
C112  C     C_R   0.449400 0.450801 0.662472 -0.044119
H46   H     H_    0.498735 0.629596 0.522845 0.171193
H47   H     H_    0.462004 0.787922 0.609060 0.107313
H48   H     H_    0.423137 0.734592 0.730672 0.143131
H49   H     H_    0.415515 0.517860 0.765408 0.130550
H50   H     H_    0.443193 0.357544 0.678947 0.133384
C113  C     C_R   0.043333 0.877300 0.411390 0.038506
C114  C     C_R   0.039174 0.948531 0.349219 -0.049888
C115  C     C_R   0.082115 0.921806 0.290167 -0.050807
C116  C     C_R   0.131559 0.827132 0.293649 -0.035840
C117  C     C_R   0.139378 0.761130 0.356798 -0.075901
C118  C     C_R   0.095843 0.786003 0.415534 -0.085312
H51   H     H_    0.999266 0.018978 0.344481 0.142929
H52   H     H_    0.076648 0.973826 0.241453 0.114100
H53   H     H_    0.164533 0.806209 0.247785 0.129768
H54   H     H_    0.177653 0.688066 0.359583 0.155996
H55   H     H_    0.100315 0.728996 0.462391 0.105640
C119  C     C_R   0.974406 0.980391 0.593566 0.037611
C120  C     C_R   0.978450 0.103447 0.574791 -0.032968
C121  C     C_R   0.959003 0.194025 0.623889 -0.087697
C122  C     C_R   0.937133 0.163753 0.692742 -0.064532
C123  C     C_R   0.932839 0.041934 0.712245 -0.067147
C124  C     C_R   0.949335 0.950784 0.662547 -0.043946
H56   H     H_    0.998607 0.129571 0.522894 0.171259
H57   H     H_    0.961936 0.287914 0.609124 0.107619
H58   H     H_    0.923134 0.234582 0.730759 0.143894
H59   H     H_    0.915516 0.017856 0.765502 0.131345
H60   H     H_    0.943151 0.857525 0.679028 0.134105
N1    N     N_R   0.832847 0.110831 0.406599 0.067319
O53   O     O_R   0.813702 0.149787 0.343841 -0.342424
O54   O     O_R   0.891406 0.151020 0.434166 -0.455109
N2    N     N_R   0.181344 0.123307 0.599714 0.090929
O55   O     O_R   0.125332 0.177567 0.575283 -0.412305
O56   O     O_R   0.204971 0.152856 0.662867 -0.310052
N3    N     N_R   0.332844 0.610813 0.406610 0.067332
O57   O     O_R   0.313702 0.649779 0.343854 -0.342520
O58   O     O_R   0.391405 0.650988 0.434181 -0.455151
N4    N     N_R   0.681267 0.623310 0.599672 0.090649
O59   O     O_R   0.704664 0.652491 0.662954 -0.299335
O60   O     O_R   0.625431 0.677903 0.575112 -0.412746
N5    N     N_R   0.481258 0.935834 0.925952 0.109001
O61   O     O_R   0.525722 0.845699 0.931399 -0.315698
O62   O     O_R   0.431058 0.929394 0.878498 -0.365076
N6    N     N_R   0.522195 0.939593 0.072419 0.110406
O63   O     O_R   0.480102 0.846433 0.068650 -0.316805
O64   O     O_R   0.573955 0.938108 0.118256 -0.354077
N7    N     N_R   0.982707 0.437803 0.928342 0.110153
O65   O     O_R   0.027589 0.347805 0.929883 -0.320955
O66   O     O_R   0.928512 0.431466 0.885640 -0.350655
N8    N     N_R   0.026300 0.439977 0.074589 0.105870
O67   O     O_R   0.986143 0.344730 0.068127 -0.320692
O68   O     O_R   0.076021 0.439786 0.122704 -0.354062

loop_
_geom_bond_atom_site_label_1
_geom_bond_atom_site_label_2
_geom_bond_distance
_ccdc_geom_bond_type
C18   O42   1.266492 A    
Cr11  O51   1.984394 S    
O4    C12   1.295155 A    
C53   C57   1.391252 A    
C104  H43   1.082356 S    
O39   C19   1.287991 A    
O20   Cr12  2.058942 S    
C10   C62   1.462119 S    
C41   H9    1.080201 S    
C38   H8    1.112225 S    
C31   C32   1.387132 A    
C54   N2    1.434628 S    
C96   H40   1.081320 S    
O22   C10   1.301314 A    
C82   C86   1.394638 A    
N3    O58   1.299776 A    
C33   C34   1.381680 A    
O1    C9    1.302222 A    
C109  H47   1.071220 S    
C116  H53   1.082372 S    
C101  C102  1.406629 A    
O7    C3    1.280264 A    
C84   H32   1.080228 S    
C59   C63   1.395890 A    
N1    O53   1.301659 A    
C37   C38   1.536701 S    
C5    O17   1.260810 A    
O24   C12   1.301297 A    
C83   H31   1.084060 S    
C57   C61   1.395914 A    
C81   C85   1.394717 A    
C70   C74   1.398393 A    
C51   C55   1.417524 A    
O33   Cr5   2.056192 S    
C86   C90   1.404739 A    
C16   C85   1.441524 S    
Cr3   O51   1.969535 S    
C93   H37   1.082490 S    
C1    C52   1.468885 S    
O47   C23   1.273063 A    
C95   C99   1.396596 A    
C55   C59   1.391209 A    
C39   C113  1.520252 S    
C106  H45   1.082626 S    
C124  H60   1.078696 S    
O21   C9    1.303725 A    
O8    Cr4   1.942510 S    
O23   Cr11  1.932478 S    
C48   C52   1.395418 A    
C43   C63   1.403505 A    
C80   C84   1.381626 A    
C122  C123  1.392216 A    
O30   C14   1.269308 A    
C73   H21   1.083248 S    
C65   N5    1.440767 S    
C115  H52   1.082362 S    
O32   Cr4   1.947708 S    
C113  C114  1.406517 A    
C1    O9    1.262543 A    
C107  C112  1.413086 A    
C114  C115  1.398423 A    
C92   C96   1.388295 A    
C77   C97   1.402914 A    
C55   N3    1.439955 S    
C45   H13   1.082555 S    
C2    C51   1.473450 S    
C3    O11   1.262602 A    
C102  H41   1.082956 S    
C12   C64   1.462081 S    
C73   C74   1.389898 A    
C44   C48   1.386675 A    
C120  C121  1.397573 A    
C68   N8    1.440876 S    
N6    O63   1.301222 A    
C66   C69   1.414470 A    
C9    C61   1.467828 S    
C67   C68   1.389243 A    
O6    Cr2   1.942510 S    
C120  H56   1.082282 S    
C7    O19   1.260765 A    
C27   C36   1.400598 A    
C96   C100  1.399790 A    
O3    Cr3   2.053967 S    
Cr4   O52   1.969379 S    
C26   C33   1.403777 A    
C91   H35   1.081472 S    
O2    Cr2   2.067391 S    
C56   C60   1.397481 A    
C24   C100  1.455531 S    
C48   H16   1.076251 S    
C91   C95   1.386072 A    
Cr6   O50   1.984144 S    
C54   C58   1.397454 A    
O42   Cr10  2.057430 S    
Cr5   O49   1.976870 S    
O18   Cr10  2.058942 S    
O27   C23   1.257084 A    
C82   H30   1.084089 S    
C77   H25   1.081676 S    
C60   C64   1.396922 A    
C50   C54   1.414503 A    
C59   H19   1.076487 S    
C119  C124  1.413031 A    
C15   C86   1.440317 S    
O34   Cr6   2.060094 S    
C117  H54   1.080295 S    
Cr7   O51   1.976870 S    
C111  C112  1.396020 A    
C31   C39   1.506714 S    
Cr9   O49   1.984394 S    
C26   C30   1.391101 A    
C95   H39   1.082416 S    
C5    C26   1.454897 S    
C28   C32   1.391074 A    
O31   Cr3   1.935734 S    
C21   C97   1.442065 S    
O24   Cr12  1.940451 S    
O9    Cr5   2.066483 S    
C36   H4    1.081479 S    
C78   C82   1.366335 A    
C4    C49   1.473528 S    
O16   Cr8   1.941279 S    
C71   C75   1.403538 A    
C103  C104  1.397712 A    
O48   Cr12  1.939433 S    
O14   Cr6   1.941279 S    
C4    O12   1.263700 A    
C72   C76   1.402073 A    
C43   C47   1.395534 A    
C107  C108  1.401475 A    
C42   C62   1.396361 A    
C2    O10   1.263697 A    
C29   C37   1.506756 S    
C110  C111  1.392204 A    
N5    O62   1.301403 A    
O37   C17   1.290523 A    
C102  C103  1.398539 A    
C104  C105  1.396172 A    
C15   O35   1.262488 A    
C108  C109  1.397585 A    
Cr10  O50   1.977006 S    
C105  H44   1.080294 S    
O7    Cr3   1.953075 S    
C22   C98   1.440674 S    
C25   C29   1.409453 A    
O13   C5    1.282956 A    
C44   H12   1.074592 S    
O43   Cr11  2.051181 S    
O48   C24   1.273841 A    
C41   C61   1.403488 A    
Cr12  O52   1.977006 S    
C14   C87   1.441923 S    
C46   H14   1.076251 S    
C23   C99   1.442040 S    
C65   C70   1.418551 A    
O5    C1    1.280307 A    
C115  C116  1.397764 A    
C18   C69   1.461908 S    
C87   C91   1.405397 A    
O46   Cr10  1.939433 S    
O39   Cr7   1.945105 S    
O25   C21   1.257564 A    
C122  H58   1.082566 S    
O45   Cr9   1.941101 S    
C75   C76   1.389845 A    
C68   C71   1.412914 A    
C13   O33   1.297963 A    
C52   C56   1.414646 A    
O37   Cr5   1.945105 S    
O13   Cr5   1.938587 S    
C105  C106  1.396424 A    
C41   C45   1.395576 A    
C40   C119  1.519167 S    
C29   C30   1.387034 A    
C11   C63   1.467746 S    
C67   C72   1.418767 A    
Cr2   O50   1.969379 S    
O15   Cr7   1.938587 S    
Cr1   O49   1.969535 S    
C114  H51   1.082958 S    
C42   H10   1.074591 S    
O30   Cr2   1.947708 S    
C37   C101  1.520437 S    
C89   H33   1.083211 S    
C49   C53   1.417534 A    
C110  H48   1.082589 S    
C67   N7    1.439069 S    
O26   C22   1.254351 A    
O21   Cr9   1.932478 S    
C78   H26   1.082348 S    
N1    O54   1.299773 A    
C43   H11   1.080220 S    
C32   C40   1.490983 S    
C56   N4    1.434730 S    
C103  H42   1.082401 S    
O4    Cr4   2.067391 S    
C75   H23   1.083301 S    
C46   C50   1.395392 A    
C53   N1    1.439962 S    
O3    C11   1.302203 A    
N3    O57   1.301659 A    
C3    C50   1.468836 S    
C76   H24   1.083300 S    
C47   H15   1.082554 S    
C117  C118  1.396354 A    
C79   C99   1.403896 A    
O47   Cr11  1.941101 S    
O15   C7    1.283017 A    
C8    O20   1.301656 A    
C44   C64   1.396335 A    
O38   C18   1.281711 A    
C80   H28   1.083561 S    
C38   C107  1.519251 S    
C108  H46   1.082287 S    
C84   C88   1.396900 A    
C57   H17   1.076486 S    
C119  C120  1.401495 A    
C85   C89   1.406519 A    
O22   Cr10  1.940451 S    
O28   C24   1.260518 A    
C47   C51   1.402184 A    
O14   C6    1.303267 A    
C83   C87   1.394506 A    
C19   O43   1.263881 A    
C90   C94   1.385388 A    
O5    Cr1   1.953075 S    
C60   H20   1.080839 S    
C45   C49   1.402186 A    
C92   H36   1.081281 S    
O17   Cr9   2.060192 S    
O40   Cr8   1.934846 S    
C121  H57   1.071283 S    
O6    C2    1.286682 A    
C79   H27   1.081471 S    
C19   C72   1.463339 S    
C28   C35   1.403825 A    
C17   O41   1.262500 A    
N2    O56   1.301851 A    
O11   Cr7   2.066483 S    
C37   H7    1.103300 S    
N4    O60   1.297787 A    
C35   H3    1.073280 S    
C17   C70   1.463933 S    
C14   O34   1.266321 A    
O25   Cr1   2.070998 S    
C123  H59   1.081932 S    
C34   H2    1.081472 S    
C35   C36   1.381693 A    
C20   O44   1.266816 A    
C25   C34   1.400587 A    
C39   H5    1.103295 S    
N7    O65   1.301072 A    
O1    Cr1   2.053967 S    
O19   Cr11  2.060192 S    
N4    O59   1.301574 A    
C123  C124  1.396021 A    
C33   H1    1.073214 S    
C116  C117  1.396142 A    
Cr8   O52   1.984144 S    
O32   C16   1.269009 A    
O41   Cr9   2.051181 S    
C65   C66   1.389190 A    
C40   H6    1.112230 S    
N7    O66   1.301240 A    
O2    C10   1.295143 A    
C109  C110  1.393451 A    
C94   H38   1.082421 S    
C93   C97   1.397235 A    
O31   C15   1.265761 A    
C101  C106  1.411146 A    
C58   C62   1.396981 A    
O44   Cr12  2.057430 S    
O45   C21   1.273313 A    
C112  H50   1.078686 S    
O23   C11   1.303671 A    
C58   H18   1.080817 S    
C121  C122  1.393449 A    
C6    C25   1.460248 S    
O26   Cr2   2.060952 S    
C111  H49   1.081939 S    
C113  C118  1.411166 A    
C79   C83   1.368876 A    
N8    O68   1.301426 A    
O10   Cr6   2.054371 S    
C78   C98   1.404112 A    
C69   C73   1.404995 A    
C80   C100  1.403291 A    
O35   Cr7   2.056192 S    
C20   C71   1.461317 S    
C118  H55   1.082626 S    
C74   H22   1.082841 S    
O29   Cr1   1.935734 S    
C8    C27   1.460398 S    
C42   C46   1.386684 A    
C88   C92   1.403969 A    
C16   O36   1.266084 A    
O40   C20   1.282006 A    
O46   C22   1.271704 A    
C30   C38   1.490992 S    
C27   C31   1.409517 A    
N6    O64   1.301285 A    
O27   Cr3   2.070998 S    
C6    O18   1.301621 A    
O28   Cr4   2.060952 S    
C39   C40   1.536557 S    
N5    O61   1.301119 A    
O29   C13   1.298747 A    
C7    C28   1.454924 S    
C89   C93   1.386867 A    
C90   H34   1.081158 S    
O12   Cr8   2.054371 S    
C81   H29   1.084124 S    
O36   Cr8   2.060094 S    
C77   C81   1.367349 A    
O16   C8    1.303321 A    
N8    O67   1.301004 A    
O8    C4    1.286715 A    
C13   C88   1.455986 S    
C66   N6    1.439757 S    
N2    O55   1.297961 A    
O38   Cr6   1.934846 S    
C94   C98   1.396883 A    
