data_mof_unit_11596.cif
_audit_creation_date              2012-12-10T17:18:58-0500
_audit_creation_method            fapswitch 2.2
_symmetry_space_group_name_H-M    P1
_symmetry_Int_Tables_number       1
_space_group_crystal_system       triclinic
_cell_length_a                    9.61138
_cell_length_b                    10.760248
_cell_length_c                    13.418361
_cell_angle_alpha                 92.636846
_cell_angle_beta                  72.58178
_cell_angle_gamma                 89.934668
_cell_volume                      1322.53973597

loop_
_atom_site_label
_atom_site_type_symbol
_atom_type_description
_atom_site_fract_x
_atom_site_fract_y
_atom_site_fract_z
_atom_type_partial_charge
C1    C     C_R   0.498925 0.737272 0.502412 0.815772
C2    C     C_R   0.432482 0.514702 0.980693 0.083912
C3    C     C_R   0.466603 0.546330 0.874778 0.093944
C4    C     C_R   0.539564 0.532832 0.033518 0.066778
C5    C     C_R   0.671788 0.593185 0.983557 0.168571
C6    C     C_R   0.694128 0.638176 0.884416 -0.244960
C7    C     C_R   0.591795 0.617106 0.831621 -0.202249
C8    C     C_R   0.519830 0.491945 0.134371 -0.228821
C9    C     C_R   0.753363 0.574115 0.136592 -0.202417
C10   C     C_R   0.373090 0.507990 0.815425 -0.099990
C11   C     C_R   0.317804 0.881481 0.684293 -0.158444
C12   C     C_R   0.421399 0.505538 0.700233 0.745840
C13   C     C_R   0.232087 0.951977 0.770765 -0.146539
C14   C     C_R   0.232732 0.081338 0.770572 -0.137927
C15   C     C_R   0.318896 0.140971 0.683824 -0.129553
C16   C     C_R   0.406205 0.071406 0.595125 0.020947
C17   C     C_R   0.405714 0.940071 0.595466 0.094202
C18   C     C_R   0.496610 0.871297 0.507872 -0.187265
C19   C     C_R   0.588518 0.930643 0.423332 -0.249429
C20   C     C_R   0.588609 0.058894 0.422509 0.591871
C21   C     C_R   0.497221 0.129276 0.506975 -0.215363
C22   C     C_R   0.914472 0.336469 0.359905 -0.166468
C23   C     C_R   0.499470 0.262847 0.501435 0.861722
C24   C     C_R   0.014510 0.256227 0.290599 -0.308254
C25   C     C_R   0.160944 0.256289 0.288098 0.423008
C26   C     C_R   0.201590 0.334457 0.359976 -0.203303
C27   C     C_R   0.103176 0.418706 0.431287 0.142513
C28   C     C_R   0.954008 0.419291 0.431163 0.183651
C29   C     C_R   0.899266 0.578049 0.564554 -0.036935
C30   C     C_R   0.046881 0.577735 0.564839 -0.044080
C31   C     C_R   0.578276 0.501388 0.300232 0.809321
C32   C     C_R   0.778682 0.610919 0.034599 -0.195803
C33   C     C_R   0.621738 0.517794 0.187624 -0.036147
C34   C     C_R   0.235903 0.459696 0.866287 -0.202415
C35   C     C_R   0.194496 0.443361 0.973052 -0.171706
C36   C     C_R   0.292009 0.467945 0.029672 -0.181504
Cu1   Cu    Cu3+1 0.359340 0.500010 0.500010 0.939420
Cu2   Cu    Cu3+1 0.640660 0.499990 0.499990 0.946686
H1    H     H_    0.833520 0.594593 0.176891 0.158913
H2    H     H_    0.315989 0.781292 0.688380 0.122064
H3    H     H_    0.165748 0.906051 0.838504 0.131609
H4    H     H_    0.167014 0.135769 0.838193 0.131538
H5    H     H_    0.317805 0.241523 0.687619 0.137968
H6    H     H_    0.822776 0.642976 0.616761 0.123768
H7    H     H_    0.807147 0.329517 0.354181 0.254477
H8    H     H_    0.975507 0.193711 0.239727 0.184515
H9    H     H_    0.313157 0.325406 0.355474 0.223566
H10   H     H_    0.791125 0.689954 0.847430 0.137382
H11   H     H_    0.079753 0.641581 0.617986 0.128121
H12   H     H_    0.879897 0.656680 0.996750 0.138426
H13   H     H_    0.424648 0.441095 0.174394 0.155971
H14   H     H_    0.161288 0.431833 0.823094 0.157754
H15   H     H_    0.252648 0.452148 0.112031 0.132995
H16   H     H_    0.087650 0.407502 0.011707 0.144414
H17   H     H_    0.610056 0.660006 0.757773 0.155760
H18   H     H_    0.658511 0.876996 0.356741 0.168872
N1    N     N_R   0.852480 0.498790 0.499000 -0.192163
N2    N     N_R   0.148360 0.498710 0.498970 -0.185668
O1    O     O_R   0.381190 0.680360 0.500010 -0.571051
O2    O     O_R   0.618760 0.680340 0.500000 -0.582001
O3    O     O_R   0.323240 0.499990 0.650990 -0.592866
O4    O     O_R   0.560820 0.499960 0.650980 -0.575552
O5    O     O_R   0.381240 0.319660 0.500000 -0.601115
O6    O     O_R   0.618810 0.319640 0.499990 -0.572446
O7    O     O_R   0.439180 0.500040 0.349020 -0.598231
O8    O     O_R   0.676760 0.500010 0.349010 -0.604885
F1    F     F_    0.675324 0.114618 0.337750 -0.698357
O9    O     O_3   0.268548 0.177704 0.222213 -0.568791
C37   C     C_3   0.241059 0.142983 0.127004 0.060746
H19   H     H_    0.195444 0.221593 0.094908 0.132744
H20   H     H_    0.164875 0.063542 0.138738 0.158633
C38   C     C_3   0.383591 0.101846 0.046229 -0.743054
H21   H     H_    0.432284 0.021923 0.074221 0.257745
H22   H     H_    0.363094 0.073109 0.971355 0.198817
H23   H     H_    0.461485 0.179992 0.032389 0.250797

loop_
_geom_bond_atom_site_label_1
_geom_bond_atom_site_label_2
_ccdc_geom_bond_type
C19   H18   S    
C31   O8    A    
C16   C21   A    
C20   F1    S    
C35   C36   A    
C7    H17   S    
C4    C8    A    
C13   H3    S    
C28   N1    A    
C1    C18   S    
Cu1   Cu2   S    
C6    H10   S    
C34   C35   A    
C3    C7    A    
C1    O1    A    
C5    C6    A    
C15   C16   A    
C9    H1    S    
C18   C19   A    
C37   H20   S    
C36   H15   S    
C9    C32   A    
O9    C37   S    
Cu2   O8    S    
C16   C17   A    
Cu1   O7    S    
C31   C33   S    
Cu1   N2    S    
C14   H4    S    
C5    C32   A    
C23   O5    A    
C22   C28   A    
C13   C14   A    
C35   H16   S    
C9    C33   A    
C37   H19   S    
C25   O9    S    
C38   H23   S    
Cu1   O5    S    
Cu2   O6    S    
C24   C25   A    
C38   H22   S    
C1    O2    A    
C38   H21   S    
C25   C26   A    
C37   C38   S    
C2    C4    A    
C29   C30   A    
Cu2   N1    S    
C12   O4    A    
C17   C18   A    
C26   C27   A    
C10   C34   A    
C8    H13   S    
C32   H12   S    
Cu1   O1    S    
C10   C12   S    
C26   H9    S    
Cu2   O2    S    
C23   O6    A    
C30   H11   S    
C29   N1    A    
C21   C23   S    
C29   H6    S    
C22   C24   A    
C2    C36   A    
C31   O7    A    
C11   C17   A    
C4    C5    A    
C27   N2    A    
Cu1   O3    S    
C6    C7    A    
C34   H14   S    
C24   H8    S    
C19   C20   A    
C2    C3    A    
C15   H5    S    
C3    C10   A    
C12   O3    A    
C11   C13   A    
C30   N2    A    
C8    C33   A    
C11   H2    S    
C22   H7    S    
C20   C21   A    
C27   C28   A    
C14   C15   A    
Cu2   O4    S    
