data_mof_unit_36861.cif
_audit_creation_date              2012-12-10T17:42:12-0500
_audit_creation_method            fapswitch 2.2
_symmetry_space_group_name_H-M    P1
_symmetry_Int_Tables_number       1
_space_group_crystal_system       triclinic
_cell_length_a                    15.033358
_cell_length_b                    13.848104
_cell_length_c                    10.758324
_cell_angle_alpha                 88.989343
_cell_angle_beta                  87.897721
_cell_angle_gamma                 90.718358
_cell_volume                      2237.655107

loop_
_atom_site_label
_atom_site_type_symbol
_atom_type_description
_atom_site_fract_x
_atom_site_fract_y
_atom_site_fract_z
_atom_type_partial_charge
C1    C     C_R   0.329019 0.499456 0.498340 0.803558
C2    C     C_3   0.583861 0.447895 0.926217 -0.397452
C3    C     C_R   0.816267 0.559666 0.426547 -0.311942
C4    C     C_R   0.767319 0.500772 0.511597 -0.068699
C5    C     C_R   0.810588 0.441532 0.599079 0.129379
C6    C     C_R   0.904652 0.439634 0.595201 0.101773
C7    C     C_R   0.953238 0.498699 0.506936 0.010786
C8    C     C_R   0.908755 0.558901 0.423063 0.113214
C9    C     C_R   0.951773 0.380468 0.677564 -0.212581
C10   C     C_R   0.044253 0.380949 0.674026 -0.231124
C11   C     C_R   0.091983 0.439400 0.587465 0.125082
C12   C     C_R   0.501052 0.500897 0.260166 0.747900
C13   C     C_R   0.046810 0.498063 0.502790 0.073116
C14   C     C_R   0.095375 0.556599 0.414571 0.120292
C15   C     C_R   0.050221 0.615525 0.331425 -0.221654
C16   C     C_R   0.957445 0.616830 0.335834 -0.202916
C17   C     C_R   0.184469 0.440545 0.584978 -0.288305
C18   C     C_R   0.232522 0.497892 0.497463 -0.065859
C19   C     C_R   0.188327 0.555397 0.411778 -0.264162
C20   C     C_R   0.424319 0.794968 0.533120 0.284561
C21   C     C_R   0.422605 0.200351 0.525378 0.288918
C22   C     C_R   0.576360 0.794351 0.462649 -0.050625
C23   C     C_R   0.576973 0.207980 0.466569 -0.053489
C24   C     C_R   0.579581 0.897320 0.459644 -0.008113
C25   C     C_R   0.579755 0.104858 0.461413 -0.011706
C26   C     C_R   0.670856 0.500361 0.503790 0.816984
C27   C     C_R   0.500510 0.947849 0.479529 0.062862
C28   C     C_R   0.500575 0.051094 0.478732 0.077566
C29   C     C_R   0.421001 0.895507 0.504885 -0.011749
C30   C     C_R   0.420796 0.100034 0.498160 -0.028023
C31   C     C_R   0.658922 0.951312 0.436137 -0.193671
C32   C     C_R   0.659090 0.053725 0.437747 -0.194556
C33   C     C_R   0.340783 0.045988 0.493671 -0.234953
C34   C     C_R   0.340797 0.945937 0.502711 -0.192909
C35   C     C_R   0.500206 0.499710 0.740440 0.730054
C36   C     C_3   0.507862 0.607186 0.069015 -0.372052
C37   C     C_3   0.413901 0.456034 0.079448 -0.372870
C38   C     C_3   0.503810 0.606220 0.926682 -0.359440
C39   C     C_3   0.416412 0.449572 0.936717 -0.405750
C40   C     C_3   0.581857 0.444999 0.069795 -0.372135
C41   C     C_3   0.501347 0.502463 0.122645 0.160920
C42   C     C_3   0.500963 0.500563 0.879136 0.170203
Cu1   Cu    Cu3+1 0.499990 0.597420 0.500010 0.922809
Cu2   Cu    Cu3+1 0.499990 0.402580 0.500010 0.928976
H1    H     H_    0.571362 0.641976 0.095787 0.164899
H2    H     H_    0.404201 0.382354 0.121282 0.171290
H3    H     H_    0.078537 0.335188 0.739032 0.143094
H4    H     H_    0.218748 0.398577 0.653358 0.139236
H5    H     H_    0.226400 0.599366 0.343893 0.133114
H6    H     H_    0.086635 0.660814 0.263404 0.139575
H7    H     H_    0.923695 0.663055 0.270839 0.138404
H8    H     H_    0.636182 0.755242 0.438937 0.144038
H9    H     H_    0.637643 0.248675 0.446131 0.151731
H10   H     H_    0.721143 0.914446 0.418795 0.134044
H11   H     H_    0.721452 0.092752 0.421710 0.135462
H12   H     H_    0.276960 0.080288 0.485066 0.134196
H13   H     H_    0.277287 0.909559 0.503414 0.161447
H14   H     H_    0.452224 0.651355 0.107333 0.171117
H15   H     H_    0.356029 0.499901 0.110957 0.151100
H16   H     H_    0.443494 0.645403 0.897827 0.158834
H17   H     H_    0.355258 0.481650 0.898970 0.145200
H18   H     H_    0.563041 0.645715 0.885343 0.171777
H19   H     H_    0.417737 0.372067 0.914115 0.179181
H20   H     H_    0.645118 0.476029 0.103281 0.145382
H21   H     H_    0.577275 0.368479 0.103119 0.177294
H22   H     H_    0.645314 0.486428 0.890906 0.159596
H23   H     H_    0.585950 0.372801 0.891150 0.172658
H24   H     H_    0.781815 0.604667 0.360668 0.141395
H25   H     H_    0.918202 0.333033 0.745521 0.158249
N1    N     N_R   0.499930 0.743810 0.499950 -0.202281
N2    N     N_R   0.499930 0.256190 0.499950 -0.178010
O1    O     O_R   0.370250 0.582280 0.500040 -0.569864
O2    O     O_R   0.370250 0.417720 0.500040 -0.579552
O3    O     O_R   0.499970 0.582270 0.317700 -0.585120
O4    O     O_R   0.499970 0.417730 0.317700 -0.582092
O5    O     O_R   0.629730 0.582260 0.499980 -0.590134
O6    O     O_R   0.629730 0.417740 0.499980 -0.585733
O7    O     O_R   0.500000 0.582270 0.682320 -0.602983
O8    O     O_R   0.500000 0.417730 0.682320 -0.582098
C43   C     C_3   0.357812 0.754922 0.632264 -0.353606
C44   C     C_3   0.263132 0.736813 0.588809 -0.822916
H26   H     H_    0.261716 0.733748 0.485885 0.256545
H27   H     H_    0.236329 0.668018 0.630242 0.250916
H28   H     H_    0.217566 0.793865 0.622701 0.221713
H29   H     H_    0.382139 0.688247 0.675248 0.235750
H30   H     H_    0.354300 0.806313 0.710546 0.162140
C45   C     C_3   0.341153 0.236046 0.600544 -0.344944
C46   C     C_3   0.362633 0.278742 0.725246 -0.782865
H31   H     H_    0.430372 0.258338 0.753258 0.256239
H32   H     H_    0.354512 0.357713 0.721189 0.252412
H33   H     H_    0.314808 0.252000 0.799844 0.197515
H34   H     H_    0.296713 0.279294 0.543229 0.202138
H35   H     H_    0.295910 0.175960 0.630596 0.166642
C47   C     C_3   0.758287 0.383469 0.698749 -0.903429
H36   H     H_    0.766815 0.305077 0.682818 0.235097
H37   H     H_    0.782229 0.401771 0.791971 0.219249
H38   H     H_    0.686383 0.398441 0.702681 0.244742

loop_
_geom_bond_atom_site_label_1
_geom_bond_atom_site_label_2
_ccdc_geom_bond_type
C45   C46   S    
C21   C45   S    
Cu1   O1    S    
C12   O3    A    
C27   C29   A    
C3    H24   S    
C24   C27   A    
C6    C9    A    
C5    C47   S    
C7    C8    A    
C25   C28   A    
C1    C18   S    
C12   C41   S    
C21   N2    A    
Cu2   O6    S    
C9    H25   S    
C38   C42   S    
C36   H14   S    
C5    C6    A    
C15   C16   A    
Cu2   N2    S    
C17   C18   A    
C18   C19   A    
C15   H6    S    
C35   C42   S    
C43   H30   S    
C34   H13   S    
C26   O5    A    
C17   H4    S    
C9    C10   A    
C32   H11   S    
C33   H12   S    
C8    C16   A    
C45   H34   S    
C20   N1    A    
C36   C41   S    
C47   H36   S    
C44   H27   S    
C23   H9    S    
C39   C42   S    
C20   C29   A    
C39   H17   S    
C26   O6    A    
C20   C43   S    
C1    O1    A    
C23   N2    A    
C3    C8    A    
C4    C5    A    
C47   H38   S    
C29   C34   A    
C44   H26   S    
Cu1   O7    S    
Cu1   O3    S    
Cu2   O4    S    
Cu1   Cu2   S    
C43   H29   S    
C19   H5    S    
C31   C32   A    
C46   H33   S    
C33   C34   A    
C36   H1    S    
C47   H37   S    
C37   H15   S    
C38   H16   S    
C40   C41   S    
C46   H32   S    
C2    H23   S    
Cu1   N1    S    
C40   H21   S    
C22   C24   A    
C3    C4    A    
C10   H3    S    
C44   H28   S    
C22   H8    S    
Cu1   O5    S    
C11   C17   A    
C16   H7    S    
C30   C33   A    
C14   C19   A    
Cu2   O8    S    
C43   C44   S    
C2    H22   S    
C4    C26   S    
C6    C7    A    
C39   H19   S    
C21   C30   A    
C35   O7    A    
C40   H20   S    
C1    O2    A    
C36   C38   S    
C24   C31   A    
C28   C30   A    
C37   C39   S    
C11   C13   A    
C2    C42   S    
C45   H35   S    
C35   O8    A    
C23   C25   A    
C31   H10   S    
C37   C41   S    
Cu2   O2    S    
C10   C11   A    
C2    C40   S    
C7    C13   A    
C46   H31   S    
C12   O4    A    
C27   C28   A    
C14   C15   A    
C37   H2    S    
C13   C14   A    
C22   N1    A    
C38   H18   S    
C25   C32   A    
