data_mof_unit_43995.cif
_audit_creation_date              2012-12-10T18:42:52-0500
_audit_creation_method            fapswitch 2.2
_symmetry_space_group_name_H-M    P1
_symmetry_Int_Tables_number       1
_space_group_crystal_system       triclinic
_cell_length_a                    18.15182
_cell_length_b                    18.165904
_cell_length_c                    18.150104
_cell_angle_alpha                 120.082697
_cell_angle_beta                  90.000323
_cell_angle_gamma                 59.911635
_cell_volume                      4221.00386634

loop_
_atom_site_label
_atom_site_type_symbol
_atom_type_description
_atom_site_fract_x
_atom_site_fract_y
_atom_site_fract_z
_atom_type_partial_charge
C1    C     C_R   0.891405 0.217130 0.608633 0.921451
C2    C     C_3   0.550655 0.896798 0.948424 -0.141580
C3    C     C_3   0.448638 0.034805 0.077094 0.368503
C4    C     C_3   0.551362 0.965195 0.922906 0.368494
C5    C     C_3   0.985079 0.428490 0.446302 -0.057520
C6    C     C_3   0.014921 0.571510 0.553697 -0.057520
C7    C     C_3   0.078722 0.405604 0.448964 -0.079710
C8    C     C_3   0.921278 0.594396 0.551036 -0.079710
C9    C     C_3   0.051681 0.500868 0.449303 -0.094094
C10   C     C_3   0.948319 0.499132 0.550697 -0.094094
C11   C     C_3   0.958036 0.523879 0.446761 -0.068455
C12   C     C_R   0.108595 0.782870 0.391367 0.921453
C13   C     C_3   0.041964 0.476121 0.553239 -0.068456
C14   C     C_3   0.923249 0.034410 0.482869 0.375530
C15   C     C_3   0.076751 0.965590 0.517131 0.375530
C16   C     C_R   0.608422 0.782839 0.891411 0.926733
C17   C     C_R   0.391578 0.217161 0.108589 0.926733
C18   C     C_3   0.957621 0.965955 0.517541 0.369887
C19   C     C_3   0.042379 0.034044 0.482459 0.369888
C20   C     C_3   0.051618 0.896801 0.447686 -0.139151
C21   C     C_3   0.948382 0.103199 0.552314 -0.139152
C22   C     C_3   0.017208 0.965324 0.411273 -0.383602
C23   C     C_3   0.518437 0.403817 0.447056 -0.258295
C24   C     C_3   0.982792 0.034676 0.588727 -0.383602
C25   C     C_3   0.922372 0.526267 0.042650 0.336555
C26   C     C_3   0.077628 0.473733 0.957350 0.336555
C27   C     C_3   0.956424 0.596149 0.078110 -0.263922
C28   C     C_3   0.043576 0.403850 0.921890 -0.263923
C29   C     C_3   0.051267 0.500228 0.052362 -0.188162
C30   C     C_3   0.948733 0.499772 0.947638 -0.188163
C31   C     C_3   0.016408 0.431040 0.017074 0.368560
C32   C     C_3   0.983591 0.568960 0.982926 0.368560
C33   C     C_3   0.553465 0.404083 0.922440 -0.164837
C34   C     C_3   0.481563 0.596182 0.552944 -0.258295
C35   C     C_3   0.446535 0.595917 0.077560 -0.164837
C36   C     C_3   0.449412 0.472801 0.957556 0.420330
C37   C     C_3   0.550588 0.527199 0.042444 0.420330
C38   C     C_3   0.449414 0.499547 0.052388 -0.147916
C39   C     C_3   0.550586 0.500453 0.947612 -0.147916
C40   C     C_R   0.608356 0.500156 0.891287 0.887090
C41   C     C_R   0.391644 0.499844 0.108713 0.887091
C42   C     C_3   0.554036 0.430929 0.017612 -0.145686
C43   C     C_3   0.445964 0.569071 0.982388 -0.145686
C44   C     C_R   0.891378 0.499797 0.608371 0.802476
C45   C     C_3   0.445508 0.966055 0.983530 -0.385414
C46   C     C_R   0.108622 0.500203 0.391629 0.802477
C47   C     C_R   0.891384 0.500009 0.891300 0.913217
C48   C     C_R   0.108616 0.499991 0.108699 0.913216
C49   C     C_R   0.608703 0.499961 0.608525 0.906888
C50   C     C_R   0.391297 0.500039 0.391475 0.906890
C51   C     C_3   0.586252 0.431103 0.447161 0.368840
C52   C     C_3   0.413748 0.568897 0.552839 0.368840
C53   C     C_3   0.516180 0.526366 0.448767 0.333436
C54   C     C_3   0.483819 0.473634 0.551233 0.333436
C55   C     C_3   0.447841 0.499781 0.448561 -0.185098
C56   C     C_3   0.554492 0.033944 0.016470 -0.385423
C57   C     C_3   0.552159 0.500219 0.551439 -0.185098
C58   C     C_1   0.908948 0.700757 0.163116 0.287146
C59   C     C_1   0.091052 0.299243 0.836884 0.287146
C60   C     C_1   0.610894 0.299926 0.836857 0.238504
C61   C     C_1   0.389106 0.700074 0.163143 0.238504
C62   C     C_1   0.614225 0.356546 0.037435 0.289850
C63   C     C_1   0.385775 0.643454 0.962565 0.289850
C64   C     C_1   0.538482 0.299173 0.389488 0.282083
C65   C     C_1   0.461518 0.700827 0.610511 0.282083
C66   C     C_1   0.165486 0.302432 0.392886 0.211027
C67   C     C_3   0.448018 0.034364 0.957952 0.377341
C68   C     C_1   0.834514 0.697568 0.607114 0.211027
C69   C     C_1   0.969210 0.349825 0.386660 0.264229
C70   C     C_1   0.030790 0.650175 0.613340 0.264229
C71   C     C_1   0.912785 0.550158 0.387970 0.208130
C72   C     C_1   0.087215 0.449842 0.612030 0.208130
C73   C     C_3   0.551982 0.965636 0.042048 0.377341
C74   C     C_3   0.449345 0.103202 0.051576 -0.141579
H1    H     H_    0.031169 0.937197 0.339313 0.210057
H2    H     H_    0.155208 0.989150 0.580980 0.360116
H3    H     H_    0.844413 0.562944 0.144265 0.357574
H4    H     H_    0.155587 0.437056 0.855735 0.357573
H5    H     H_    0.000691 0.329545 0.005804 0.355164
H6    H     H_    0.999308 0.670455 0.994195 0.355164
H7    H     H_    0.409782 0.432075 0.855160 0.345676
H8    H     H_    0.590218 0.567925 0.144840 0.345676
H9    H     H_    0.676797 0.329728 0.329585 0.354561
H10   H     H_    0.323203 0.670272 0.670415 0.354562
H11   H     H_    0.406934 0.010706 0.856350 0.360206
H12   H     H_    0.968831 0.062803 0.660687 0.210057
H13   H     H_    0.593075 0.989292 0.143644 0.360207
H14   H     H_    0.408353 0.011923 0.156129 0.359112
H15   H     H_    0.591647 0.988077 0.843871 0.359110
H16   H     H_    0.401326 0.938539 0.970187 0.209897
H17   H     H_    0.598674 0.061461 0.029813 0.209896
H18   H     H_    0.580775 0.563225 0.407594 0.351911
H19   H     H_    0.419225 0.436775 0.592406 0.351911
H20   H     H_    0.855557 0.990053 0.582063 0.360091
H21   H     H_    0.144443 0.009947 0.417936 0.360091
H22   H     H_    0.844792 0.010850 0.419020 0.360116
N1    N     N_1   0.871610 0.783212 0.230170 -0.168699
N2    N     N_1   0.766167 0.778835 0.651263 -0.120833
N3    N     N_1   0.956688 0.287894 0.339726 -0.127290
N4    N     N_1   0.043312 0.712106 0.660274 -0.127290
N5    N     N_1   0.877258 0.570797 0.341597 -0.169362
N6    N     N_1   0.122742 0.429203 0.658403 -0.169362
N7    N     N_1   0.128390 0.216788 0.769829 -0.168699
N8    N     N_1   0.656222 0.217871 0.769391 -0.170497
N9    N     N_1   0.343778 0.782128 0.230608 -0.170497
N10   N     N_1   0.661615 0.297958 0.053092 -0.157718
N11   N     N_1   0.338385 0.702042 0.946908 -0.157717
N12   N     N_1   0.554236 0.216689 0.344025 -0.169951
N13   N     N_1   0.445764 0.783311 0.655975 -0.169951
N14   N     N_1   0.233833 0.221165 0.348737 -0.120832
O1    O     O_3   0.750010 0.499980 0.749990 -0.540991
O2    O     O_R   0.305750 0.265450 0.132730 -0.587921
O3    O     O_R   0.867280 0.265410 0.571220 -0.588899
O4    O     O_R   0.132720 0.734590 0.428780 -0.588900
O5    O     O_R   0.571230 0.734580 0.867270 -0.664628
O6    O     O_R   0.428770 0.265420 0.132730 -0.664628
O7    O     O_R   0.694200 0.438470 0.867270 -0.609410
O8    O     O_R   0.305800 0.561530 0.132730 -0.609411
O9    O     O_R   0.867340 0.561470 0.694210 -0.629895
O10   O     O_R   0.132660 0.438530 0.305790 -0.629895
O11   O     O_R   0.867310 0.438430 0.867270 -0.630318
O12   O     O_3   0.249990 0.500020 0.250010 -0.540992
O13   O     O_R   0.132690 0.561570 0.132730 -0.630318
O14   O     O_R   0.694200 0.438520 0.571220 -0.593429
O15   O     O_R   0.305800 0.561480 0.428780 -0.593430
O16   O     O_R   0.867340 0.561440 0.867270 -0.592397
O17   O     O_R   0.132660 0.438560 0.132730 -0.592396
O18   O     O_R   0.571190 0.561530 0.694210 -0.638296
O19   O     O_R   0.428810 0.438470 0.305790 -0.638297
O20   O     O_3   0.532748 0.552627 0.393347 -0.726188
O21   O     O_3   0.467252 0.447373 0.606652 -0.726188
O22   O     O_3   0.913792 0.927509 0.533031 -0.730257
O23   O     O_R   0.571190 0.561490 0.867270 -0.648290
O24   O     O_3   0.086208 0.072491 0.466969 -0.730257
O25   O     O_3   0.840632 0.073236 0.467815 -0.714317
O26   O     O_3   0.159368 0.926764 0.532185 -0.714317
O27   O     O_3   0.840689 0.552430 0.085641 -0.696735
O28   O     O_3   0.159311 0.447570 0.914358 -0.696736
O29   O     O_3   0.033213 0.359878 0.036641 -0.692963
O30   O     O_3   0.966787 0.640122 0.963359 -0.692963
O31   O     O_3   0.395174 0.444191 0.914493 -0.709111
O32   O     O_3   0.604826 0.555809 0.085507 -0.709111
O33   O     O_3   0.677211 0.360023 0.392542 -0.695474
O34   O     O_R   0.428810 0.438510 0.132730 -0.648290
O35   O     O_3   0.322789 0.639977 0.607458 -0.695473
O36   O     O_3   0.393724 0.073098 0.914394 -0.711771
O37   O     O_3   0.606275 0.926902 0.085606 -0.711774
O38   O     O_3   0.395004 0.074061 0.160099 -0.726311
O39   O     O_3   0.604996 0.925939 0.839901 -0.726314
O40   O     O_R   0.867310 0.438490 0.571220 -0.639691
O41   O     O_R   0.132690 0.561510 0.428780 -0.639691
O42   O     O_R   0.867280 0.265380 0.694210 -0.668036
O43   O     O_R   0.132720 0.734620 0.305790 -0.668036
O44   O     O_R   0.694250 0.734550 0.867270 -0.587922
Zn1   Zn    Zn3+2 0.618190 0.587870 0.793920 1.007330
Zn2   Zn    Zn3+2 0.381810 0.412130 0.206080 1.007330
Zn3   Zn    Zn3+2 0.793940 0.412090 0.793920 1.025017
Zn4   Zn    Zn3+2 0.206060 0.587910 0.206080 1.025017
Zn5   Zn    Zn3+2 0.793970 0.587840 0.793920 1.058948
Zn6   Zn    Zn3+2 0.206030 0.412160 0.206080 1.058949
Zn7   Zn    Zn3+2 0.793940 0.412130 0.618200 1.049665
Zn8   Zn    Zn3+2 0.206060 0.587870 0.381800 1.049665

loop_
_geom_bond_atom_site_label_1
_geom_bond_atom_site_label_2
_ccdc_geom_bond_type
C25   C31   S    
H5    O29   S    
C17   O2    A    
C1    C21   S    
C52   O35   S    
C27   C29   S    
C14   C18   S    
C18   O22   S    
O15   Zn8   S    
O1    Zn7   S    
C12   O43   A    
H8    O32   S    
C36   C43   S    
C48   O13   A    
H2    O26   S    
C43   C63   S    
C60   N8    T    
O16   Zn5   S    
C19   O24   S    
C26   C32   S    
C4    O39   S    
C33   C39   S    
H13   O37   S    
C73   O37   S    
C18   C24   S    
C33   C42   S    
C14   C21   S    
C35   C37   S    
H3    O27   S    
C32   O30   S    
C11   C71   S    
O4    Zn8   S    
C14   O25   S    
O43   Zn4   S    
C33   C36   S    
C49   C57   S    
C1    O42   A    
C6    C70   S    
C37   C42   S    
C49   O18   A    
C3    C74   S    
O1    Zn5   S    
C5    C69   S    
C34   C52   S    
O18   Zn1   S    
C56   H17   S    
C70   N4    T    
C45   C67   S    
C34   C57   S    
C26   C29   S    
C51   C57   S    
C41   O8    A    
C35   C43   S    
C42   C62   S    
C50   O15   A    
C52   C55   S    
H15   O39   S    
C40   O7    A    
C71   N5    T    
C9    C46   S    
O11   Zn3   S    
C4    C56   S    
H18   O20   S    
C58   N1    T    
C1    O3    A    
C22   H1    S    
C6    C9    S    
H4    O28   S    
C34   C65   S    
C5    C10   S    
C52   C54   S    
C64   N12   T    
H22   O25   S    
C12   O4    A    
C53   C55   S    
C2    C45   S    
O12   Zn4   S    
C15   C20   S    
C37   C39   S    
C56   C74   S    
C37   O32   S    
C29   C48   S    
C10   C44   S    
C30   C47   S    
C19   C22   S    
H11   O36   S    
C38   C41   S    
C39   C40   S    
C5    C7    S    
C39   C43   S    
C15   O26   S    
C44   O9    A    
H10   O35   S    
C49   O14   A    
O7    Zn3   S    
C3    C45   S    
H21   O24   S    
C44   O40   A    
C25   O27   S    
C24   H12   S    
C51   C53   S    
O34   Zn2   S    
C15   C19   S    
C36   O31   S    
C19   C21   S    
C54   O21   S    
C50   O19   A    
O19   Zn2   S    
C23   C51   S    
C7    C13   S    
O41   Zn8   S    
H7    O31   S    
C12   C20   S    
C67   O36   S    
H14   O38   S    
C46   O10   A    
C35   C61   S    
C67   C74   S    
C66   N14   T    
C23   C55   S    
C45   H16   S    
C9    C11   S    
C65   N13   T    
C2    C73   S    
C41   O34   A    
C69   N3    T    
C8    C10   S    
C23   C64   S    
C13   C72   S    
C20   C22   S    
C8    C68   S    
C33   C60   S    
C16   O44   A    
C17   C74   S    
O8    Zn4   S    
C63   N11   T    
C47   O16   A    
C16   O5    A    
C61   N9    T    
C23   C54   S    
O14   Zn7   S    
C28   C59   S    
C25   C30   S    
C7    C9    S    
O40   Zn7   S    
O42   Zn3   S    
C15   C24   S    
C56   C73   S    
O2    Zn6   S    
O5    Zn1   S    
C27   C32   S    
O23   Zn1   S    
O12   Zn2   S    
C28   C31   S    
C26   O28   S    
C10   C13   S    
C4    C67   S    
C6    C8    S    
C5    C11   S    
C62   N10   T    
O13   Zn4   S    
C51   O33   S    
C2    C16   S    
C25   C27   S    
C40   O23   A    
C26   C28   S    
C50   C55   S    
O12   Zn8   S    
C59   N7    T    
C14   C22   S    
C36   C38   S    
O1    Zn3   S    
O44   Zn5   S    
C29   C31   S    
H6    O30   S    
C6    C13   S    
C30   C32   S    
C72   N6    T    
C27   C58   S    
C8    C11   S    
C2    C4    S    
C28   C30   S    
C46   O41   A    
C18   C20   S    
C3    C73   S    
H20   O22   S    
O6    Zn2   S    
C47   O11   A    
O3    Zn7   S    
C38   C42   S    
C3    O38   S    
C17   O6    A    
C34   C53   S    
O9    Zn5   S    
C21   C24   S    
O10   Zn6   S    
O12   Zn6   S    
C35   C38   S    
H9    O33   S    
C68   N2    T    
C53   O20   S    
H19   O21   S    
O1    Zn1   S    
O17   Zn6   S    
C31   O29   S    
C48   O17   A    
C54   C57   S    
C7    C66   S    
