data_mof_unit_27740.cif
_audit_creation_date              2012-12-11T15:44:53-0500
_audit_creation_method            fapswitch 2.2
_symmetry_space_group_name_H-M    P1
_symmetry_Int_Tables_number       1
_space_group_crystal_system       triclinic
_cell_length_a                    19.413526
_cell_length_b                    10.889842
_cell_length_c                    18.642372
_cell_angle_alpha                 90.328163
_cell_angle_beta                  90.07675
_cell_angle_gamma                 89.854164
_cell_volume                      3941.10729692

loop_
_atom_site_label
_atom_site_type_symbol
_atom_type_description
_atom_site_fract_x
_atom_site_fract_y
_atom_site_fract_z
_atom_type_partial_charge
C1    C     C_R   0.761478 0.534631 0.646310 0.522411
C2    C     C_R   0.177057 0.122919 0.561158 0.117515
C3    C     C_R   0.517214 0.949926 0.958755 0.027453
C4    C     C_R   0.014061 0.228244 0.956466 -0.166632
C5    C     C_R   0.018194 0.227554 0.031441 -0.159985
C6    C     C_R   0.514061 0.728244 0.956466 -0.166631
C7    C     C_R   0.518194 0.727554 0.031442 -0.159986
C8    C     C_3   0.981453 0.564962 0.041372 -0.283446
C9    C     C_3   0.977340 0.568527 0.960584 -0.269115
C10   C     C_3   0.481453 0.064961 0.041372 -0.283447
C11   C     C_3   0.477340 0.068527 0.960584 -0.269114
C12   C     C_R   0.760071 0.533689 0.851432 0.537209
C13   C     C_R   0.316419 0.646483 0.437046 0.130851
C14   C     C_R   0.226832 0.484156 0.140451 0.563342
C15   C     C_R   0.260071 0.033689 0.851432 0.537208
C16   C     C_R   0.726832 0.984156 0.140451 0.563337
C17   C     C_R   0.772343 0.123528 0.852071 0.551221
C18   C     C_R   0.225813 0.129430 0.145578 0.544606
C19   C     C_R   0.272343 0.623528 0.852071 0.551220
C20   C     C_R   0.725813 0.629430 0.145578 0.544617
C21   C     C_R   0.971489 0.346832 0.852407 0.543932
C22   C     C_R   0.031839 0.346330 0.145073 0.541247
C23   C     C_R   0.471489 0.846832 0.852407 0.543932
C24   C     C_R   0.677063 0.622922 0.561156 0.117509
C25   C     C_R   0.531839 0.846330 0.145073 0.541240
C26   C     C_R   0.750686 0.108072 0.418040 0.021846
C27   C     C_R   0.245010 0.113757 0.585410 0.022626
C28   C     C_R   0.250691 0.608062 0.418041 0.021884
C29   C     C_R   0.745016 0.613752 0.585407 0.022631
C30   C     C_R   0.696375 0.154069 0.459385 0.022100
C31   C     C_R   0.295498 0.165416 0.542413 -0.014398
C32   C     C_R   0.196384 0.654095 0.459377 0.022095
C33   C     C_R   0.795504 0.665409 0.542410 -0.014375
C34   C     C_R   0.710052 0.181852 0.532624 0.029884
C35   C     C_3   0.671251 0.282448 0.446028 -0.266329
C36   C     C_R   0.282350 0.194732 0.471611 0.027130
C37   C     C_R   0.210057 0.681876 0.532617 0.029888
C38   C     C_R   0.782353 0.694733 0.471609 0.027148
C39   C     C_3   0.850576 0.322643 0.368599 -0.318078
C40   C     C_3   0.123854 0.188110 0.673684 -0.278614
C41   C     C_3   0.350406 0.822416 0.368376 -0.318061
C42   C     C_3   0.623866 0.688132 0.673680 -0.278644
C43   C     C_3   0.367618 0.129627 0.528259 -0.256416
C44   C     C_3   0.171283 0.782482 0.446009 -0.266360
C45   C     C_3   0.867624 0.629619 0.528252 -0.256429
C46   C     C_3   0.686029 0.311884 0.522524 -0.243252
C47   C     C_3   0.354384 0.164432 0.450475 -0.262333
C48   C     C_3   0.186051 0.811915 0.522509 -0.243260
C49   C     C_R   0.238229 0.534852 0.353801 0.540992
C50   C     C_3   0.854387 0.664441 0.450471 -0.262357
C51   C     C_R   0.776329 0.158145 0.560529 -0.029321
C52   C     C_R   0.219532 0.162394 0.439732 -0.031047
C53   C     C_R   0.276328 0.658142 0.560530 -0.029330
C54   C     C_R   0.719535 0.662394 0.439731 -0.031046
C55   C     C_R   0.008752 0.338406 0.430288 -0.025311
C56   C     C_R   0.010436 0.322994 0.580381 -0.022489
C57   C     C_R   0.508736 0.838396 0.430283 -0.025185
C58   C     C_R   0.510434 0.822991 0.580379 -0.022484
C59   C     C_R   0.987810 0.111898 0.422744 -0.063067
C60   C     C_R   0.261476 0.034635 0.646312 0.522406
C61   C     C_R   0.986075 0.097030 0.570565 -0.071995
C62   C     C_R   0.487842 0.611868 0.422750 -0.063169
C63   C     C_R   0.486084 0.597025 0.570571 -0.072013
C64   C     C_R   0.974167 0.000763 0.455498 -0.125529
C65   C     C_R   0.973325 0.993182 0.529313 -0.139172
C66   C     C_R   0.474195 0.500738 0.455508 -0.125569
C67   C     C_R   0.473341 0.493170 0.529324 -0.139152
C68   C     C_R   0.999984 0.213592 0.538987 0.017938
C69   C     C_R   0.999737 0.221462 0.463114 0.003995
C70   C     C_R   0.499987 0.713585 0.538988 0.017942
C71   C     C_R   0.738227 0.034850 0.353804 0.540932
C72   C     C_R   0.499741 0.721448 0.463114 0.004070
C73   C     C_R   0.033500 0.429087 0.546974 0.005016
C74   C     C_R   0.017794 0.444563 0.474433 0.007184
C75   C     C_R   0.533492 0.929081 0.546968 0.005001
C76   C     C_R   0.517775 0.944554 0.474428 0.007231
C77   C     C_R   0.790620 0.172066 0.638257 0.559043
C78   C     C_R   0.209041 0.171866 0.361461 0.562898
C79   C     C_R   0.290619 0.672065 0.638258 0.559042
C80   C     C_R   0.709042 0.671865 0.361461 0.562889
C81   C     C_R   0.058421 0.528864 0.587907 -0.061180
C82   C     C_R   0.829525 0.167734 0.510388 -0.120945
C83   C     C_R   0.009697 0.566684 0.450004 -0.078818
C84   C     C_R   0.558412 0.028861 0.587898 -0.061180
C85   C     C_R   0.509672 0.066672 0.449999 -0.078799
C86   C     C_R   0.049112 0.647340 0.563544 -0.103692
C87   C     C_R   0.023537 0.666001 0.495010 -0.145071
C88   C     C_R   0.549087 0.147336 0.563538 -0.103692
C89   C     C_R   0.523506 0.165989 0.495006 -0.145090
C90   C     C_R   0.731525 0.007860 0.063759 0.013820
C91   C     C_R   0.244863 0.089717 0.920356 0.015144
C92   C     C_R   0.231525 0.507860 0.063759 0.013819
C93   C     C_R   0.165039 0.134825 0.486693 -0.138746
C94   C     C_R   0.744863 0.589718 0.920356 0.015144
C95   C     C_R   0.788354 0.963315 0.026093 0.028983
C96   C     C_R   0.185610 0.052575 0.957287 0.029375
C97   C     C_R   0.288354 0.463315 0.026093 0.028984
C98   C     C_R   0.685610 0.552576 0.957287 0.029374
C99   C     C_R   0.797228 0.990055 0.954797 0.031231
C100  C     C_R   0.182358 0.061574 0.030359 0.041047
C101  C     C_R   0.297228 0.490055 0.954797 0.031231
C102  C     C_R   0.682358 0.561575 0.030358 0.041046
C103  C     C_R   0.687459 0.093881 0.952082 -0.168709
C104  C     C_R   0.329530 0.667686 0.510397 -0.120930
C105  C     C_R   0.292183 0.162650 0.033087 -0.165119
C106  C     C_R   0.187459 0.593881 0.952082 -0.168709
C107  C     C_R   0.792183 0.662651 0.033087 -0.165119
C108  C     C_R   0.678579 0.066621 0.025098 -0.159734
C109  C     C_R   0.295043 0.156687 0.958045 -0.163825
C110  C     C_R   0.178579 0.566621 0.025098 -0.159735
C111  C     C_R   0.795043 0.656688 0.958045 -0.163825
C112  C     C_3   0.863456 0.977877 0.042453 -0.270068
C113  C     C_3   0.147509 0.932517 0.958112 -0.266498
C114  C     C_3   0.363456 0.477877 0.042452 -0.270069
C115  C     C_R   0.665044 0.634826 0.486693 -0.138756
C116  C     C_3   0.647509 0.432518 0.958112 -0.266499
C117  C     C_3   0.873397 0.005587 0.964037 -0.269915
C118  C     C_3   0.144144 0.944029 0.038772 -0.277255
C119  C     C_3   0.373397 0.505587 0.964037 -0.269915
C120  C     C_3   0.644144 0.444029 0.038771 -0.277253
C121  C     C_R   0.749977 0.064232 0.918057 0.013278
C122  C     C_R   0.237503 0.106859 0.070057 0.013115
C123  C     C_R   0.249977 0.564232 0.918057 0.013278
C124  C     C_R   0.737503 0.606860 0.070057 0.013117
C125  C     C_R   0.972986 0.342821 0.648326 0.510335
C126  C     C_R   0.816408 0.146543 0.437034 0.130926
C127  C     C_R   0.030490 0.346341 0.354666 0.529784
C128  C     C_R   0.472985 0.842821 0.648325 0.510342
C129  C     C_R   0.530480 0.846337 0.354662 0.529766
C130  C     C_R   0.015728 0.339286 0.069758 0.018337
C131  C     C_R   0.006687 0.340718 0.920456 0.017750
C132  C     C_R   0.515728 0.839286 0.069759 0.018337
C133  C     C_R   0.506687 0.840718 0.920456 0.017750
C134  C     C_R   0.020391 0.448172 0.031722 0.031586
C135  C     C_R   0.017214 0.449926 0.958755 0.027453
C136  C     C_R   0.520391 0.948172 0.031722 0.031587
Cr1   Cr    Cr6+3 0.885860 0.491680 0.749630 0.995978
Cr2   Cr    Cr6+3 0.112430 0.179310 0.249850 0.987239
Cr3   Cr    Cr6+3 0.387570 0.679310 0.750150 0.982100
Cr4   Cr    Cr6+3 0.612430 0.679310 0.249850 0.987230
Cr5   Cr    Cr6+3 0.114140 0.491680 0.250370 1.000365
Cr6   Cr    Cr6+3 0.385860 0.991680 0.749630 0.995978
Cr7   Cr    Cr6+3 0.614140 0.991680 0.250370 1.000378
Cr8   Cr    Cr6+3 0.730490 0.332970 0.748720 0.984870
Cr9   Cr    Cr6+3 0.269510 0.332970 0.251280 0.991187
Cr10  Cr    Cr6+3 0.230490 0.832970 0.748720 0.984873
Cr11  Cr    Cr6+3 0.769510 0.832970 0.251280 0.991210
Cr12  Cr    Cr6+3 0.887570 0.179310 0.750150 0.982099
H1    H     H_    0.876598 0.206505 0.527670 0.137076
H2    H     H_    0.333106 0.207896 0.062136 0.128573
H3    H     H_    0.148247 0.646284 0.924424 0.121303
H4    H     H_    0.833106 0.707896 0.062136 0.128574
H5    H     H_    0.632820 0.098763 0.052204 0.139702
H6    H     H_    0.338744 0.195643 0.930460 0.122763
H7    H     H_    0.132820 0.598763 0.052204 0.139701
H8    H     H_    0.838744 0.695643 0.930460 0.122763
H9    H     H_    0.888880 0.891238 0.059078 0.126765
H10   H     H_    0.179872 0.853710 0.940779 0.168283
H11   H     H_    0.388880 0.391238 0.059078 0.126764
H12   H     H_    0.115052 0.117059 0.465259 0.155203
H13   H     H_    0.679873 0.353711 0.940779 0.168283
H14   H     H_    0.874423 0.058261 0.077728 0.152760
H15   H     H_    0.096190 0.938963 0.931832 0.124869
H16   H     H_    0.374423 0.558261 0.077728 0.152758
H17   H     H_    0.596190 0.438963 0.931832 0.124870
H18   H     H_    0.890263 0.101513 0.954800 0.160833
H19   H     H_    0.090975 0.957991 0.059204 0.134060
H20   H     H_    0.390263 0.601513 0.954800 0.160833
H21   H     H_    0.590975 0.457991 0.059204 0.134059
H22   H     H_    0.903329 0.933732 0.935017 0.129280
H23   H     H_    0.376606 0.706434 0.527681 0.137146
H24   H     H_    0.174675 0.872669 0.067212 0.142940
H25   H     H_    0.403328 0.433732 0.935016 0.129280
H26   H     H_    0.674676 0.372671 0.067212 0.142947
H27   H     H_    0.010091 0.141771 0.927810 0.121279
H28   H     H_    0.021026 0.140711 0.059182 0.129223
H29   H     H_    0.510091 0.641771 0.927810 0.121279
H30   H     H_    0.521025 0.640711 0.059182 0.129223
H31   H     H_    0.013333 0.639915 0.064550 0.134382
H32   H     H_    0.923886 0.557470 0.941065 0.170620
H33   H     H_    0.513333 0.139915 0.064550 0.134383
H34   H     H_    0.615058 0.617062 0.465260 0.155210
H35   H     H_    0.423887 0.057471 0.941065 0.170620
H36   H     H_    0.930769 0.550906 0.067736 0.137315
H37   H     H_    0.006509 0.645981 0.936783 0.124531
H38   H     H_    0.430769 0.050906 0.067736 0.137312
H39   H     H_    0.506510 0.145981 0.936783 0.124531
H40   H     H_    0.116599 0.787917 0.430533 0.142834
H41   H     H_    0.877062 0.529746 0.535902 0.149036
H42   H     H_    0.616564 0.287862 0.430561 0.142835
H43   H     H_    0.377057 0.029757 0.535914 0.149110
H44   H     H_    0.704093 0.335660 0.408879 0.140845
H45   H     H_    0.058078 0.723889 0.599431 0.097405
H46   H     H_    0.403072 0.192446 0.557159 0.155158
H47   H     H_    0.204146 0.835672 0.408866 0.140858
H48   H     H_    0.903083 0.692430 0.557153 0.155165
H49   H     H_    0.728707 0.379031 0.527958 0.134351
H50   H     H_    0.383008 0.247491 0.433539 0.138882
H51   H     H_    0.228734 0.879048 0.527954 0.134329
H52   H     H_    0.883011 0.747504 0.433542 0.138883
H53   H     H_    0.639836 0.337073 0.553793 0.140993
H54   H     H_    0.357322 0.086140 0.412325 0.129094
H55   H     H_    0.139852 0.837116 0.553767 0.140993
H56   H     H_    0.012729 0.757522 0.477038 0.090682
H57   H     H_    0.857326 0.586165 0.412312 0.129118
H58   H     H_    0.962267 0.921284 0.422819 0.097350
H59   H     H_    0.962549 0.906645 0.555148 0.102266
H60   H     H_    0.462302 0.421256 0.422829 0.097316
H61   H     H_    0.462564 0.406638 0.555162 0.102263
H62   H     H_    0.982130 0.109860 0.365362 0.155316
H63   H     H_    0.988840 0.080274 0.627323 0.152940
H64   H     H_    0.482183 0.609804 0.365367 0.155193
H65   H     H_    0.488849 0.580277 0.627330 0.152935
H66   H     H_    0.986364 0.588074 0.399000 0.136167
H67   H     H_    0.558041 0.223886 0.599427 0.097391
H68   H     H_    0.076466 0.515964 0.642408 0.121951
H69   H     H_    0.486339 0.088057 0.398994 0.136163
H70   H     H_    0.576464 0.015964 0.642397 0.121952
H71   H     H_    0.861727 0.142438 0.336390 0.264756
H72   H     H_    0.891418 0.355232 0.331921 0.147308
H73   H     H_    0.853078 0.376477 0.419277 0.144323
H74   H     H_    0.800415 0.337956 0.341498 0.146715
H75   H     H_    0.107313 0.020792 0.619355 0.258472
H76   H     H_    0.074829 0.179828 0.703588 0.139212
H77   H     H_    0.131408 0.285562 0.658386 0.145589
H78   H     H_    0.512690 0.257506 0.477036 0.090678
H79   H     H_    0.165601 0.160942 0.710894 0.160104
H80   H     H_    0.361915 0.642123 0.336508 0.264770
H81   H     H_    0.391337 0.855107 0.331843 0.147340
H82   H     H_    0.352583 0.876494 0.418972 0.144362
H83   H     H_    0.300319 0.837268 0.341036 0.146727
H84   H     H_    0.607319 0.520808 0.619363 0.258487
H85   H     H_    0.574834 0.679887 0.703575 0.139220
H86   H     H_    0.631441 0.785575 0.658378 0.145598
H87   H     H_    0.665602 0.660940 0.710898 0.160112
H88   H     H_    0.648247 0.146284 0.924424 0.121303
N1    N     N_2   0.860456 0.193504 0.383074 -0.527917
N2    N     N_2   0.121748 0.110244 0.610046 -0.516359
N3    N     N_2   0.360487 0.693417 0.383100 -0.527938
N4    N     N_2   0.621755 0.610256 0.610047 -0.516361
O1    O     O_R   0.957020 0.451640 0.669920 -0.516915
O2    O     O_R   0.168040 0.093290 0.169870 -0.512909
O3    O     O_R   0.331960 0.593290 0.830130 -0.516976
O4    O     O_R   0.668040 0.593290 0.169870 -0.512903
O5    O     O_R   0.945600 0.250580 0.824860 -0.513545
O6    O     O_R   0.054400 0.250580 0.175140 -0.508933
O7    O     O_R   0.445600 0.750580 0.824860 -0.513544
O8    O     O_R   0.554400 0.750580 0.175140 -0.508938
O9    O     O_3   0.834640 0.334650 0.749500 -0.259932
O10   O     O_3   0.165360 0.334650 0.250500 -0.282468
O11   O     O_3   0.334640 0.834650 0.749500 -0.259930
O12   O     O_R   0.042980 0.451640 0.330080 -0.527243
O13   O     O_3   0.665360 0.834650 0.250500 -0.282467
O14   O     O_R   0.821450 0.543440 0.674610 -0.502197
O15   O     O_R   0.178550 0.543440 0.325390 -0.493708
O16   O     O_R   0.321450 0.043440 0.674610 -0.502201
O17   O     O_R   0.678550 0.043440 0.325390 -0.493695
O18   O     O_R   0.715320 0.458650 0.668100 -0.536589
O19   O     O_R   0.284680 0.458650 0.331900 -0.526601
O20   O     O_R   0.215320 0.958650 0.668100 -0.536578
O21   O     O_R   0.784680 0.958650 0.331900 -0.526556
O22   O     O_R   0.737170 0.209590 0.674530 -0.495035
O23   O     O_R   0.457020 0.951640 0.669920 -0.516912
O24   O     O_R   0.262830 0.209590 0.325470 -0.495449
O25   O     O_R   0.237170 0.709590 0.674530 -0.495034
O26   O     O_R   0.762830 0.709590 0.325470 -0.495451
O27   O     O_R   0.832710 0.092740 0.669580 -0.510433
O28   O     O_R   0.167290 0.092740 0.330420 -0.526413
O29   O     O_R   0.332710 0.592740 0.669580 -0.510438
O30   O     O_R   0.667290 0.592740 0.330420 -0.526414
O31   O     O_R   0.946290 0.250060 0.676040 -0.539656
O32   O     O_R   0.053710 0.250060 0.323960 -0.526502
O33   O     O_R   0.446290 0.750060 0.676040 -0.539661
O34   O     O_R   0.542980 0.951640 0.330080 -0.527234
O35   O     O_R   0.553710 0.750060 0.323960 -0.526513
O36   O     O_R   0.956270 0.452200 0.830470 -0.524303
O37   O     O_R   0.043730 0.452200 0.169530 -0.525460
O38   O     O_R   0.456270 0.952200 0.830470 -0.524303
O39   O     O_R   0.543730 0.952200 0.169530 -0.525463
O40   O     O_R   0.820760 0.543950 0.823440 -0.507481
O41   O     O_R   0.179240 0.543950 0.176560 -0.509262
O42   O     O_R   0.320760 0.043950 0.823440 -0.507482
O43   O     O_R   0.679240 0.043950 0.176560 -0.509255
O44   O     O_R   0.714570 0.459210 0.828640 -0.526250
O45   O     O_R   0.736470 0.210100 0.823360 -0.504543
O46   O     O_R   0.285430 0.459210 0.171360 -0.523741
O47   O     O_R   0.214570 0.959210 0.828640 -0.526250
O48   O     O_R   0.785430 0.959210 0.171360 -0.523747
O49   O     O_R   0.263530 0.210100 0.176640 -0.516681
O50   O     O_R   0.236470 0.710100 0.823360 -0.504543
O51   O     O_R   0.763530 0.710100 0.176640 -0.516681
O52   O     O_R   0.831960 0.093290 0.830130 -0.516976

loop_
_geom_bond_atom_site_label_1
_geom_bond_atom_site_label_2
_ccdc_geom_bond_type
Cr1   O40   S    
C103  H88   S    
C33   C45   S    
C74   C83   A    
C25   O39   A    
Cr3   O7    S    
C22   O37   A    
C90   C95   A    
Cr2   O32   S    
Cr3   O29   S    
C48   H55   S    
C35   H44   S    
C125  O31   A    
C43   H46   S    
C57   C76   A    
C86   H45   S    
C49   O15   A    
C95   C99   A    
C81   H68   S    
C29   C33   A    
C94   C111  A    
C36   C47   S    
C26   C126  A    
C91   C96   A    
C55   C74   A    
C117  H22   S    
C108  H5    S    
C41   H83   S    
C47   H50   S    
C15   O47   A    
Cr6   O11   S    
C12   O40   A    
C81   C86   A    
C24   N4    S    
C59   H62   S    
C19   O3    A    
C99   C121  A    
Cr1   O1    S    
C22   C130  S    
C26   C71   S    
C129  O34   A    
C130  C134  A    
C107  C124  A    
C73   C81   A    
C23   O38   A    
C48   H51   S    
C27   C31   A    
C28   C32   A    
C42   N4    S    
C58   C70   A    
Cr11  O51   S    
C98   C102  A    
Cr4   O4    S    
C101  C119  S    
C75   C76   A    
Cr2   O6    S    
Cr9   O10   S    
C117  H18   S    
Cr9   O24   S    
C1    C29   S    
C109  H6    S    
C7    C132  A    
C84   H70   S    
C12   O44   A    
C104  H23   S    
C5    C130  A    
C35   H42   S    
C6    H29   S    
C5    H28   S    
Cr6   O23   S    
C103  C121  A    
C21   O36   A    
C87   H56   S    
C1    O14   A    
C1    O18   A    
C56   C73   A    
C78   O24   A    
C84   C88   A    
C4    C5    A    
C6    C7    A    
Cr7   O43   S    
C33   C38   A    
Cr10  O11   S    
C95   C112  S    
C60   O20   A    
Cr6   O42   S    
C83   H66   S    
H71   N1    S    
C45   C50   S    
Cr12  O5    S    
C67   H61   S    
C128  O33   A    
C3    C11   S    
C15   C91   S    
C61   C65   A    
C88   C89   A    
C62   H64   S    
C31   C36   A    
Cr4   O13   S    
C43   C47   S    
C76   C85   A    
C44   C48   S    
Cr8   O9    S    
C58   C128  S    
Cr9   O19   S    
Cr10  O20   S    
C89   H78   S    
C30   C34   A    
C13   N3    S    
C19   C123  S    
C34   C51   A    
C79   O29   A    
C31   C43   S    
C80   O26   A    
Cr12  O27   S    
C120  H21   S    
C113  H15   S    
C53   C104  A    
C118  H19   S    
C60   O16   A    
Cr6   O16   S    
C3    C136  A    
C28   C49   S    
C128  O23   A    
C40   N2    S    
C110  H7    S    
C46   H53   S    
C82   C126  A    
C19   O50   A    
Cr7   O34   S    
C39   H74   S    
C34   C46   S    
Cr11  O21   S    
Cr3   O3    S    
C114  C119  S    
C36   C52   A    
C37   C53   A    
C45   H48   S    
C66   C67   A    
C92   C97   A    
C14   O41   A    
C62   C66   A    
C8    C134  S    
C116  H13   S    
C22   O6    A    
C56   C68   A    
Cr11  O13   S    
C116  C120  S    
C47   H54   S    
Cr10  O25   S    
C18   C122  S    
C99   C117  S    
C42   H87   S    
C114  H16   S    
C132  C136  A    
C52   C93   A    
C32   C37   A    
C55   C69   A    
C9    C135  S    
C120  H26   S    
C55   C127  S    
C26   C30   A    
C107  H4    S    
C39   N1    S    
C115  H34   S    
C10   H33   S    
C105  C109  A    
Cr4   O8    S    
C107  C111  A    
C41   H81   S    
Cr2   O10   S    
C134  C135  A    
C65   H59   S    
C71   O17   A    
C90   C108  A    
C126  N1    S    
C92   C110  A    
C14   O46   A    
C96   C100  A    
C10   H38   S    
C105  C122  A    
C23   O7    A    
C20   C124  S    
C82   H1    S    
C10   C11   S    
C25   O8    A    
C41   H82   S    
Cr7   O13   S    
Cr3   O33   S    
C15   O42   A    
C97   C114  S    
C25   C132  S    
C83   C87   A    
C16   C90   S    
C88   H67   S    
C73   C74   A    
Cr7   O17   S    
Cr8   O22   S    
Cr6   O38   S    
C105  H2    S    
Cr12  O9    S    
Cr4   O35   S    
C6    C133  A    
C27   C60   S    
C112  C117  S    
C42   H85   S    
C102  C124  A    
C94   C98   A    
C49   O19   A    
Cr12  O52   S    
C127  O12   A    
C24   C29   A    
C21   C131  S    
C68   C69   A    
C13   C28   A    
C2    C27   A    
Cr1   O14   S    
C18   O2    A    
Cr5   O10   S    
Cr12  O31   S    
C12   C94   S    
Cr11  O26   S    
C52   C78   S    
C54   C80   S    
C112  H9    S    
C77   O22   A    
C85   C89   A    
C86   C87   A    
C46   H49   S    
C64   H58   S    
C7    H30   S    
C93   H12   S    
C51   C77   S    
C66   H60   S    
C38   C54   A    
C118  H24   S    
C54   C115  A    
C56   C125  S    
C13   C104  A    
Cr5   O41   S    
Cr9   O49   S    
C17   C121  S    
C116  H17   S    
C129  O35   A    
C100  C118  S    
C102  C120  S    
C41   N3    S    
C20   O4    A    
C44   H47   S    
C106  H3    S    
Cr1   O9    S    
C17   O52   A    
Cr1   O36   S    
C131  C135  A    
C64   C65   A    
C16   O43   A    
C119  H25   S    
C8    H31   S    
Cr2   O28   S    
Cr4   O30   S    
C57   C72   A    
C75   C84   A    
Cr5   O12   S    
C39   H73   S    
C35   C46   S    
C119  H20   S    
C71   O21   A    
C42   H86   S    
C59   C64   A    
C101  C123  A    
C30   C35   S    
C40   H76   S    
C11   H39   S    
C57   C129  S    
C53   C79   S    
C10   C136  S    
C9    H37   S    
C61   H63   S    
C40   H77   S    
C85   H69   S    
C8    C9    S    
C106  C123  A    
Cr8   O44   S    
C125  O1    A    
C103  C108  A    
Cr10  O47   S    
C113  H10   S    
C16   O48   A    
Cr8   O18   S    
C111  H8    S    
C80   O30   A    
Cr2   O2    S    
C8    H36   S    
C43   H43   S    
C58   C75   A    
C4    C131  A    
C18   O49   A    
C63   C67   A    
C23   C133  S    
Cr5   O15   S    
C39   H72   S    
C11   H35   S    
H80   N3    S    
C50   H52   S    
C2    N2    S    
C21   O5    A    
C4    H27   S    
C77   O27   A    
C3    C133  A    
C78   O28   A    
Cr9   O46   S    
C17   O45   A    
C98   C116  S    
C63   C70   A    
Cr7   O39   S    
C32   C44   S    
C62   C72   A    
C63   H65   S    
C37   C48   S    
C51   C82   A    
C14   C92   S    
C9    H32   S    
C44   H40   S    
Cr11  O48   S    
C45   H41   S    
C59   C69   A    
C127  O32   A    
C106  C110  A    
Cr8   O45   S    
C20   O51   A    
C2    C93   A    
Cr3   O11   S    
H75   N2    S    
C38   C50   S    
C112  H14   S    
C91   C109  A    
C40   H79   S    
Cr5   O37   S    
Cr10  O50   S    
C61   C68   A    
C79   O25   A    
C100  C122  A    
C96   C113  S    
C114  H11   S    
C113  C118  S    
C50   H57   S    
C24   C115  A    
H84   N4    S    
C70   C72   A    
C97   C101  A    
