data_mof_unit_28357.cif
_audit_creation_date              2013-03-05T16:48:30-0500
_audit_creation_method            fapswitch 2.2
_symmetry_space_group_name_H-M    P1
_symmetry_Int_Tables_number       1
_space_group_crystal_system       triclinic
_cell_length_a                    10.812199
_cell_length_b                    14.757934
_cell_length_c                    14.963928
_cell_angle_alpha                 63.762953
_cell_angle_beta                  104.777536
_cell_angle_gamma                 103.218994
_cell_volume                      2052.30980956

loop_
_atom_site_label
_atom_site_type_symbol
_atom_site_description
_atom_site_fract_x
_atom_site_fract_y
_atom_site_fract_z
_atom_type_partial_charge
O1    O     O_R   0.455540 0.022090 0.338120 -0.591504
O2    O     O_R   0.544460 0.977910 0.661880 -0.592372
O3    O     O_R   0.512510 0.160150 0.379180 -0.559918
O4    O     O_R   0.487490 0.839850 0.620820 -0.539453
C1    C     C_R   0.473897 0.120531 0.312481 0.814933
C2    C     C_R   0.523437 0.879577 0.687433 0.833572
O5    O     O_R   0.291160 0.930970 0.479480 -0.540534
O6    O     O_R   0.708840 0.069030 0.520520 -0.545212
O7    O     O_R   0.348130 0.069020 0.520540 -0.626452
O8    O     O_R   0.651870 0.930980 0.479460 -0.549569
C3    C     C_R   0.262777 0.999721 0.500541 0.871983
C4    C     C_R   0.737100 0.000509 0.499340 0.894491
Cu1   Cu    Cu3+1 0.466270 0.918260 0.475690 1.013203
Cu2   Cu    Cu3+1 0.533730 0.081740 0.524310 0.978917
C5    C     C_R   0.360987 0.995323 0.803121 -0.255414
C6    C     C_R   0.647884 0.054856 0.184606 -0.268847
H1    H     H_    0.409995 0.935613 0.866004 0.176907
H2    H     H_    0.609194 0.122950 0.126782 0.171235
C7    C     C_R   0.264069 0.969456 0.733348 -0.180185
C8    C     C_R   0.750155 0.064326 0.259868 -0.195668
H3    H     H_    0.241368 0.890878 0.742148 0.146826
H4    H     H_    0.787474 0.138928 0.260043 0.156063
C9    C     C_R   0.197125 0.044705 0.652493 0.076726
C10   C     C_R   0.802344 0.977887 0.335641 0.051752
C11   C     C_R   0.226531 0.145850 0.642889 -0.286711
C12   C     C_R   0.752912 0.881874 0.334562 -0.247111
H5    H     H_    0.173689 0.203442 0.580099 0.185756
H6    H     H_    0.793650 0.815442 0.394100 0.193139
C13   C     C_R   0.324614 0.173379 0.712240 0.368854
C14   C     C_R   0.648722 0.870743 0.259788 0.387868
C15   C     C_R   0.394144 0.097245 0.792530 0.429435
C16   C     C_R   0.594338 0.958326 0.184656 0.444689
C17   C     C_R   0.965307 0.016160 0.576512 0.370553
C18   C     C_R   0.034194 0.985068 0.422404 0.372722
C19   C     C_R   0.871216 0.001606 0.498139 -0.165269
C20   C     C_R   0.128542 0.999897 0.500866 -0.168284
C21   C     C_R   0.904045 0.987166 0.420245 -0.132856
C22   C     C_R   0.095759 0.018583 0.576373 -0.140060
C23   C     C_R   0.436378 0.190070 0.206123 -0.135076
C24   C     C_R   0.536958 0.810684 0.795176 -0.123950
C25   C     C_R   0.300383 0.222847 0.040876 0.364286
C26   C     C_R   0.620887 0.780187 0.971368 0.370149
C27   C     C_R   0.349762 0.154622 0.137928 -0.246574
C28   C     C_R   0.606950 0.845667 0.868730 -0.256404
C29   C     C_R   0.474655 0.294610 0.176737 -0.199643
C30   C     C_R   0.480305 0.709125 0.824255 -0.224639
C31   C     C_R   0.417743 0.365771 0.084190 0.029036
C32   C     C_R   0.480738 0.643624 0.926680 0.035361
C33   C     C_R   0.334207 0.329566 0.013408 -0.048845
C34   C     C_R   0.555939 0.678979 0.000980 -0.059328
C35   C     C_R   0.446571 0.472428 0.059204 -0.080482
C36   C     C_R   0.415488 0.541621 0.957143 -0.060319
C37   C     C_R   0.318676 0.505402 0.891288 0.380732
C38   C     C_R   0.502475 0.513277 0.132801 0.357461
C39   C     C_R   0.281215 0.400871 0.919572 -0.099356
C40   C     C_R   0.559570 0.613945 0.103165 -0.080325
H7    H     H_    0.206569 0.376798 0.867911 0.219726
H8    H     H_    0.602856 0.641227 0.161666 0.259115
H9    H     H_    0.437594 0.681622 0.765832 0.213517
H10   H     H_    0.549155 0.319709 0.227702 0.219908
H11   H     H_    0.654845 0.923450 0.846069 0.193845
H12   H     H_    0.319612 0.073510 0.160335 0.198828
N1    N     N_R   0.584450 0.204570 0.560790 -0.231722
N2    N     N_R   0.415550 0.795430 0.439210 -0.207341
C41   C     C_R   0.731028 0.288389 0.658212 -0.234240
C42   C     C_R   0.269415 0.708708 0.345570 -0.216774
C43   C     C_R   0.685371 0.202505 0.637036 0.038378
C44   C     C_R   0.312436 0.794955 0.365596 0.033871
C45   C     C_R   0.520897 0.288618 0.506632 0.515338
C46   C     C_R   0.483772 0.714649 0.492951 0.540298
C47   C     C_R   0.553006 0.372882 0.533725 -0.010569
C48   C     C_R   0.453208 0.628455 0.467707 -0.079144
C49   C     C_R   0.666667 0.374614 0.605140 0.108047
C50   C     C_R   0.337859 0.624794 0.397531 0.134031
C51   C     C_R   0.478755 0.456319 0.490643 0.161125
C52   C     C_R   0.528989 0.545694 0.509773 0.110473
C53   C     C_R   0.654546 0.549902 0.567215 -0.176198
C54   C     C_R   0.353584 0.451551 0.432917 -0.082079
C55   C     C_R   0.718058 0.464034 0.619043 -0.127477
C56   C     C_R   0.288411 0.535944 0.382668 -0.131350
H13   H     H_    0.810609 0.468906 0.667488 0.158819
H14   H     H_    0.195548 0.530117 0.334858 0.145507
H15   H     H_    0.260349 0.860246 0.325512 0.183034
H16   H     H_    0.734661 0.135742 0.678040 0.184524
H17   H     H_    0.816579 0.287730 0.715038 0.179889
H18   H     H_    0.182773 0.707336 0.290196 0.178082
H19   H     H_    0.707285 0.619169 0.572600 0.188636
H20   H     H_    0.300884 0.382364 0.427446 0.160447
O9    O     O_3   0.491822 0.123125 0.860456 -0.671510
H21   H     H_    0.534474 0.062213 0.907896 0.348893
O10   O     O_3   0.490517 0.948497 0.111961 -0.670565
H22   H     H_    0.460921 0.016028 0.068942 0.338401
N3    N     N_R   0.213916 0.182072 0.973022 0.107167
O11   O     O_R   0.130081 0.102097 0.007793 -0.326847
O12   O     O_R   0.233502 0.212737 0.881286 -0.319206
N4    N     N_R   0.703900 0.817107 0.043499 0.135053
O13   O     O_R   0.792109 0.764009 0.110940 -0.335290
O14   O     O_R   0.709344 0.911487 0.029071 -0.347876
O15   O     O_3   0.247510 0.568716 0.804383 -0.729092
H23   H     H_    0.239450 0.628610 0.815163 0.322704
O16   O     O_3   0.489260 0.461469 0.232767 -0.678355
H24   H     H_    0.405243 0.416825 0.234702 0.354623
O17   O     O_3   0.572590 0.716465 0.576207 -0.713921
H25   H     H_    0.556192 0.649550 0.633056 0.310181
O18   O     O_3   0.442160 0.299149 0.416057 -0.739987
H26   H     H_    0.378617 0.237684 0.427790 0.345313
N5    N     N_R   0.350591 0.277893 0.700999 0.138599
O19   O     O_R   0.455620 0.311094 0.749371 -0.296026
O20   O     O_R   0.266473 0.340332 0.644351 -0.372960
N6    N     N_R   0.599417 0.770625 0.261619 0.125574
O21   O     O_R   0.488134 0.753500 0.208522 -0.320409
O22   O     O_R   0.665332 0.694823 0.318065 -0.373680
O23   O     O_3   0.925256 0.026004 0.652434 -0.720264
H27   H     H_    0.995717 0.017519 0.711370 0.351807
O24   O     O_3   0.074559 0.974015 0.347280 -0.722656
H28   H     H_    0.001168 0.969162 0.293821 0.355496

loop_
_geom_bond_atom_site_label_1
_geom_bond_atom_site_label_2
_geom_bond_distance
_ccdc_geom_bond_type
O5    Cu1   1.962060 S    
C42   C44   1.386220 A    
C29   H10   1.080550 S    
O16   H24   0.991443 S    
C30   H9    1.079071 S    
C18   C21   1.406428 A    
C25   C27   1.401910 A    
C38   O16   1.374945 S    
C7    C9    1.397823 A    
C48   C52   1.440200 A    
C31   C33   1.419427 A    
C37   O15   1.378506 S    
C5    C7    1.394716 A    
N3    O11   1.301436 A    
C14   N6    1.442038 S    
O1    C1    1.308176 A    
N2    C44   1.353955 A    
C3    C20   1.453212 S    
C19   C21   1.412562 A    
C10   C12   1.401123 A    
C54   C56   1.384267 A    
C16   O10   1.380779 S    
O24   H28   0.987710 S    
C42   C50   1.400033 A    
C41   C49   1.401341 A    
C29   C31   1.405101 A    
O4    Cu1   1.937345 S    
C45   C47   1.416996 A    
N6    O21   1.301414 A    
C51   C52   1.429529 A    
C25   N3    1.437281 S    
C8    C10   1.398320 A    
C41   C43   1.392748 A    
N4    O14   1.301230 A    
N5    O19   1.301288 A    
N2    C46   1.365266 A    
C14   C16   1.416308 A    
C6    C8    1.394211 A    
C23   C29   1.394932 A    
C32   C34   1.423803 A    
C43   H16   1.081703 S    
N3    O12   1.299706 A    
C50   C56   1.389676 A    
Cu1   Cu2   2.712669 S    
N5    O20   1.301630 A    
O2    C2    1.306401 A    
C26   C28   1.397024 A    
C25   C33   1.422696 A    
C38   C40   1.386585 A    
C53   C55   1.391493 A    
C11   C13   1.407462 A    
N1    C43   1.357464 A    
C35   C36   1.415758 A    
N1    C45   1.372734 A    
C52   C53   1.413870 A    
C56   H14   1.084354 S    
O10   H22   0.991751 S    
C55   H13   1.084056 S    
C45   O18   1.368045 S    
C46   O17   1.372030 S    
C31   C35   1.424517 A    
C15   O9    1.380421 S    
C18   O24   1.387720 S    
C33   C39   1.402198 A    
C34   C40   1.396359 A    
O5    C3    1.302863 A    
O7    Cu2   1.960808 S    
O15   H23   0.991643 S    
C24   C28   1.396250 A    
O6    C4    1.300187 A    
N4    O13   1.301432 A    
C10   C21   1.484900 S    
C49   C55   1.393526 A    
C36   C37   1.426932 A    
C4    C19   1.451082 S    
C5    C15   1.409873 A    
O7    C3    1.298159 A    
O3    Cu2   1.937345 S    
O8    C4    1.299298 A    
C26   C34   1.419237 A    
O4    C2    1.305086 A    
C8    H4    1.083408 S    
C12   C14   1.408145 A    
C39   H7    1.081032 S    
C2    C24   1.467269 S    
C11   H5    1.083420 S    
C24   C30   1.396568 A    
C37   C39   1.395488 A    
C48   C50   1.418574 A    
C47   C49   1.411646 A    
O23   H27   0.988479 S    
C54   H20   1.076093 S    
C5    H1    1.081091 S    
O6    Cu2   1.962061 S    
C7    H3    1.083354 S    
C44   H15   1.081778 S    
C17   O23   1.387447 S    
O3    C1    1.305409 A    
O8    Cu1   1.960808 S    
C42   H18   1.083866 S    
C23   C27   1.397323 A    
C41   H17   1.083670 S    
C28   H11   1.083702 S    
C6    C16   1.409499 A    
C9    C22   1.485067 S    
O18   H26   0.980500 S    
C12   H6    1.083497 S    
C17   C22   1.403235 A    
C26   N4    1.438621 S    
C35   C38   1.422116 A    
C1    C23   1.472296 S    
C13   C15   1.415296 A    
C47   C51   1.436154 A    
Cu1   N2    2.037703 S    
Cu2   N1    2.037703 S    
C20   C22   1.415214 A    
C17   C19   1.403789 A    
C40   H8    1.078856 S    
C18   C20   1.407520 A    
C9    C11   1.402303 A    
O2    Cu2   1.941562 S    
C51   C54   1.412994 A    
N6    O22   1.301882 A    
C30   C32   1.404274 A    
C32   C36   1.429423 A    
O1    Cu1   1.941562 S    
C53   H19   1.076753 S    
C6    H2    1.082751 S    
O17   H25   0.992174 S    
C13   N5    1.443194 S    
C46   C48   1.427904 A    
O9    H21   0.991493 S    
C27   H12   1.083526 S    
