data_mof_unit_10031.cif
_audit_creation_date              2013-03-05T15:45:41-0500
_audit_creation_method            fapswitch 2.2
_symmetry_space_group_name_H-M    P1
_symmetry_Int_Tables_number       1
_space_group_crystal_system       triclinic
_cell_length_a                    6.945943
_cell_length_b                    16.719013
_cell_length_c                    16.967985
_cell_angle_alpha                 101.260929
_cell_angle_beta                  90.278088
_cell_angle_gamma                 90.493202
_cell_volume                      1932.43032653

loop_
_atom_site_label
_atom_site_type_symbol
_atom_site_description
_atom_site_fract_x
_atom_site_fract_y
_atom_site_fract_z
_atom_type_partial_charge
O1    O     O_R   0.506340 0.439070 0.579550 -0.592856
O2    O     O_R   0.170010 0.404890 0.412100 -0.578491
O3    O     O_R   0.005010 0.560930 0.420450 -0.589496
C1    C     C_R   0.339117 0.382462 0.382856 1.007768
O4    O     O_R   0.176280 0.429360 0.578400 -0.590802
O5    O     O_R   0.011320 0.585570 0.587940 -0.605096
C2    C     C_R   0.344207 0.414023 0.605239 0.955345
O6    O     O_R   0.500030 0.414430 0.412060 -0.595788
O7    O     O_3   0.340950 0.551220 0.502940 -0.284044
V1    V     V_3+5 0.064020 0.490500 0.499460 1.193103
O8    O     O_R   0.681910 0.595110 0.587900 -0.598576
C3    C     C_R   0.851672 0.618053 0.616538 0.987976
O9    O     O_R   0.675640 0.570640 0.421600 -0.596434
C4    C     C_R   0.843645 0.586161 0.394989 0.988215
V2    V     V_3+5 0.564670 0.509500 0.500540 1.179845
O10   O     O_3   0.837610 0.448780 0.497060 -0.272249
C5    C     C_R   0.920658 0.864089 0.168915 -0.312934
C6    C     C_R   0.846005 0.637206 0.332133 -0.179092
C7    C     C_R   0.693946 0.671316 0.212664 0.014932
C8    C     C_R   0.712540 0.619387 0.268547 -0.010444
C9    C     C_R   0.967249 0.706547 0.338993 -0.061637
C10   C     C_R   0.952805 0.759476 0.282349 0.109253
C11   C     C_R   0.811796 0.742569 0.219279 -0.047738
C12   C     C_R   0.795618 0.796470 0.163537 0.268872
C13   C     C_R   0.056994 0.881087 0.231471 -0.006342
C14   C     C_R   0.075197 0.829261 0.287422 0.006969
C15   C     C_3   0.712360 0.781301 0.767266 0.405000
C16   C     C_3   0.806830 0.776759 0.684447 -0.338623
H1    H     H_    0.744313 0.799202 0.632564 0.186361
C17   C     C_3   0.865993 0.688032 0.686609 -0.240870
C18   C     C_3   0.763886 0.691902 0.768467 -0.183804
C19   C     C_3   0.954622 0.724037 0.810683 0.039959
C20   C     C_3   0.059233 0.718040 0.729399 -0.161948
C21   C     C_3   0.995832 0.806529 0.729273 0.404721
C22   C     C_3   0.899432 0.813072 0.811719 -0.382540
H2    H     H_    0.666698 0.644927 0.785168 0.157684
H3    H     H_    0.204086 0.692183 0.714116 0.163618
C23   C     C_3   0.550399 0.283902 0.272908 0.045753
C24   C     C_3   0.498112 0.193603 0.272528 -0.162083
H4    H     H_    0.595828 0.148637 0.291591 0.121852
C25   C     C_3   0.408564 0.187670 0.187203 -0.161021
C26   C     C_3   0.462858 0.277384 0.188792 -0.087053
C27   C     C_3   0.269354 0.306016 0.226975 0.352222
C28   C     C_3   0.213841 0.216924 0.226340 -0.021518
C29   C     C_3   0.299900 0.222651 0.311638 -0.199428
C30   C     C_3   0.355795 0.313049 0.311938 -0.261161
H5    H     H_    0.228560 0.199403 0.361196 0.140685
C31   C     C_R   0.419124 0.140927 0.835043 -0.230316
C32   C     C_R   0.344716 0.364551 0.669100 -0.196189
C33   C     C_R   0.184758 0.329328 0.785883 0.416976
C34   C     C_R   0.205324 0.379406 0.729170 -0.220189
C35   C     C_R   0.468306 0.298473 0.666456 -0.143678
C36   C     C_R   0.453830 0.246745 0.723320 0.001947
C37   C     C_R   0.309762 0.261721 0.784312 0.012494
C38   C     C_R   0.297999 0.209670 0.841905 -0.009084
C39   C     C_R   0.555382 0.126667 0.773544 -0.158482
C40   C     C_R   0.577237 0.178992 0.719058 0.385619
H6    H     H_    0.651442 0.075264 0.769510 0.186274
H7    H     H_    0.106474 0.429536 0.730717 0.153508
H8    H     H_    0.569215 0.285916 0.617382 0.167094
O11   O     O_R   0.266070 0.085680 0.087850 -0.625249
O12   O     O_R   0.590090 0.070660 0.921580 -0.599194
O13   O     O_R   0.754780 0.914400 0.912080 -0.551984
C41   C     C_R   0.421781 0.087529 0.895902 1.023006
O14   O     O_R   0.596110 0.095130 0.087880 -0.616953
O15   O     O_R   0.760850 0.939050 0.079570 -0.577577
C42   C     C_R   0.426700 0.117953 0.116731 0.917251
O16   O     O_R   0.260010 0.061030 0.920360 -0.588434
O17   O     O_3   0.425070 0.948840 0.997010 -0.203710
V3    V     V_3+5 0.702100 0.009490 0.000550 1.236196
O18   O     O_R   0.090200 0.929250 0.078500 -0.578501
C43   C     C_R   0.922382 0.914451 0.105581 1.012418
O19   O     O_R   0.084180 0.904770 0.912200 -0.551459
C44   C     C_R   0.914322 0.882271 0.883017 1.072648
V4    V     V_3+5 0.201420 0.990350 0.999580 1.267434
O20   O     O_3   0.928580 0.051150 0.002990 -0.321652
N1    N     N_R   0.656400 0.782282 0.099569 0.240493
O21   O     O_R   0.710541 0.753007 0.026392 -0.397386
O22   O     O_R   0.481598 0.808722 0.112750 -0.400670
N2    N     N_3   0.028865 0.693853 0.879724 -0.158467
H9    H     H_    0.089263 0.636773 0.858255 0.144985
H10   H     H_    0.140059 0.732662 0.905690 0.191168
N3    N     N_R   0.116784 0.868586 0.704509 0.271266
O23   O     O_R   0.204419 0.852117 0.635772 -0.372012
O24   O     O_R   0.113152 0.943459 0.744118 -0.358511
N4    N     N_3   0.735184 0.322619 0.297974 -0.168190
H11   H     H_    0.790497 0.295421 0.343616 0.130769
H12   H     H_    0.828019 0.308914 0.249408 0.146505
N5    N     N_3   0.551543 0.307296 0.122379 -0.185796
H13   H     H_    0.586443 0.368700 0.142915 0.152396
H14   H     H_    0.681243 0.276434 0.109410 0.145427
N6    N     N_R   0.147753 0.365144 0.198389 0.212366
O25   O     O_R   0.084275 0.350066 0.124702 -0.412857
O26   O     O_R   0.108513 0.434416 0.244981 -0.443610
N7    N     N_3   0.024271 0.181561 0.203597 -0.222467
H15   H     H_    0.027957 0.119857 0.206965 0.118327
H16   H     H_    0.998086 0.185486 0.143801 0.157521
N8    N     N_3   0.173969 0.229882 0.910180 -0.150691
H17   H     H_    0.255970 0.234559 0.962772 0.118049
H18   H     H_    0.071042 0.183527 0.907876 0.173611
N9    N     N_3   0.176283 0.952904 0.238365 -0.204167
H19   H     H_    0.320900 0.935975 0.234556 0.144993
H20   H     H_    0.152083 0.991020 0.293928 0.088351
N10   N     N_R   0.028770 0.346573 0.841415 0.237369
O27   O     O_R   0.013141 0.419297 0.885216 -0.378813
O28   O     O_R   0.881405 0.297084 0.834566 -0.393179
N11   N     N_R   0.728901 0.162845 0.660903 0.228294
O29   O     O_R   0.762747 0.088199 0.624996 -0.363135
O30   O     O_R   0.855334 0.219361 0.655427 -0.399148
N12   N     N_3   0.555027 0.650693 0.148814 -0.152250
H21   H     H_    0.587631 0.593701 0.114103 0.151075
H22   H     H_    0.417781 0.648540 0.173354 0.134883
N13   N     N_3   0.222196 0.847092 0.348325 -0.192857
H23   H     H_    0.356809 0.846122 0.320889 0.120754
H24   H     H_    0.198985 0.904870 0.383359 0.137629
N14   N     N_3   0.595861 0.546782 0.260742 -0.190133
H25   H     H_    0.622389 0.509383 0.205087 0.129271
H26   H     H_    0.450634 0.562857 0.264025 0.134292
N15   N     N_3   0.099384 0.725137 0.405608 -0.186085
H27   H     H_    0.024141 0.728710 0.459404 0.119291
H28   H     H_    0.202220 0.679176 0.400343 0.151342
N16   N     N_R   0.526635 0.818317 0.788090 0.243360
O31   O     O_R   0.496493 0.891728 0.776338 -0.355274
O32   O     O_R   0.414519 0.788091 0.836081 -0.426368

loop_
_geom_bond_atom_site_label_1
_geom_bond_atom_site_label_2
_geom_bond_distance
_ccdc_geom_bond_type
C31   C38   1.416915 A    
C22   C44   1.504292 S    
C33   N10   1.433220 S    
N9    H19   1.044847 S    
C6    C9    1.412911 A    
N11   O30   1.301343 A    
O19   C44   1.301007 A    
C4    C6    1.490471 S    
O2    C1    1.306564 A    
N7    H15   1.044819 S    
C1    O6    1.288931 A    
N10   O28   1.300980 A    
C24   C25   1.557865 S    
C1    C30   1.505486 S    
N1    O21   1.301178 A    
O11   V4    2.008494 S    
O16   V4    1.996578 S    
C33   C37   1.427443 A    
C23   N4    1.456088 S    
C41   O16   1.303407 A    
C16   H1    1.110176 S    
C23   C26   1.532450 S    
O5    C3    1.293349 A    
C17   C18   1.552952 S    
N4    H12   1.039877 S    
C31   C41   1.491273 S    
O14   C42   1.307772 A    
V2    O10   2.153843 S    
C39   C40   1.399304 A    
O12   V3    1.996375 S    
C21   C22   1.538802 S    
C25   C26   1.538539 S    
C29   H5    1.109992 S    
N12   H21   1.044951 S    
O12   C41   1.298006 A    
C35   H8    1.081039 S    
O8    V2    2.012132 S    
O15   C43   1.302625 A    
C7    C8    1.411325 A    
N14   H26   1.045109 S    
C32   C34   1.397456 A    
N11   O29   1.301341 A    
O1    V2    1.990383 S    
N5    H14   1.044911 S    
O7    V1    2.162393 S    
C24   C29   1.570427 S    
C3    C17   1.498649 S    
N15   H28   1.044953 S    
C16   C21   1.543019 S    
N9    H20   1.044952 S    
O9    C4    1.295634 A    
O19   V4    2.012055 S    
C10   C11   1.432262 A    
N10   O27   1.301015 A    
C15   N16   1.450790 S    
C20   C21   1.547637 S    
N1    O22   1.301110 A    
C23   C24   1.548512 S    
C5    C12   1.408103 A    
C15   C18   1.543883 S    
C19   C22   1.537129 S    
C2    C32   1.486058 S    
N2    H10   1.043104 S    
N5    H13   1.043711 S    
C24   H4    1.110006 S    
C8    N14   1.437745 S    
C36   C40   1.417200 A    
N4    H11   1.044898 S    
C15   C22   1.536765 S    
C13   C14   1.410707 A    
C36   C37   1.431173 A    
C20   H3    1.110268 S    
C7    C11   1.425448 A    
V4    O20   2.153934 S    
C19   N2    1.456892 S    
O11   C42   1.287317 A    
N3    O23   1.300395 A    
O13   V3    1.999532 S    
C11   C12   1.432806 A    
C32   C35   1.398851 A    
N6    O26   1.300215 A    
C33   C34   1.400476 A    
C35   C36   1.419282 A    
O3    C4    1.302103 A    
N3    O24   1.300566 A    
O6    V2    2.007783 S    
N8    H18   1.044817 S    
O9    V2    1.991068 S    
C27   C28   1.533393 S    
V3    O20   1.711952 S    
C25   C28   1.550102 S    
C34   H7    1.084469 S    
C26   C27   1.534214 S    
N16   O32   1.298092 A    
O2    V1    1.997009 S    
C28   C29   1.548478 S    
O4    C2    1.295864 A    
N13   H23   1.045367 S    
C7    N12   1.435959 S    
C31   C39   1.399224 A    
C37   C38   1.432020 A    
C17   C20   1.554718 S    
C40   N11   1.437806 S    
O1    C2    1.304431 A    
C18   C19   1.544411 S    
N2    H9    1.044993 S    
O5    V1    1.999441 S    
N15   H27   1.045862 S    
N7    H16   1.044626 S    
O13   C44   1.293006 A    
C27   N6    1.457261 S    
C26   N5    1.456357 S    
C5    C13   1.404292 A    
C19   C20   1.548301 S    
C16   C17   1.549966 S    
O7    V2    1.706200 S    
C14   N13   1.436498 S    
O18   C43   1.294509 A    
C9    N15   1.436791 S    
O3    V1    1.992836 S    
V1    O10   1.711946 S    
O18   V4    1.991046 S    
C13   N9    1.438402 S    
O15   V3    1.992715 S    
C38   N8    1.435371 S    
N6    O25   1.300333 A    
C39   H6    1.084349 S    
N14   H25   1.043931 S    
O17   V4    1.704166 S    
C6    C8    1.404374 A    
C25   C42   1.504666 S    
O17   V3    2.162406 S    
C27   C30   1.541708 S    
N12   H22   1.045271 S    
C23   C30   1.548274 S    
C10   C14   1.426316 A    
C29   C30   1.556247 S    
C12   N1    1.433456 S    
O4    V1    1.996337 S    
C5    C43   1.489065 S    
N8    H17   1.045903 S    
C21   N3    1.455168 S    
C15   C16   1.542484 S    
C28   N7    1.457687 S    
C18   H2    1.110162 S    
N16   O31   1.299847 A    
C9    C10   1.431686 A    
O14   V3    1.996989 S    
O8    C3    1.299047 A    
N13   H24   1.044923 S    
