data_mof_unit_18878.cif
_audit_creation_date              2012-12-11T17:36:16-0500
_audit_creation_method            fapswitch 2.2
_symmetry_space_group_name_H-M    P1
_symmetry_Int_Tables_number       1
_space_group_crystal_system       triclinic
_cell_length_a                    25.873231
_cell_length_b                    6.898493
_cell_length_c                    21.708724
_cell_angle_alpha                 90.001669
_cell_angle_beta                  96.08492
_cell_angle_gamma                 89.997309
_cell_volume                      3852.87929446

loop_
_atom_site_label
_atom_site_type_symbol
_atom_type_description
_atom_site_fract_x
_atom_site_fract_y
_atom_site_fract_z
_atom_type_partial_charge
O1    O     O_R   0.208650 0.594520 0.175450 -0.538741
O2    O     O_R   0.791350 0.405480 0.824550 -0.538741
O3    O     O_R   0.291350 0.094520 0.324550 -0.538755
O4    O     O_R   0.708650 0.905480 0.675450 -0.538755
O5    O     O_R   0.192980 0.260780 0.300160 -0.514179
O6    O     O_R   0.807020 0.739220 0.699840 -0.514179
O7    O     O_R   0.307020 0.760780 0.199840 -0.514184
O8    O     O_R   0.692980 0.239220 0.800160 -0.514184
C1    C     C_R   0.178253 0.432513 0.317681 0.738151
C2    C     C_R   0.821747 0.567487 0.682319 0.738152
C3    C     C_R   0.321746 0.932505 0.182317 0.738170
C4    C     C_R   0.678254 0.067495 0.817683 0.738170
O9    O     O_R   0.202550 0.264660 0.174420 -0.537361
O10   O     O_R   0.797450 0.735340 0.825580 -0.537361
O11   O     O_R   0.297450 0.764660 0.325580 -0.537363
O12   O     O_R   0.702550 0.235340 0.674420 -0.537363
O13   O     O_R   0.300990 0.096480 0.197920 -0.540003
O14   O     O_R   0.699010 0.903520 0.802080 -0.540002
O15   O     O_R   0.199010 0.596480 0.302080 -0.540003
O16   O     O_R   0.800990 0.403520 0.697920 -0.540004
C5    C     C_R   0.191077 0.433358 0.151131 0.700011
C6    C     C_R   0.808923 0.566641 0.848869 0.700010
C7    C     C_R   0.308924 0.933354 0.348870 0.700013
C8    C     C_R   0.691076 0.066646 0.651130 0.700014
O17   O     O_3   0.282290 0.427760 0.257860 -0.354472
O18   O     O_3   0.717710 0.572240 0.742140 -0.354472
O19   O     O_3   0.217710 0.927760 0.242140 -0.354456
O20   O     O_3   0.782290 0.072240 0.757860 -0.354456
V1    V     V_3+5 0.244010 0.152080 0.248540 1.523715
V2    V     V_3+5 0.755990 0.847920 0.751460 1.523715
V3    V     V_3+5 0.255990 0.652080 0.251460 1.523718
V4    V     V_3+5 0.744010 0.347920 0.748540 1.523718
C9    C     C_R   0.657400 0.060827 0.591976 -0.051331
C10   C     C_R   0.342600 0.939173 0.408024 -0.051331
C11   C     C_R   0.842599 0.560765 0.908022 -0.051297
C12   C     C_R   0.157401 0.439235 0.091978 -0.051296
C13   C     C_R   0.646592 0.119665 0.481637 -0.141965
C14   C     C_R   0.353408 0.880335 0.518363 -0.141965
C15   C     C_R   0.853355 0.618663 0.018412 -0.141933
C16   C     C_R   0.146645 0.381337 0.981588 -0.141933
C17   C     C_R   0.678243 0.111761 0.537540 -0.160595
C18   C     C_R   0.321757 0.888239 0.462460 -0.160594
C19   C     C_R   0.821720 0.611073 0.962492 -0.160687
C20   C     C_R   0.178280 0.388927 0.037508 -0.160687
C21   C     C_R   0.604076 0.018389 0.590241 -0.194413
C22   C     C_R   0.395924 0.981611 0.409759 -0.194413
C23   C     C_R   0.895942 0.518667 0.909737 -0.194362
C24   C     C_R   0.104058 0.481333 0.090263 -0.194362
C25   C     C_R   0.570548 0.028544 0.533754 0.084973
C26   C     C_R   0.429452 0.971456 0.466246 0.084973
C27   C     C_R   0.929451 0.528499 0.966244 0.084973
C28   C     C_R   0.070549 0.471501 0.033756 0.084973
C29   C     C_R   0.593205 0.079909 0.479271 0.125356
C30   C     C_R   0.406795 0.920091 0.520729 0.125356
C31   C     C_R   0.906758 0.579195 0.020763 0.125350
C32   C     C_R   0.093242 0.420805 0.979236 0.125350
C33   C     C_R   0.515541 0.992155 0.529381 0.053477
C34   C     C_R   0.484459 0.007845 0.470618 0.053477
C35   C     C_R   0.984471 0.492378 0.970605 0.053473
C36   C     C_R   0.015529 0.507622 0.029395 0.053473
C37   C     C_R   0.509450 0.058817 0.418228 -0.166136
C38   C     C_R   0.490550 0.941183 0.581772 -0.166136
C39   C     C_R   0.990502 0.557895 0.081824 -0.166103
C40   C     C_R   0.009498 0.442105 0.918176 -0.166103
C41   C     C_R   0.562548 0.093578 0.422637 -0.180673
C42   C     C_R   0.437452 0.906422 0.577363 -0.180673
C43   C     C_R   0.937392 0.592435 0.077424 -0.180667
C44   C     C_R   0.062608 0.407564 0.922576 -0.180667
H1    H     H_    0.579830 0.132856 0.381005 0.140898
H2    H     H_    0.420169 0.867143 0.618995 0.140898
H3    H     H_    0.920081 0.631164 0.119087 0.140891
H4    H     H_    0.079919 0.368836 0.880913 0.140891
H5    H     H_    0.409906 0.017461 0.366170 0.111738
H6    H     H_    0.590094 0.982539 0.633830 0.111738
H7    H     H_    0.090052 0.516743 0.133875 0.111718
H8    H     H_    0.909948 0.483257 0.866125 0.111718
H9    H     H_    0.280848 0.853266 0.461556 0.122413
H10   H     H_    0.719152 0.146734 0.538444 0.122413
H11   H     H_    0.219206 0.354247 0.038395 0.122456
H12   H     H_    0.780794 0.645753 0.961605 0.122456
H13   H     H_    0.663853 0.159606 0.440073 0.131337
H14   H     H_    0.336147 0.840394 0.559927 0.131337
H15   H     H_    0.836066 0.658079 0.060006 0.131354
H16   H     H_    0.163934 0.341921 0.939994 0.131354
H17   H     H_    0.489023 0.073815 0.372650 0.141429
H18   H     H_    0.510977 0.926185 0.627350 0.141429
H19   H     H_    0.010907 0.572480 0.127427 0.141425
H20   H     H_    0.989093 0.427520 0.872573 0.141425
C45   C     C_R   0.441281 0.817327 0.097616 -0.130689
C46   C     C_R   0.558719 0.182673 0.902384 -0.130689
C47   C     C_R   0.058720 0.317345 0.402377 -0.130701
C48   C     C_R   0.941280 0.682655 0.597622 -0.130701
H21   H     H_    0.470535 0.705255 0.096556 0.195250
H22   H     H_    0.529465 0.294745 0.903444 0.195250
H23   H     H_    0.029469 0.205275 0.403434 0.195252
H24   H     H_    0.970531 0.794725 0.596566 0.195252
C49   C     C_R   0.402793 0.798337 0.138319 0.274030
C50   C     C_R   0.597207 0.201663 0.861681 0.274030
C51   C     C_R   0.097207 0.298358 0.361673 0.274001
C52   C     C_R   0.902792 0.701642 0.638327 0.274001
C53   C     C_R   0.364239 0.943981 0.140574 -0.165011
C54   C     C_R   0.635761 0.056019 0.859425 -0.165011
C55   C     C_R   0.135759 0.444000 0.359421 -0.164999
C56   C     C_R   0.864241 0.556000 0.640579 -0.164998
C57   C     C_R   0.366446 0.106887 0.101645 -0.188260
C58   C     C_R   0.633554 0.893113 0.898355 -0.188260
C59   C     C_R   0.133549 0.606904 0.398355 -0.188278
C60   C     C_R   0.866451 0.393096 0.601645 -0.188278
H25   H     H_    0.337671 0.220829 0.102060 0.171747
H26   H     H_    0.662329 0.779171 0.897940 0.171747
H27   H     H_    0.162322 0.720844 0.397942 0.171747
H28   H     H_    0.837678 0.279156 0.602058 0.171747
C61   C     C_R   0.405067 0.124978 0.061245 0.319081
C62   C     C_R   0.594933 0.875022 0.938755 0.319082
C63   C     C_R   0.094927 0.624993 0.438756 0.319074
C64   C     C_R   0.905072 0.375007 0.561244 0.319074
C65   C     C_R   0.442729 0.979175 0.058863 -0.013716
C66   C     C_R   0.557271 0.020824 0.941137 -0.013716
C67   C     C_R   0.057269 0.479190 0.441134 -0.013713
C68   C     C_R   0.942731 0.520810 0.558866 -0.013713
C69   C     C_1   0.483140 0.993886 0.017331 0.103914
C70   C     C_1   0.516859 0.006114 0.982669 0.103914
C71   C     C_1   0.016859 0.493891 0.482668 0.103917
C72   C     C_1   0.983141 0.506109 0.517332 0.103917
Br1   Br    Br    0.407679 0.574796 0.191460 -0.532043
Br2   Br    Br    0.592321 0.425204 0.808540 -0.532043
Br3   Br    Br    0.092324 0.074824 0.308524 -0.532042
Br4   Br    Br    0.907676 0.925176 0.691476 -0.532042
Br5   Br    Br    0.404919 0.351532 0.009949 -0.527976
Br6   Br    Br    0.595081 0.648468 0.990051 -0.527976
Br7   Br    Br    0.095070 0.851545 0.490057 -0.527950
Br8   Br    Br    0.904930 0.148454 0.509942 -0.527950

loop_
_geom_bond_atom_site_label_1
_geom_bond_atom_site_label_2
_ccdc_geom_bond_type
O17   V3    S    
C51   C55   A    
O1    C5    A    
O19   V1    S    
C9    C21   A    
C16   H16   S    
O3    C7    A    
C10   C18   A    
O1    V3    S    
O15   V3    S    
C25   C33   A    
C71   C72   T    
C5    C12   S    
C63   Br7   S    
O7    C3    A    
C6    C11   S    
C38   H18   S    
C35   C40   A    
C26   C30   A    
C61   Br5   S    
C58   C62   A    
C36   C39   A    
C46   C66   A    
C57   C61   A    
C23   H8    S    
C14   C18   A    
C58   H26   S    
O4    C8    A    
C25   C29   A    
C44   H4    S    
C48   H24   S    
O13   V1    S    
O2    V4    S    
C66   C70   S    
O3    V1    S    
C65   C69   S    
C28   C36   A    
C68   C72   S    
C1    O15   A    
C52   C56   A    
C15   C31   A    
C2    O16   A    
C16   C32   A    
C64   Br8   S    
O2    C6    A    
C54   C58   A    
C10   C22   A    
C21   C25   A    
C11   C19   A    
C16   C20   A    
C43   H3    S    
C1    C55   S    
C13   C29   A    
C34   C37   A    
O11   C7    A    
C11   C23   A    
C35   C36   A    
O12   C8    A    
C14   H14   S    
O17   V1    S    
C62   Br6   S    
C24   H7    S    
C13   H13   S    
O10   V2    S    
C46   H22   S    
O5    V1    S    
C53   C57   A    
C39   C43   A    
O7    V3    S    
C38   C42   A    
O19   V3    S    
O8    V4    S    
C33   C38   A    
C49   Br1   S    
C17   H10   S    
O18   V4    S    
C51   Br3   S    
C19   H12   S    
C50   C54   A    
C45   H21   S    
C60   H28   S    
C45   C49   A    
C21   H6    S    
C26   C34   A    
C4    C54   S    
C23   C27   A    
C31   C43   A    
C14   C30   A    
O20   V4    S    
O8    C4    A    
C7    C10   S    
O9    C5    A    
C3    C53   S    
C59   C63   A    
C69   C70   T    
C62   C66   A    
C37   H17   S    
C61   C65   A    
O6    V2    S    
C45   C65   A    
O18   V2    S    
C63   C67   A    
O14   V2    S    
C47   C67   A    
C12   C20   A    
C27   C35   A    
C40   C44   A    
C56   C60   A    
C29   C41   A    
C48   C52   A    
O16   V4    S    
C50   Br2   S    
O9    V1    S    
C57   H25   S    
C3    O13   A    
C39   H19   S    
C52   Br4   S    
C59   H27   S    
C20   H11   S    
O5    C1    A    
O6    C2    A    
C15   C19   A    
O11   V3    S    
C30   C42   A    
C67   C71   S    
O12   V4    S    
C22   C26   A    
C8    C9    S    
C9    C17   A    
C60   C64   A    
C2    C56   S    
C48   C68   A    
C15   H15   S    
C32   C44   A    
O10   C6    A    
C33   C34   A    
C42   H2    S    
C41   H1    S    
O20   V2    S    
C46   C50   A    
C12   C24   A    
C27   C31   A    
C37   C41   A    
C13   C17   A    
C49   C53   A    
C47   H23   S    
C64   C68   A    
C24   C28   A    
C18   H9    S    
C4    O14   A    
C55   C59   A    
C47   C51   A    
C40   H20   S    
C22   H5    S    
O4    V2    S    
C28   C32   A    
