data_mof_unit_45166.cif
_audit_creation_date              2012-12-10T17:54:18-0500
_audit_creation_method            fapswitch 2.2
_symmetry_space_group_name_H-M    P1
_symmetry_Int_Tables_number       1
_space_group_crystal_system       triclinic
_cell_length_a                    27.596005
_cell_length_b                    10.695594
_cell_length_c                    9.92664
_cell_angle_alpha                 91.509471
_cell_angle_beta                  90.854413
_cell_angle_gamma                 94.671659
_cell_volume                      2918.72912276

loop_
_atom_site_label
_atom_site_type_symbol
_atom_type_description
_atom_site_fract_x
_atom_site_fract_y
_atom_site_fract_z
_atom_type_partial_charge
Br1   Br    Br    0.563398 0.159167 0.019425 -0.556790
Br2   Br    Br    0.455932 0.850807 0.221587 -0.518680
Br3   Br    Br    0.406363 0.271787 0.283828 -0.478403
Br4   Br    Br    0.380293 0.050223 0.076037 -0.483229
C1    C     C_R   0.504717 0.261282 0.499056 0.963129
C2    C     C_R   0.975599 0.479207 0.405807 0.044147
C3    C     C_R   0.980089 0.667339 0.556697 0.044394
C4    C     C_R   0.406346 0.504892 0.499303 0.924579
C5    C     C_R   0.952443 0.568983 0.484401 0.071164
C6    C     C_R   0.946713 0.377683 0.344046 -0.216986
C7    C     C_R   0.896547 0.367875 0.354340 -0.137133
C8    C     C_R   0.873329 0.458881 0.426211 -0.018565
C9    C     C_R   0.901060 0.559798 0.491331 -0.053184
C10   C     C_R   0.877314 0.651223 0.563663 -0.020295
C11   C     C_R   0.826449 0.641055 0.567649 0.505747
C12   C     C_R   0.276743 0.517226 0.602843 -0.175681
C13   C     C_R   0.822691 0.450979 0.435036 0.498464
C14   C     C_R   0.723808 0.515605 0.624892 -0.124220
C15   C     C_R   0.673268 0.505094 0.624150 -0.251352
C16   C     C_R   0.494877 0.738716 0.501857 0.888290
C17   C     C_R   0.672307 0.533484 0.382132 -0.207043
C18   C     C_R   0.722742 0.544996 0.383317 -0.104283
C19   C     C_R   0.748565 0.535219 0.504370 0.317778
C20   C     C_R   0.026768 0.491719 0.394149 0.044405
C21   C     C_R   0.054568 0.583224 0.475390 0.074458
C22   C     C_R   0.031548 0.669837 0.558658 0.043043
C23   C     C_R   0.257539 0.576365 0.492277 0.212049
C24   C     C_R   0.051299 0.415136 0.304069 -0.212617
C25   C     C_R   0.111290 0.754517 0.644698 -0.133010
C26   C     C_R   0.955077 0.759475 0.625340 -0.215429
C27   C     C_R   0.904652 0.751365 0.628536 -0.137983
C28   C     C_R   0.594059 0.502902 0.500935 0.857692
C29   C     C_R   0.060971 0.754305 0.643379 -0.214195
C30   C     C_R   0.542576 0.124857 0.733187 0.491571
C31   C     C_R   0.535215 0.074920 0.860958 0.203992
C32   C     C_R   0.506748 0.962536 0.873383 -0.229363
C33   C     C_R   0.488973 0.895111 0.758591 -0.103383
C34   C     C_R   0.105967 0.586641 0.474859 -0.052666
C35   C     C_R   0.497786 0.942412 0.628634 -0.014383
C36   C     C_R   0.517011 0.066505 0.619330 -0.104034
C37   C     C_R   0.508854 0.127943 0.497742 -0.171099
C38   C     C_R   0.492730 0.060260 0.381323 -0.162454
C39   C     C_R   0.482516 0.932795 0.384634 0.276898
C40   C     C_R   0.179844 0.504604 0.394991 0.574699
C41   C     C_R   0.488296 0.871634 0.506870 -0.179435
C42   C     C_R   0.439646 0.297254 0.117177 0.234808
C43   C     C_R   0.419297 0.200402 0.027243 0.335550
C44   C     C_R   0.420219 0.215961 0.891523 -0.286520
C45   C     C_R   0.129225 0.503795 0.389641 -0.043741
C46   C     C_R   0.442142 0.322850 0.841649 -0.177497
C47   C     C_R   0.471284 0.409657 0.921270 0.069039
C48   C     C_R   0.470843 0.404479 0.066284 0.073207
C49   C     C_R   0.527015 0.587796 0.075369 -0.174412
C50   C     C_R   0.528185 0.586374 0.931393 0.527778
C51   C     C_R   0.184809 0.667956 0.564360 0.496880
C52   C     C_R   0.287481 0.617056 0.386401 0.541395
C53   C     C_R   0.335808 0.587055 0.386785 -0.283746
C54   C     C_R   0.325537 0.493975 0.606173 -0.205076
C55   C     C_3   0.288717 0.799701 0.268031 0.086144
C56   C     C_R   0.101615 0.420976 0.302353 -0.133624
C57   C     C_3   0.267015 0.887811 0.371258 -0.426840
C58   C     C_3   0.286510 0.023925 0.353481 -0.762500
C59   C     C_3   0.617916 0.189642 0.654183 0.061225
C60   C     C_3   0.659880 0.186748 0.756213 -0.338149
C61   C     C_3   0.706997 0.159033 0.687051 -0.893099
C62   C     C_3   0.603993 0.693699 0.904271 0.055265
C63   C     C_3   0.616526 0.826858 0.961137 -0.344577
C64   C     C_3   0.669733 0.846804 0.006268 -0.910479
C65   C     C_R   0.134171 0.671144 0.561296 -0.022259
C66   C     C_R   0.354961 0.526489 0.496808 -0.081092
C67   C     C_R   0.647193 0.513016 0.502535 -0.049776
H1    H     H_    0.339946 0.447924 0.692198 0.176296
H2    H     H_    0.500078 0.924634 0.971675 0.237455
H3    H     H_    0.466789 0.808767 0.773588 0.201692
H4    H     H_    0.548161 0.660489 0.133311 0.159884
H5    H     H_    0.400994 0.147605 0.823225 0.200419
H6    H     H_    0.435252 0.332957 0.737935 0.229204
H7    H     H_    0.118777 0.358886 0.233152 0.190408
H8    H     H_    0.654675 0.488999 0.718104 0.168035
H9    H     H_    0.743746 0.507114 0.718546 0.149946
H10   H     H_    0.876005 0.288299 0.305294 0.190948
H11   H     H_    0.961856 0.301691 0.290165 0.144433
H12   H     H_    0.132199 0.819820 0.712675 0.192357
H13   H     H_    0.032618 0.350666 0.231810 0.143820
H14   H     H_    0.358434 0.612218 0.301836 0.196457
H15   H     H_    0.280255 0.831590 0.165342 0.215416
H16   H     H_    0.329108 0.807123 0.277758 0.174160
H17   H     H_    0.226755 0.880090 0.359419 0.248041
H18   H     H_    0.276479 0.860261 0.474866 0.251042
H19   H     H_    0.326643 0.033904 0.368115 0.296434
H20   H     H_    0.270111 0.085102 0.429379 0.264624
H21   H     H_    0.277071 0.055278 0.251281 0.287229
H22   H     H_    0.628062 0.259498 0.576908 0.167024
H23   H     H_    0.973376 0.840887 0.675571 0.143622
H24   H     H_    0.612698 0.096956 0.599005 0.122943
H25   H     H_    0.665419 0.278619 0.811447 0.242191
H26   H     H_    0.650698 0.112981 0.830469 0.240956
H27   H     H_    0.702668 0.065595 0.634738 0.273748
H28   H     H_    0.736737 0.158701 0.763580 0.269589
H29   H     H_    0.717212 0.231980 0.612676 0.283976
H30   H     H_    0.626203 0.680810 0.813414 0.178608
H31   H     H_    0.614752 0.623215 0.977728 0.114185
H32   H     H_    0.609574 0.895079 0.882044 0.238641
H33   H     H_    0.593056 0.845105 0.048267 0.241810
H34   H     H_    0.653093 0.541261 0.287148 0.163913
H35   H     H_    0.677412 0.781397 0.087572 0.259724
H36   H     H_    0.677638 0.944632 0.045541 0.282620
H37   H     H_    0.693879 0.831085 0.919938 0.273287
H38   H     H_    0.887172 0.824112 0.682700 0.189340
H39   H     H_    0.741892 0.560789 0.290062 0.142295
H40   H     H_    0.046226 0.818925 0.713712 0.144338
H41   H     H_    0.486353 0.106536 0.287814 0.232388
H42   H     H_    0.253461 0.486659 0.684545 0.174404
N1    N     N_R   0.206336 0.584994 0.482388 -0.336244
N2    N     N_R   0.800405 0.542133 0.503562 -0.354591
N3    N     N_R   0.499540 0.498800 0.142780 -0.106331
N4    N     N_R   0.499520 0.498720 0.857170 -0.135059
O1    O     O_R   0.500000 0.316780 0.614690 -0.607522
O2    O     O_R   0.571250 0.499990 0.614680 -0.574337
O3    O     O_R   0.571240 0.499970 0.385350 -0.622913
O4    O     O_2   0.202496 0.423878 0.315607 -0.534734
O5    O     O_3   0.267600 0.675004 0.277709 -0.624230
O6    O     O_3   0.576003 0.227356 0.720086 -0.605205
O7    O     O_3   0.554461 0.679876 0.862901 -0.622112
O8    O     O_2   0.795801 0.352920 0.375846 -0.566609
O9    O     O_2   0.212309 0.746082 0.649028 -0.570201
O10   O     O_2   0.803135 0.729774 0.633604 -0.568476
O11   O     O_R   0.500000 0.316750 0.385360 -0.590866
O12   O     O_R   0.428760 0.500030 0.614650 -0.668871
O13   O     O_R   0.428750 0.500010 0.385320 -0.564675
O14   O     O_R   0.500000 0.683250 0.614640 -0.596025
O15   O     O_R   0.500000 0.683220 0.385310 -0.581735
Zn1   Zn    Zn3+2 0.500000 0.500020 0.653130 1.006842
Zn2   Zn    Zn3+2 0.500000 0.499980 0.346870 1.017483

loop_
_geom_bond_atom_site_label_1
_geom_bond_atom_site_label_2
_ccdc_geom_bond_type
C40   C45   A    
C33   H3    S    
C30   O6    S    
C59   H24   S    
C24   H13   S    
C37   C38   A    
C62   H31   S    
C15   C67   A    
C31   C32   A    
C10   C27   A    
N4    Zn1   S    
C12   H42   S    
C2    C5    A    
C63   H32   S    
C34   C45   A    
C49   H4    S    
C49   C50   A    
C7    H10   S    
C56   H7    S    
O2    Zn1   S    
C3    C22   A    
C17   C67   A    
C30   C36   A    
C32   C33   A    
C28   O3    A    
C61   H27   S    
C30   C31   A    
C13   N2    A    
C26   C27   A    
N3    Zn2   S    
C42   C48   A    
C40   O4    S    
C52   C53   A    
C14   C15   A    
C44   H5    S    
C5    C9    A    
C25   C29   A    
C18   H39   S    
C58   H21   S    
C8    C13   A    
C29   H40   S    
C64   H36   S    
C53   C66   A    
O3    Zn2   S    
C16   C41   S    
C49   N3    A    
C35   C41   A    
C26   H23   S    
O1    Zn1   S    
C12   C23   A    
C44   C46   A    
C62   C63   S    
C34   C65   A    
C40   N1    A    
C3    C26   A    
C11   O10   S    
C9    C10   A    
C62   H30   S    
O13   Zn2   S    
C64   H35   S    
C16   O15   A    
C57   H18   S    
C63   H33   S    
C28   C67   S    
C25   C65   A    
C48   N3    A    
C55   C57   S    
C63   C64   S    
C20   C21   A    
C60   H25   S    
C6    C7    A    
C35   C36   A    
C23   C52   A    
C54   C66   A    
C38   H41   S    
C21   C22   A    
C6    H11   S    
C14   C19   A    
C52   O5    S    
C57   H17   S    
O11   Zn2   S    
C21   C34   A    
C39   C41   A    
C22   C29   A    
C43   C44   A    
C51   O9    S    
Br2   C39   S    
C2    C20   A    
C58   H20   S    
C46   C47   A    
C27   H38   S    
C12   C54   A    
C15   H8    S    
C45   C56   A    
C61   H28   S    
C51   C65   A    
C24   C56   A    
O12   Zn1   S    
O15   Zn2   S    
C60   H26   S    
C54   H1    S    
C4    O13   A    
C11   N2    A    
C38   C39   A    
C28   O2    A    
C46   H6    S    
Br1   C31   S    
C3    C5    A    
C1    C37   S    
C42   C43   A    
C36   C37   A    
C18   C19   A    
C20   C24   A    
C61   H29   S    
O14   Zn1   S    
C2    C6    A    
C59   O6    S    
C7    C8    A    
C50   O7    S    
C25   H12   S    
C51   N1    A    
C64   H37   S    
C59   H22   S    
Br3   C42   S    
C4    C66   S    
C1    O1    A    
C60   C61   S    
C55   H15   S    
C47   C48   A    
C33   C35   A    
C13   O8    S    
C55   O5    S    
C58   H19   S    
C1    O11   A    
C47   N4    A    
C53   H14   S    
C62   O7    S    
C57   C58   S    
C55   H16   S    
C32   H2    S    
C19   N2    S    
C59   C60   S    
C23   N1    S    
C8    C9    A    
C14   H9    S    
C50   N4    A    
C4    O12   A    
C10   C11   A    
C16   O14   A    
C17   C18   A    
C17   H34   S    
Br4   C43   S    
