data_mof_unit_45353.cif
_audit_creation_date              2012-12-10T21:25:16-0500
_audit_creation_method            fapswitch 2.2
_symmetry_space_group_name_H-M    P1
_symmetry_Int_Tables_number       1
_space_group_crystal_system       triclinic
_cell_length_a                    10.685591
_cell_length_b                    17.458005
_cell_length_c                    16.704377
_cell_angle_alpha                 89.915772
_cell_angle_beta                  90.983932
_cell_angle_gamma                 90.236778
_cell_volume                      3115.6973772

loop_
_atom_site_label
_atom_site_type_symbol
_atom_type_description
_atom_site_fract_x
_atom_site_fract_y
_atom_site_fract_z
_atom_type_partial_charge
C1    C     C_R   0.498841 0.352893 0.500070 0.896500
C2    C     C_R   0.427959 0.234992 0.432701 -0.285481
C3    C     C_R   0.483672 0.729179 0.498948 -0.112416
C4    C     C_R   0.484504 0.270082 0.499812 -0.150242
C5    C     C_R   0.538560 0.774340 0.438827 0.516286
C6    C     C_R   0.520194 0.225779 0.567091 0.532962
C7    C     C_R   0.512951 0.852301 0.436091 -0.222822
C8    C     C_R   0.494366 0.147593 0.567152 -0.245205
C9    C     C_R   0.437073 0.884988 0.493821 0.091308
C10   C     C_R   0.437447 0.113760 0.500233 0.077982
C11   C     C_1   0.425311 0.965343 0.495740 -0.036525
C12   C     C_R   0.498679 0.646897 0.499801 0.896565
C13   C     C_1   0.425503 0.033349 0.497745 -0.032019
C14   C     C_R   0.553824 0.438951 0.832632 -0.239036
C15   C     C_R   0.561493 0.555356 0.167433 -0.389294
C16   C     C_R   0.259461 0.508277 0.499471 0.952430
C17   C     C_R   0.739755 0.509981 0.500649 0.944630
C18   C     C_R   0.555349 0.441428 0.748459 0.026318
C19   C     C_R   0.560179 0.556000 0.251530 0.035610
C20   C     C_R   0.441343 0.557140 0.747616 -0.070416
C21   C     C_R   0.445106 0.440259 0.252855 -0.139059
C22   C     C_R   0.440151 0.558106 0.832221 0.460877
C23   C     C_R   0.871069 0.530971 0.501571 -0.212502
C24   C     C_R   0.445121 0.435960 0.167417 0.527408
C25   C     C_R   0.496922 0.497875 0.875672 0.007804
C26   C     C_R   0.502126 0.496011 0.124647 0.039508
C27   C     C_1   0.498650 0.496843 0.963561 0.028345
C28   C     C_1   0.500670 0.496562 0.036718 0.024350
C29   C     C_R   0.221104 0.643794 0.255487 0.521067
C30   C     C_R   0.825779 0.534319 0.789683 0.506999
C31   C     C_R   0.178060 0.628180 0.332466 0.343340
C32   C     C_R   0.866476 0.509174 0.714723 0.355273
C33   C     C_R   0.124310 0.555366 0.349353 -0.236878
C34   C     C_R   0.127601 0.528387 0.499307 -0.260628
C35   C     C_R   0.873461 0.561743 0.649947 -0.213485
C36   C     C_R   0.114750 0.499318 0.288081 0.468464
C37   C     C_R   0.834133 0.638038 0.660180 0.415350
C38   C     C_R   0.155793 0.516110 0.210558 0.429943
C39   C     C_R   0.780430 0.660659 0.732983 0.436475
C40   C     C_R   0.211432 0.588166 0.195395 -0.562331
C41   C     C_R   0.779371 0.609552 0.797304 -0.529628
C42   C     C_R   0.930411 0.544168 0.428375 0.450911
C43   C     C_R   0.068509 0.539835 0.573275 0.393720
C44   C     C_3   0.458000 0.675478 0.888763 -0.329486
C45   C     C_R   0.937721 0.541677 0.574405 -0.073252
C46   C     C_3   0.362502 0.310817 0.167126 -0.268451
C47   C     C_3   0.387375 0.720336 0.227502 -0.212468
C48   C     C_3   0.853269 0.514547 0.926881 -0.287882
C49   C     C_3   0.112254 0.381198 0.349717 -0.230180
C50   C     C_3   0.953307 0.735127 0.611536 -0.320714
C51   C     C_3   0.127097 0.486923 0.074702 -0.187240
C52   C     C_3   0.634988 0.750619 0.696460 -0.251251
C53   C     C_3   0.735826 0.736237 0.410855 -0.268217
C54   C     C_3   0.706657 0.258414 0.624018 -0.312183
C55   C     C_R   0.060857 0.541850 0.426722 -0.093974
C56   C     C_R   0.384005 0.840752 0.553916 -0.159387
C57   C     C_R   0.404801 0.156840 0.432915 -0.160716
C58   C     C_R   0.406635 0.762673 0.556203 -0.301056
H1    H     H_    0.244804 0.602834 0.136604 0.203770
H2    H     H_    0.402420 0.396173 0.288291 0.117197
H3    H     H_    0.326394 0.866659 0.599177 0.147141
H4    H     H_    0.362551 0.129963 0.380558 0.149086
H5    H     H_    0.363045 0.728283 0.602130 0.169274
H6    H     H_    0.399800 0.268119 0.380572 0.159014
H7    H     H_    0.406176 0.720539 0.920977 0.203285
H8    H     H_    0.494369 0.701575 0.833065 0.174389
H9    H     H_    0.536789 0.656767 0.928521 0.157326
H10   H     H_    0.281909 0.320002 0.207121 0.180890
H11   H     H_    0.446733 0.290744 0.201082 0.139243
H12   H     H_    0.740718 0.629107 0.852992 0.197782
H13   H     H_    0.335234 0.264553 0.124788 0.200481
H14   H     H_    0.415043 0.690351 0.171983 0.139781
H15   H     H_    0.437132 0.696343 0.280783 0.203118
H16   H     H_    0.416805 0.781070 0.221787 0.192791
H17   H     H_    0.769242 0.542431 0.951740 0.154440
H18   H     H_    0.933327 0.555469 0.923886 0.160273
H19   H     H_    0.880564 0.468307 0.969168 0.194106
H20   H     H_    0.154288 0.670316 0.440095 0.330962
H21   H     H_    0.915396 0.420514 0.651385 0.331193
H22   H     H_    0.081959 0.388376 0.412405 0.155947
H23   H     H_    0.554856 0.887526 0.390151 0.152828
H24   H     H_    0.215559 0.386653 0.346663 0.131274
H25   H     H_    0.087943 0.321813 0.331586 0.174935
H26   H     H_    0.039321 0.699657 0.616537 0.171216
H27   H     H_    0.943725 0.771349 0.665760 0.206476
H28   H     H_    0.964830 0.774055 0.559619 0.189809
H29   H     H_    0.218624 0.504452 0.049891 0.179384
H30   H     H_    0.058262 0.534601 0.071550 0.130576
H31   H     H_    0.090238 0.439975 0.036257 0.191845
H32   H     H_    0.584166 0.799755 0.722306 0.172226
H33   H     H_    0.567977 0.701687 0.693071 0.144825
H34   H     H_    0.521402 0.113157 0.618633 0.158630
H35   H     H_    0.663960 0.767959 0.635592 0.213617
H36   H     H_    0.906874 0.587611 0.320502 0.325830
H37   H     H_    0.092104 0.569581 0.687002 0.334381
H38   H     H_    0.741959 0.690172 0.456603 0.206066
H39   H     H_    0.771710 0.791402 0.435861 0.160628
H40   H     H_    0.797726 0.719979 0.361111 0.204737
H41   H     H_    0.734029 0.293984 0.571737 0.148542
H42   H     H_    0.742964 0.199064 0.617816 0.162530
H43   H     H_    0.751799 0.283879 0.678088 0.221140
H44   H     H_    0.598528 0.391774 0.863921 0.198477
H45   H     H_    0.608264 0.601250 0.135919 0.165044
H46   H     H_    0.601414 0.396389 0.716086 0.194823
H47   H     H_    0.607408 0.601591 0.283908 0.186888
H48   H     H_    0.394723 0.602196 0.714240 0.158334
N1    N     N_R   0.500030 0.500030 0.707230 -0.131329
N2    N     N_R   0.499970 0.499970 0.292770 -0.111694
O1    O     O_R   0.500000 0.389130 0.566570 -0.573344
O2    O     O_3   0.387912 0.377592 0.122572 -0.587190
O3    O     O_3   0.256824 0.717846 0.236788 -0.558057
O4    O     O_3   0.825072 0.481044 0.851839 -0.553137
O5    O     O_3   0.185789 0.687132 0.387689 -0.724633
O6    O     O_3   0.903030 0.433577 0.708304 -0.714309
O7    O     O_3   0.046730 0.432280 0.298739 -0.544765
O8    O     O_3   0.845763 0.689626 0.597799 -0.634987
O9    O     O_3   0.142586 0.458421 0.153311 -0.550820
O10   O     O_3   0.740298 0.734901 0.745775 -0.598864
O11   O     O_3   0.858473 0.558124 0.360037 -0.736855
O12   O     O_R   0.500000 0.610870 0.433430 -0.591665
O13   O     O_3   0.141327 0.549686 0.642193 -0.742060
O14   O     O_3   0.612521 0.742834 0.380393 -0.648920
O15   O     O_3   0.575907 0.258559 0.634065 -0.606756
O16   O     O_R   0.499990 0.389100 0.433480 -0.636987
O17   O     O_R   0.500010 0.610900 0.566520 -0.656489
O18   O     O_R   0.316760 0.500020 0.566540 -0.538164
O19   O     O_R   0.683240 0.499980 0.433460 -0.540856
O20   O     O_R   0.316760 0.499990 0.433460 -0.651650
O21   O     O_R   0.683240 0.500010 0.566540 -0.640519
O22   O     O_3   0.375016 0.614594 0.871368 -0.610390
Zn1   Zn    Zn3+2 0.500010 0.500020 0.588860 0.980577
Zn2   Zn    Zn3+2 0.499990 0.499980 0.411140 0.971315

loop_
_geom_bond_atom_site_label_1
_geom_bond_atom_site_label_2
_ccdc_geom_bond_type
C33   C55   S    
C38   C40   A    
C54   O15   S    
C23   C45   A    
C48   H18   S    
C54   H43   S    
C44   H8    S    
C2    C57   A    
C50   H26   S    
C57   H4    S    
C39   C41   A    
C37   O8    S    
O19   Zn2   S    
C15   C19   A    
C17   C23   S    
C23   C42   A    
C35   C37   A    
C24   C26   A    
C53   O14   S    
C42   O11   S    
C14   H44   S    
C44   O22   S    
C33   C36   A    
O16   Zn2   S    
C14   C18   A    
C18   N1    A    
C46   H11   S    
C3    C12   S    
C50   H27   S    
C16   C34   S    
C12   O12   A    
C38   O9    S    
C52   H32   S    
C22   C25   A    
O1    Zn1   S    
C31   C33   A    
C30   C41   A    
C8    H34   S    
C43   O13   S    
C20   N1    A    
C1    O1    A    
C19   N2    A    
H37   O13   S    
C34   C55   A    
C40   H1    S    
C22   O22   S    
C53   H38   S    
C48   H17   S    
C54   H42   S    
C44   H7    S    
C6    O15   S    
O20   Zn2   S    
C2    H6    S    
C20   H48   S    
C17   O21   A    
C32   C35   A    
C10   C57   A    
C24   O2    S    
C47   H15   S    
C21   H2    S    
N1    Zn1   S    
C51   H29   S    
C5    C7    A    
C17   O19   A    
C15   C26   A    
C6    C8    A    
C12   O17   A    
C53   H39   S    
C5    O14   S    
C30   O4    S    
C49   H24   S    
C2    C4    A    
C48   O4    S    
C46   H10   S    
C42   C55   A    
C9    C11   S    
H36   O11   S    
O17   Zn1   S    
C48   H19   S    
C52   H35   S    
C9    C56   A    
C18   H46   S    
C43   C45   A    
C46   H13   S    
C19   H47   S    
C4    C6    A    
C7    H23   S    
C20   C22   A    
C46   O2    S    
C54   H41   S    
H21   O6    S    
H20   O5    S    
C35   C45   S    
C58   H5    S    
C7    C9    A    
C49   O7    S    
O12   Zn2   S    
C29   O3    S    
C8    C10   A    
C34   C43   A    
C47   H16   S    
C3    C5    A    
C10   C13   S    
C51   H30   S    
C53   H40   S    
C25   C27   S    
C39   O10   S    
C26   C28   S    
C49   H22   S    
C1    C4    S    
C15   H45   S    
C49   H25   S    
C36   C38   A    
C1    O16   A    
C29   C31   A    
C51   H31   S    
C30   C32   A    
C11   C13   T    
O18   Zn1   S    
C47   O3    S    
C29   C40   A    
C51   O9    S    
C56   C58   A    
C50   O8    S    
C16   O20   A    
C14   C25   A    
C47   H14   S    
N2    Zn2   S    
C21   N2    A    
C50   H28   S    
C3    C58   A    
C37   C39   A    
C21   C24   A    
C27   C28   T    
C56   H3    S    
C44   H9    S    
C52   H33   S    
C32   O6    S    
C36   O7    S    
C16   O18   A    
C31   O5    S    
C41   H12   S    
O21   Zn1   S    
C52   O10   S    
