data_mof_unit_52400.cif
_audit_creation_date              2013-03-05T16:38:18-0500
_audit_creation_method            fapswitch 2.2
_symmetry_space_group_name_H-M    P1
_symmetry_Int_Tables_number       1
_space_group_crystal_system       triclinic
_cell_length_a                    21.812172
_cell_length_b                    21.853821
_cell_length_c                    21.499858
_cell_angle_alpha                 91.428701
_cell_angle_beta                  119.836487
_cell_angle_gamma                 120.230502
_cell_volume                      7143.62403314

loop_
_atom_site_label
_atom_site_type_symbol
_atom_site_description
_atom_site_fract_x
_atom_site_fract_y
_atom_site_fract_z
_atom_type_partial_charge
O1    O     O_R   0.551770 0.485660 0.433950 -0.605401
O2    O     O_R   0.448310 0.382210 0.433960 -0.555908
C1    C     C_R   0.499961 0.412863 0.413708 0.944107
O3    O     O_R   0.643350 0.551720 0.591610 -0.611186
O4    O     O_R   0.539890 0.448280 0.591620 -0.549566
C2    C     C_R   0.621112 0.501990 0.621089 0.917503
Zn1   Zn    Zn3+2 0.569080 0.569070 0.500000 1.085556
Zn2   Zn    Zn3+2 0.430920 0.430930 0.500000 1.234807
O5    O     O_R   0.551690 0.617790 0.566040 -0.609243
O6    O     O_R   0.448230 0.514340 0.566050 -0.557043
O7    O     O_R   0.460110 0.551720 0.408380 -0.636134
O8    O     O_R   0.356650 0.448280 0.408390 -0.591446
C3    C     C_R   0.501853 0.586780 0.588333 0.996366
C4    C     C_R   0.379901 0.498229 0.378786 0.943477
C5    C     C_R   0.831011 0.759495 0.714614 -0.196149
C6    C     C_R   0.814166 0.687583 0.711368 0.283907
C7    C     C_R   0.778395 0.646724 0.748685 -0.227302
C8    C     C_R   0.762572 0.679067 0.791742 0.242733
C9    C     C_R   0.772293 0.748000 0.789150 -0.189879
C10   C     C_R   0.807285 0.788140 0.751267 0.141921
C11   C     C_R   0.831991 0.572786 0.810967 -0.029485
C12   C     C_R   0.821215 0.503326 0.808999 -0.078827
C13   C     C_R   0.754489 0.438130 0.739564 -0.003729
C14   C     C_R   0.687549 0.437891 0.678561 0.312361
C15   C     C_R   0.690893 0.503640 0.685218 -0.122847
C16   C     C_R   0.765985 0.572914 0.748510 0.032691
C17   C     C_R   0.798984 0.362348 0.707710 0.362783
C18   C     C_R   0.796183 0.296114 0.700366 -0.207286
C19   C     C_R   0.738803 0.233187 0.709064 -0.164623
C20   C     C_R   0.685148 0.237202 0.724202 -0.096806
H1    H     H_    0.639617 0.188713 0.729253 0.225390
C21   C     C_R   0.690272 0.303407 0.734828 0.253083
C22   C     C_R   0.750550 0.367949 0.730454 -0.117943
C23   C     C_R   0.421456 0.112884 0.121099 0.268562
C24   C     C_R   0.501798 0.132439 0.138565 -0.270219
C25   C     C_R   0.582777 0.194492 0.205161 0.258024
C26   C     C_R   0.583770 0.243795 0.249624 -0.078309
C27   C     C_R   0.502842 0.221263 0.235042 -0.011671
C28   C     C_R   0.421882 0.152691 0.173793 -0.073909
C29   C     C_R   0.662884 0.314695 0.308521 0.316771
C30   C     C_R   0.661024 0.359694 0.353216 -0.115748
C31   C     C_R   0.581961 0.338120 0.339505 -0.004914
C32   C     C_R   0.502644 0.267764 0.281420 0.045171
C33   C     C_R   0.422962 0.244170 0.269210 -0.028106
C34   C     C_R   0.344895 0.173808 0.212462 -0.105130
C35   C     C_R   0.343643 0.127131 0.166273 0.310881
C36   C     C_R   0.580904 0.386694 0.382042 0.270774
C37   C     C_R   0.500922 0.363326 0.368480 -0.299384
C38   C     C_R   0.422324 0.291205 0.313880 0.260518
H2    H     H_    0.722525 0.413507 0.397341 0.226329
H3    H     H_    0.283631 0.153470 0.203922 0.230624
C39   C     C_R   0.521786 0.558921 0.264519 -0.211693
C40   C     C_R   0.464678 0.565535 0.273368 -0.041392
C41   C     C_R   0.380811 0.498722 0.245443 -0.061794
C42   C     C_R   0.354227 0.428011 0.207545 -0.286508
H4    H     H_    0.288341 0.378287 0.183477 0.242174
C43   C     C_R   0.408166 0.421027 0.195430 0.254795
C44   C     C_R   0.493334 0.486642 0.225601 0.209361
C45   C     C_R   0.253115 0.504477 0.186284 -0.066339
C46   C     C_R   0.188725 0.503478 0.188709 -0.037022
C47   C     C_R   0.189616 0.503292 0.255218 0.046796
C48   C     C_R   0.253780 0.502279 0.318663 -0.039380
C49   C     C_R   0.314326 0.499391 0.313991 -0.056224
C50   C     C_R   0.315082 0.500922 0.248925 -0.001138
C51   C     C_R   0.151258 0.579710 0.297220 -0.053327
C52   C     C_R   0.105060 0.583282 0.323744 0.280817
C53   C     C_R   0.037847 0.516291 0.319300 -0.168754
C54   C     C_R   0.012659 0.444520 0.283384 -0.219936
C55   C     C_R   0.056381 0.440849 0.253797 0.236573
C56   C     C_R   0.127579 0.508002 0.263161 -0.114427
C57   C     C_R   0.510100 0.807986 0.886545 0.314128
C58   C     C_R   0.486533 0.856112 0.859022 -0.246606
C59   C     C_R   0.448323 0.848357 0.780436 -0.117845
C60   C     C_R   0.449642 0.803079 0.733549 -0.049524
C61   C     C_R   0.473840 0.755037 0.762554 0.071331
C62   C     C_R   0.494084 0.751144 0.835483 0.043201
C63   C     C_R   0.429444 0.804608 0.659387 -0.193493
C64   C     C_R   0.442289 0.765663 0.620212 0.323776
C65   C     C_R   0.474452 0.724599 0.653230 -0.094666
C66   C     C_R   0.479881 0.711843 0.719309 -0.037963
C67   C     C_R   0.492201 0.656373 0.742128 -0.021714
C68   C     C_R   0.502380 0.646691 0.810624 0.299947
C69   C     C_R   0.502030 0.692833 0.856447 -0.162627
C70   C     C_R   0.498838 0.693767 0.619958 0.276273
C71   C     C_R   0.501149 0.633191 0.636784 -0.306003
C72   C     C_R   0.491660 0.610833 0.694198 0.252034
O9    O     O_R   0.908320 0.445630 0.037270 -0.631972
O10   O     O_R   0.908390 0.371060 0.962700 -0.579355
C73   C     C_R   0.876503 0.379456 0.996814 0.890069
O11   O     O_R   0.908320 0.537260 0.945670 -0.601123
O12   O     O_R   0.908390 0.462700 0.871100 -0.623284
C74   C     C_R   0.880558 0.499668 0.878653 0.927894
Zn3   Zn    Zn3+2 0.999930 0.549770 0.049790 1.096059
Zn4   Zn    Zn3+2 0.000030 0.450190 0.950210 1.163372
O13   O     O_R   0.091570 0.628900 0.037300 -0.626550
O14   O     O_R   0.091640 0.554330 0.962730 -0.536890
O15   O     O_R   0.091560 0.537260 0.128900 -0.598694
O16   O     O_R   0.091630 0.462690 0.054330 -0.600912
C75   C     C_R   0.122122 0.620888 0.002610 0.990293
C76   C     C_R   0.119818 0.500289 0.120922 0.927777
O17   O     O_R   0.460070 0.908340 0.051740 -0.544706
O18   O     O_R   0.356610 0.908380 0.948360 -0.634154
C77   C     C_R   0.379105 0.878989 0.998155 0.925272
O19   O     O_R   0.551760 0.066040 0.117810 -0.570362
O20   O     O_R   0.448290 0.066080 0.014430 -0.559525
C78   C     C_R   0.500968 0.086546 0.087835 0.997377
Zn5   Zn    Zn3+2 0.569030 0.999920 0.069030 1.231666
Zn6   Zn    Zn3+2 0.430870 0.999980 0.930970 1.117791
O21   O     O_R   0.643290 0.091520 0.051640 -0.584994
O22   O     O_R   0.539830 0.091560 0.948260 -0.586308
O23   O     O_R   0.551610 0.933820 0.985570 -0.562813
O24   O     O_R   0.448150 0.933870 0.882190 -0.650657
C79   C     C_R   0.620451 0.120708 0.001779 0.917613
C80   C     C_R   0.497132 0.911361 0.911549 0.836542
H5    H     H_    0.684838 0.524482 0.964989 0.200257
C81   C     C_R   0.770986 0.500799 0.045854 -0.024212
C82   C     C_R   0.790565 0.447478 0.058187 0.042736
C83   C     C_R   0.735835 0.376173 0.997755 -0.097771
C84   C     C_R   0.656426 0.355836 0.928762 0.380503
C85   C     C_R   0.639653 0.410907 0.916432 -0.094484
C86   C     C_R   0.698390 0.482811 0.974346 -0.299374
C87   C     C_R   0.696475 0.255250 0.019092 0.305632
C88   C     C_R   0.688023 0.187448 0.004837 -0.149199
C89   C     C_R   0.742557 0.182672 0.991499 -0.114901
C90   C     C_R   0.802517 0.245262 0.986670 0.324430
C91   C     C_R   0.808393 0.312805 0.996107 -0.193220
C92   C     C_R   0.752429 0.316902 0.009620 -0.114505
C93   C     C_R   0.782141 0.095121 0.041308 -0.087012
C94   C     C_R   0.781275 0.031163 0.027666 0.205637
C95   C     C_R   0.738547 0.985189 0.952048 -0.130784
C96   C     C_R   0.696162 0.003667 0.888979 -0.090214
C97   C     C_R   0.689799 0.063869 0.901393 -0.074824
C98   C     C_R   0.734922 0.110825 0.977945 -0.024066
C99   C     C_R   0.238328 0.819175 0.223122 -0.091426
C100  C     C_R   0.215160 0.788803 0.149515 -0.028702
C101  C     C_R   0.264522 0.768003 0.143292 -0.045792
C102  C     C_R   0.336745 0.777276 0.210824 0.307341
C103  C     C_R   0.360152 0.808242 0.284275 -0.091440
C104  C     C_R   0.311107 0.829453 0.290232 -0.146857
C105  C     C_R   0.319309 0.819045 0.066983 0.318091
C106  C     C_R   0.311093 0.814889 0.997880 -0.168642
C107  C     C_R   0.234995 0.752765 0.928549 -0.041924
C108  C     C_R   0.173274 0.689276 0.931211 0.334462
C109  C     C_R   0.186213 0.689290 0.002155 -0.205093
C110  C     C_R   0.256023 0.756780 0.069575 -0.117798
C111  C     C_R   0.173013 0.789273 0.814253 -0.005126
C112  C     C_R   0.151637 0.788449 0.741045 -0.166068
H6    H     H_    0.121146 0.815325 0.712088 0.177053
C113  C     C_R   0.165669 0.750813 0.702582 -0.107418
H7    H     H_    0.145201 0.749159 0.644775 0.188306
C114  C     C_R   0.202634 0.713477 0.736328 -0.069667
C115  C     C_R   0.230070 0.716924 0.812520 0.288973
C116  C     C_R   0.214344 0.754479 0.851492 -0.019126
N1    N     N_R   0.822914 0.860485 0.753295 0.179185
O25   O     O_R   0.773828 0.867207 0.691353 -0.309401
O26   O     O_R   0.888846 0.920387 0.816222 -0.316641
C117  C     C_2   0.734104 0.162813 0.703068 0.596958
H8    H     H_    0.785712 0.162635 0.707522 0.059490
O27   O     O_2   0.672023 0.103592 0.693236 -0.415131
N2    N     N_R   0.629572 0.302530 0.744816 0.249845
O28   O     O_R   0.548949 0.241503 0.707143 -0.223361
O29   O     O_R   0.652962 0.363339 0.788545 -0.410754
N3    N     N_R   0.340216 0.055525 0.048187 0.238833
O30   O     O_R   0.292727 0.073886 0.999382 -0.284643
O31   O     O_R   0.314558 0.985620 0.029578 -0.318640
N4    N     N_R   0.662920 0.205080 0.228949 0.240401
O32   O     O_R   0.689567 0.217931 0.185230 -0.315296
O33   O     O_R   0.706857 0.197575 0.292866 -0.280844
N5    N     N_R   0.744711 0.346354 0.319383 0.239638
O34   O     O_R   0.815048 0.371138 0.387934 -0.259835
O35   O     O_R   0.753006 0.366943 0.266209 -0.297615
N6    N     N_R   0.661166 0.459425 0.439522 0.225251
O36   O     O_R   0.695470 0.471810 0.512299 -0.278355
O37   O     O_R   0.698203 0.514173 0.418835 -0.327319
N7    N     N_R   0.341637 0.265905 0.303248 0.228865
O38   O     O_R   0.307037 0.210962 0.324900 -0.296374
O39   O     O_R   0.306159 0.301045 0.277176 -0.363535
C118  C     C_2   0.877852 0.807709 0.683741 0.563690
H9    H     H_    0.869575 0.850683 0.666427 0.130400
O40   O     O_2   0.929233 0.802371 0.680224 -0.517580
N8    N     N_R   0.264070 0.051440 0.117444 0.246750
O41   O     O_R   0.188893 0.040839 0.074935 -0.264392
O42   O     O_R   0.264789 0.993359 0.127882 -0.272544
N9    N     N_R   0.550262 0.480522 0.214862 0.233456
O43   O     O_R   0.580550 0.519278 0.179648 -0.298007
O44   O     O_R   0.569928 0.434545 0.238201 -0.334424
C119  C     C_2   0.611564 0.626566 0.294742 0.507113
H10   H     H_    0.665053 0.621408 0.318238 0.143185
O45   O     O_2   0.625942 0.687427 0.290482 -0.501056
C120  C     C_2   0.494281 0.641304 0.314538 0.631732
H11   H     H_    0.563158 0.684765 0.360528 0.087886
O46   O     O_2   0.442428 0.656299 0.297618 -0.526833
N10   N     N_R   0.373259 0.347986 0.148237 0.224968
O47   O     O_R   0.399408 0.343593 0.106638 -0.258823
O48   O     O_R   0.305285 0.286001 0.136866 -0.337112
C121  C     C_2   0.259389 0.511467 0.120220 0.556255
H12   H     H_    0.277734 0.481044 0.101645 0.081896
O49   O     O_2   0.247368 0.553328 0.087671 -0.482394
C122  C     C_2   0.257011 0.505096 0.389984 0.511974
H13   H     H_    0.197059 0.472933 0.386061 0.099240
O50   O     O_2   0.326513 0.545465 0.453837 -0.533254
C123  C     C_2   0.227845 0.652102 0.310571 0.524812
H14   H     H_    0.256503 0.705534 0.350415 0.098179
O51   O     O_2   0.259913 0.653447 0.277218 -0.611688
N11   N     N_R   0.128168 0.655760 0.357403 0.177882
O52   O     O_R   0.117629 0.696686 0.315874 -0.401595
O53   O     O_R   0.160558 0.681236 0.429694 -0.388442
N12   N     N_R   0.832129 0.655290 0.669218 0.259259
O54   O     O_R   0.882561 0.633934 0.702562 -0.274310
O55   O     O_R   0.798563 0.647776 0.597293 -0.281795
C124  C     C_2   0.994024 0.523204 0.351510 0.539511
H15   H     H_    0.984981 0.567805 0.348968 0.151663
O56   O     O_2   0.971027 0.481550 0.384020 -0.485943
C125  C     C_2   0.940143 0.373246 0.276056 0.655387
H16   H     H_    0.883369 0.368356 0.265110 0.133350
O57   O     O_2   0.944125 0.319969 0.284074 -0.432478
N13   N     N_R   0.028909 0.368490 0.214407 0.231444
O58   O     O_R   0.078996 0.346314 0.244366 -0.349527
O59   O     O_R   0.950814 0.322572 0.150346 -0.377458
N14   N     N_R   0.552004 0.817970 0.966731 0.205044
O60   O     O_R   0.633282 0.841385 0.009927 -0.355826
O61   O     O_R   0.508162 0.800771 0.995915 -0.267134
C126  C     C_2   0.409144 0.888986 0.748917 0.490003
H17   H     H_    0.450787 0.950341 0.766473 0.131795
O62   O     O_2   0.329459 0.854024 0.705766 -0.605908
C127  C     C_2   0.394366 0.845342 0.619225 0.554961
H18   H     H_    0.324256 0.818160 0.585103 0.121562
O63   O     O_2   0.443604 0.908686 0.622884 -0.425616
N15   N     N_R   0.409625 0.758197 0.541504 0.216960
O64   O     O_R   0.443189 0.817551 0.524304 -0.268104
O65   O     O_R   0.342613 0.692042 0.486575 -0.387028
N16   N     N_R   0.523843 0.725769 0.571753 0.239976
O66   O     O_R   0.586449 0.798028 0.598383 -0.273524
O67   O     O_R   0.477778 0.685970 0.499174 -0.293909
N17   N     N_R   0.476179 0.539857 0.700346 0.243155
O68   O     O_R   0.534062 0.527969 0.715814 -0.325162
O69   O     O_R   0.399191 0.483655 0.680412 -0.278846
N18   N     N_R   0.518793 0.593341 0.837378 0.200525
O70   O     O_R   0.460026 0.533938 0.838770 -0.308213
O71   O     O_R   0.597321 0.610828 0.872174 -0.288384
N19   N     N_R   0.747255 0.647262 0.844888 0.252408
O72   O     O_R   0.696998 0.573996 0.826517 -0.349451
O73   O     O_R   0.795237 0.691287 0.916357 -0.319075
C128  C     C_2   0.505885 0.674787 0.923835 0.665147
H19   H     H_    0.561119 0.676122 0.967942 0.101319
O74   O     O_2   0.444912 0.653687 0.927861 -0.406315
C129  C     C_2   0.820738 0.574659 0.106475 0.564604
H20   H     H_    0.823627 0.622127 0.090073 0.093329
O75   O     O_2   0.854049 0.582187 0.174202 -0.485419
C130  C     C_2   0.866997 0.464763 0.133433 0.557079
H21   H     H_    0.862805 0.419759 0.155243 0.039704
O76   O     O_2   0.936890 0.528145 0.168792 -0.561700
N20   N     N_R   0.590120 0.278070 0.874951 0.262719
O77   O     O_R   0.611275 0.239509 0.854472 -0.398900
O78   O     O_R   0.510545 0.242153 0.855508 -0.252870
C131  C     C_2   0.561752 0.396979 0.844319 0.653809
H22   H     H_    0.547499 0.438159 0.842577 0.118344
O79   O     O_2   0.514029 0.341516 0.785722 -0.409906
N21   N     N_R   0.647851 0.262048 0.042438 0.203530
O80   O     O_R   0.562410 0.216764 0.999248 -0.308986
O81   O     O_R   0.688714 0.319996 0.102189 -0.342558
N22   N     N_R   0.855911 0.238767 0.970428 0.224293
O82   O     O_R   0.830646 0.220067 0.899667 -0.388379
O83   O     O_R   0.920440 0.238462 0.023324 -0.303284
C132  C     C_2   0.837500 0.146538 0.123031 0.659314
H23   H     H_    0.892121 0.147408 0.167491 0.130647
O84   O     O_2   0.822508 0.187261 0.142529 -0.482402
N23   N     N_R   0.824970 0.013050 0.091695 0.176570
O85   O     O_R   0.900633 0.028469 0.115327 -0.325062
O86   O     O_R   0.796560 0.993130 0.133672 -0.298607
C133  C     C_2   0.744740 0.778711 0.824357 0.570528
H24   H     H_    0.766755 0.837165 0.834800 0.131115
O87   O     O_2   0.694581 0.738623 0.839811 -0.492326
C134  C     C_2   0.742127 0.919596 0.941370 0.488177
H25   H     H_    0.795441 0.919965 0.987191 0.167675
O88   O     O_2   0.684060 0.862862 0.882655 -0.620598
C135  C     C_2   0.668651 0.966395 0.812199 0.638430
H26   H     H_    0.622243 0.905246 0.782946 0.082641
O89   O     O_2   0.699769 0.004555 0.781618 -0.427235
C136  C     C_2   0.637086 0.079535 0.835383 0.468588
H27   H     H_    0.641759 0.131029 0.845138 0.108475
O90   O     O_2   0.585662 0.034496 0.769095 -0.496550
C137  C     C_2   0.335307 0.863043 0.366665 0.518291
H28   H     H_    0.289984 0.833179 0.381410 0.080305
O91   O     O_2   0.403761 0.926134 0.411662 -0.404720
C138  C     C_2   0.191861 0.846586 0.232025 0.560046
H29   H     H_    0.176914 0.836026 0.273457 0.075085
O92   O     O_2   0.173805 0.884352 0.196042 -0.441015
C139  C     C_2   0.141741 0.781548 0.078476 0.633763
H30   H     H_    0.147371 0.794087 0.032319 0.128434
O93   O     O_2   0.072792 0.758235 0.069408 -0.521419
N24   N     N_R   0.390654 0.760914 0.205071 0.219855
O94   O     O_R   0.355646 0.704595 0.146941 -0.283347
O95   O     O_R   0.475956 0.806363 0.253997 -0.293643
C140  C     C_2   0.432323 0.812595 0.353735 0.623370
H31   H     H_    0.439620 0.767333 0.350356 0.149729
O96   O     O_2   0.486036 0.867379 0.414098 -0.418742
N25   N     N_R   0.387251 0.889608 0.132660 0.192297
O97   O     O_R   0.367268 0.929959 0.152048 -0.336383
O98   O     O_R   0.466596 0.908858 0.178179 -0.279364
N26   N     N_R   0.093240 0.627803 0.860373 0.216542
O99   O     O_R   0.086060 0.567893 0.835943 -0.245928
O100  O     O_R   0.036826 0.639249 0.813020 -0.273215
C141  C     C_2   0.914476 0.646511 0.874925 0.556585
H32   H     H_    0.913137 0.692346 0.892756 0.100703
O101  O     O_2   0.985708 0.658135 0.906008 -0.551012
C142  C     C_2   0.149466 0.826630 0.848048 0.590241
H33   H     H_    0.125194 0.857570 0.819067 0.093077
O102  O     O_2   0.154840 0.822696 0.906861 -0.531893
C143  C     C_2   0.207265 0.668796 0.687904 0.555318
H34   H     H_    0.210603 0.684555 0.641595 0.074412
O103  O     O_2   0.202565 0.611855 0.696070 -0.438522
N27   N     N_R   0.277531 0.686259 0.851024 0.247031
O104  O     O_R   0.263450 0.649532 0.894555 -0.263678
O105  O     O_R   0.336754 0.695918 0.843272 -0.335793
N28   N     N_R   0.617526 0.371424 0.608789 0.191187
O106  O     O_R   0.540863 0.325831 0.595021 -0.272881
O107  O     O_R   0.634172 0.350200 0.565631 -0.341187
N29   N     N_R   0.842858 0.419819 0.683754 0.262323
O108  O     O_R   0.825649 0.400565 0.616230 -0.262814
O109  O     O_R   0.893712 0.491573 0.725680 -0.255852
C144  C     C_2   0.852432 0.292550 0.682747 0.525182
H35   H     H_    0.829766 0.239064 0.648028 0.071132
O110  O     O_2   0.925523 0.349376 0.707900 -0.441924

loop_
_geom_bond_atom_site_label_1
_geom_bond_atom_site_label_2
_geom_bond_distance
_ccdc_geom_bond_type
O17   Zn5   2.021453 S    
C144  O110  1.221209 D    
C11   C16   1.398775 A    
C117  H8    1.083287 S    
C126  H17   1.082871 S    
C38   N7    1.438363 S    
N7    O39   1.300399 A    
N26   O99   1.300769 A    
C91   C92   1.429742 A    
C17   N29   1.439081 S    
C89   C98   1.497847 S    
C35   N8    1.435298 S    
N3    O31   1.301125 A    
O4    C2    1.292231 A    
O13   C75   1.279290 A    
C2    C15   1.439817 S    
C130  O76   1.220074 D    
C108  C109  1.406303 A    
O14   C75   1.299871 A    
C1    C37   1.452118 S    
C128  H19   1.085358 S    
C134  H25   1.083106 S    
C30   C31   1.397041 A    
O5    C3    1.289756 A    
N18   O70   1.301424 A    
C9    C10   1.412598 A    
C90   N22   1.437745 S    
C93   C132  1.493979 S    
C53   C124  1.488268 S    
C39   C119  1.487701 S    
C40   C120  1.491246 S    
C67   C72   1.406230 A    
C114  C115  1.421349 A    
C45   C46   1.420490 A    
O17   C77   1.286669 A    
C11   C12   1.410267 A    
C62   C69   1.424926 A    
C29   N5    1.432674 S    
N8    O42   1.300944 A    
C5    C10   1.410003 A    
N18   O71   1.300427 A    
C123  H14   1.081855 S    
C105  C106  1.399861 A    
C121  H12   1.084122 S    
C9    C133  1.489330 S    
C46   C76   1.448353 S    
N8    O41   1.301333 A    
C69   C128  1.484035 S    
C57   N14   1.437907 S    
N28   O106  1.300625 A    
C61   C62   1.419959 A    
N15   O64   1.300876 A    
O11   C74   1.299805 A    
N7    O38   1.301155 A    
C81   C129  1.485143 S    
N16   O67   1.301239 A    
Zn4   O14   2.024791 S    
C100  C139  1.490243 S    
N1    O25   1.300303 A    
C39   C44   1.417948 A    
C8    N19   1.444299 S    
N23   O86   1.300960 A    
C111  C142  1.490698 S    
C42   C43   1.399679 A    
N25   O97   1.300320 A    
C99   C104  1.413480 A    
O11   Zn3   2.011754 S    
C111  C112  1.398196 A    
C64   C65   1.404120 A    
C58   C59   1.421376 A    
N21   O81   1.300539 A    
C105  C110  1.396108 A    
O4    Zn2   2.017395 S    
C105  N25   1.440860 S    
C82   C130  1.480188 S    
C109  C110  1.425030 A    
N24   O95   1.301700 A    
C95   C96   1.418545 A    
N13   O58   1.300709 A    
C27   C32   1.408963 A    
O12   Zn4   2.038043 S    
C138  O92   1.220960 D    
C20   H1    1.083647 S    
C99   C138  1.490468 S    
C55   C56   1.408966 A    
C70   N16   1.440558 S    
C87   N21   1.443436 S    
O10   C73   1.297979 A    
Zn2   O6    2.031305 S    
N10   O47   1.301129 A    
C3    C71   1.446725 S    
C12   C13   1.421523 A    
C142  O102  1.219881 D    
O19   Zn5   2.048268 S    
C133  H24   1.083322 S    
N29   O109  1.298059 A    
C120  H11   1.083997 S    
H5    C86   1.085447 S    
C112  H6    1.083738 S    
C14   N28   1.438918 S    
C93   C94   1.409788 A    
O24   C80   1.286665 A    
C118  H9    1.083718 S    
C88   C89   1.403935 A    
C140  O96   1.219586 D    
C71   C72   1.409884 A    
C17   C22   1.418269 A    
C64   N15   1.437825 S    
N28   O107  1.300522 A    
C25   C26   1.407046 A    
C48   C122  1.497802 S    
C23   C24   1.406322 A    
C26   C29   1.420387 A    
C113  C114  1.397175 A    
N20   O77   1.300833 A    
C125  O57   1.220573 D    
N27   O105  1.297107 A    
C51   C56   1.417810 A    
N9    O43   1.301234 A    
N19   O72   1.300596 A    
C87   C92   1.396957 A    
C60   C63   1.433897 A    
C131  O79   1.219955 D    
C13   C14   1.392317 A    
C141  O101  1.219064 D    
C52   C53   1.412156 A    
Zn3   O13   2.033374 S    
C135  H26   1.080978 S    
N4    O33   1.301095 A    
N5    O35   1.300637 A    
O3    Zn1   2.031814 S    
C77   C106  1.435754 S    
N14   O60   1.300694 A    
N6    O37   1.301062 A    
C7    C8    1.416536 A    
N11   O53   1.301118 A    
C27   C28   1.421651 A    
C97   C136  1.500070 S    
O10   Zn4   2.033373 S    
C59   C126  1.481789 S    
C23   C28   1.404491 A    
C136  H27   1.082689 S    
O12   C74   1.277899 A    
C52   N11   1.436155 S    
N12   O54   1.300299 A    
C15   C16   1.417370 A    
C115  N27   1.442082 S    
O1    C1    1.289630 A    
N2    O29   1.299197 A    
C102  N24   1.446294 S    
C19   C20   1.401552 A    
Zn2   O8    2.031815 S    
C139  H30   1.084403 S    
C132  O84   1.218845 D    
C94   N23   1.435858 S    
C83   C92   1.506848 S    
Zn3   O15   2.037905 S    
O15   C76   1.289148 A    
C39   C40   1.422850 A    
C94   C95   1.410356 A    
C41   C42   1.397470 A    
C141  H32   1.082886 S    
Zn5   O23   2.022493 S    
C103  C140  1.490038 S    
C126  O62   1.219988 D    
C99   C100  1.419302 A    
C57   C58   1.411858 A    
C82   C83   1.422657 A    
C43   C44   1.414277 A    
C41   C50   1.496453 S    
O9    Zn3   2.024790 S    
Zn6   O22   2.021454 S    
C134  O88   1.218478 D    
C47   C48   1.397488 A    
C49   C50   1.408212 A    
C63   C127  1.479940 S    
C115  C116  1.424243 A    
C127  H18   1.084826 S    
C137  H28   1.084541 S    
C12   C74   1.451165 S    
C47   C56   1.496708 S    
C18   C144  1.487318 S    
C42   H4    1.083222 S    
C59   C60   1.415601 A    
C24   C25   1.408425 A    
O19   C78   1.283529 A    
C100  C101  1.420178 A    
C63   C64   1.396947 A    
C85   C86   1.396014 A    
C123  O51   1.218113 D    
C55   N13   1.432107 S    
C18   C19   1.416029 A    
C112  C113  1.387604 A    
C57   C62   1.408444 A    
Zn4   O16   2.011759 S    
C58   C80   1.475737 S    
C44   N9    1.436682 S    
C8    C9    1.418360 A    
C51   C123  1.488253 S    
C6    C7    1.416653 A    
N17   O68   1.299594 A    
C95   C134  1.492563 S    
C54   C125  1.487211 S    
N1    O26   1.300848 A    
C129  O75   1.220738 D    
C144  H35   1.084082 S    
C117  O27   1.220720 D    
Zn5   O21   2.036073 S    
N25   O98   1.300382 A    
C36   N6    1.437263 S    
C143  O103  1.220711 D    
C73   C91   1.458223 S    
N26   O100  1.299731 A    
C142  H33   1.085793 S    
C75   C109  1.448796 S    
C70   C71   1.399588 A    
C121  O49   1.219127 D    
C81   C86   1.395066 A    
C140  H31   1.084200 S    
C101  C102  1.420833 A    
C19   C117  1.486800 S    
C130  H21   1.081953 S    
C40   C41   1.418674 A    
C53   C54   1.417036 A    
C46   C47   1.420505 A    
C48   C49   1.404934 A    
C124  H15   1.085121 S    
C79   C88   1.427610 S    
N22   O82   1.301234 A    
O3    C2    1.275740 A    
C37   C38   1.409110 A    
O16   C76   1.288284 A    
C90   C91   1.416000 A    
C31   C32   1.411578 A    
C96   C97   1.422905 A    
C30   H2    1.082591 S    
C33   C34   1.398266 A    
C143  H34   1.085918 S    
C120  O46   1.220112 D    
O1    Zn1   2.031311 S    
O2    Zn2   2.039773 S    
C118  O40   1.221020 D    
C84   C85   1.419642 A    
C45   C121  1.497561 S    
O20   C78   1.286045 A    
C11   C141  1.494169 S    
C21   C22   1.410410 A    
C119  H10   1.085320 S    
N15   O65   1.300245 A    
C113  H7    1.083836 S    
N27   O104  1.299898 A    
C65   C70   1.401475 A    
C111  C116  1.426327 A    
C4    C49   1.429263 S    
N16   O66   1.300693 A    
N9    O44   1.300118 A    
O23   C80   1.295240 A    
C96   C135  1.484469 S    
C103  C104  1.417193 A    
N29   O108  1.301459 A    
Zn6   O24   2.048268 S    
N23   O85   1.300961 A    
C68   C69   1.397557 A    
C122  O50   1.217859 D    
C107  C108  1.393019 A    
C93   C98   1.420376 A    
C33   C38   1.399157 A    
C137  O91   1.220451 D    
N5    O34   1.301076 A    
N3    O30   1.301153 A    
C32   C33   1.411525 A    
N14   O61   1.302466 A    
C67   C68   1.414303 A    
N11   O52   1.301013 A    
Zn1   O7    2.017393 S    
C45   C50   1.395126 A    
C26   C27   1.422361 A    
C10   N1    1.434149 S    
C7    C16   1.494689 S    
N24   O94   1.298917 A    
C136  O90   1.218911 D    
C138  H29   1.084697 S    
O7    C4    1.275952 A    
C34   H3    1.081966 S    
C5    C6    1.413218 A    
C81   C82   1.419276 A    
C83   C84   1.425947 A    
C54   C55   1.413751 A    
C128  O74   1.219798 D    
C97   C98   1.420381 A    
C13   C22   1.494515 S    
O18   Zn6   2.036070 S    
C132  H23   1.084709 S    
C101  C110  1.499645 S    
O21   C79   1.275519 A    
N17   O69   1.301127 A    
O18   C77   1.276078 A    
C84   N20   1.442358 S    
O20   Zn6   2.022493 S    
C60   C61   1.425807 A    
C14   C15   1.401513 A    
C23   N3    1.438733 S    
N20   O78   1.301275 A    
C125  H16   1.084375 S    
N22   O83   1.300601 A    
N10   O48   1.301311 A    
C43   N10   1.443544 S    
N19   O73   1.301620 A    
C85   C131  1.489262 S    
C36   C37   1.406652 A    
C131  H22   1.086178 S    
C25   N4    1.438097 S    
O22   C79   1.282259 A    
C28   C35   1.418296 A    
C29   C30   1.387071 A    
C124  O56   1.220506 D    
O8    C4    1.285401 A    
C127  O63   1.220400 D    
C135  O89   1.220596 D    
N4    O32   1.300994 A    
C34   C35   1.386342 A    
N21   O80   1.299953 A    
N6    O36   1.300520 A    
C61   C66   1.405800 A    
C133  O87   1.219011 D    
C66   C67   1.417351 A    
C6    N12   1.439671 S    
O6    C3    1.282113 A    
C129  H20   1.085802 S    
N13   O59   1.296488 A    
C102  C103  1.417394 A    
C72   N17   1.436883 S    
C104  C137  1.484739 S    
N2    O28   1.301694 A    
O9    C73   1.286678 A    
O2    C1    1.284637 A    
C24   C78   1.450279 S    
C106  C107  1.410037 A    
C20   C21   1.397606 A    
C68   N18   1.437787 S    
C139  O93   1.221116 D    
C122  H13   1.083014 S    
C31   C36   1.400337 A    
C107  C116  1.492144 S    
C119  O45   1.220820 D    
C108  N26   1.436206 S    
C65   C66   1.412679 A    
Zn1   O5    2.039771 S    
C114  C143  1.483509 S    
N12   O55   1.301547 A    
C51   C52   1.412614 A    
C5    C118  1.490086 S    
C17   C18   1.419079 A    
C87   C88   1.403398 A    
C89   C90   1.390341 A    
C21   N2    1.434216 S    
