data_mof_unit_26373.cif
_audit_creation_date              2012-12-11T17:01:29-0500
_audit_creation_method            fapswitch 2.2
_symmetry_space_group_name_H-M    P1
_symmetry_Int_Tables_number       1
_space_group_crystal_system       triclinic
_cell_length_a                    15.05389
_cell_length_b                    14.97203
_cell_length_c                    14.932953
_cell_angle_alpha                 109.696693
_cell_angle_beta                  109.157696
_cell_angle_gamma                 109.960033
_cell_volume                      2577.92309797

loop_
_atom_site_label
_atom_site_type_symbol
_atom_type_description
_atom_site_fract_x
_atom_site_fract_y
_atom_site_fract_z
_atom_type_partial_charge
C1    C     C_R   0.953028 0.769047 0.046701 -0.140304
C2    C     C_R   0.223339 0.750849 0.315202 -0.133681
C3    C     C_R   0.906484 0.408428 0.209436 -0.125811
C4    C     C_R   0.792308 0.195768 0.700408 -0.177501
C5    C     C_R   0.298805 0.590334 0.993912 -0.158178
C6    C     C_R   0.933830 0.500414 0.301127 0.079356
C7    C     C_R   0.298747 0.497944 0.932040 -0.002495
C8    C     C_R   0.325650 0.776104 0.325116 0.076512
C9    C     C_R   0.932631 0.132779 0.934062 0.079753
C10   C     C_3   0.469955 0.388530 0.845177 -0.404350
C11   C     C_3   0.365761 0.390496 0.833916 -0.406348
C12   C     C_R   0.698198 0.131858 0.696314 0.068148
C13   C     C_3   0.563816 0.504253 0.052326 -0.402176
C14   C     C_3   0.571225 0.594820 0.936275 -0.390767
C15   C     C_3   0.571252 0.495921 0.949178 0.394190
C16   C     C_R   0.036667 0.590977 0.776214 -0.140084
C17   C     C_3   0.395528 0.497059 0.932992 0.398914
C18   C     C_3   0.459267 0.502355 0.041644 -0.386111
C19   C     C_3   0.468478 0.597463 0.930330 -0.411703
C20   C     C_R   0.623261 0.963580 0.520074 0.093339
C21   C     C_R   0.620530 0.014813 0.616000 -0.024731
C22   C     C_R   0.530514 0.955525 0.623683 -0.168924
C23   C     C_R   0.962253 0.499547 0.672785 0.069150
C24   C     C_R   0.435232 0.863966 0.528586 -0.205855
C25   C     C_R   0.430170 0.832445 0.426180 0.057265
C26   C     C_R   0.529006 0.874096 0.426173 0.097609
C27   C     C_3   0.559223 0.911676 0.353854 -0.683261
C28   C     C_R   0.684230 0.405623 0.941578 -0.142794
C29   C     C_3   0.662899 0.009092 0.456643 0.498812
C30   C     C_R   0.944149 0.602058 0.476935 0.168161
C31   C     C_R   0.897727 0.502713 0.380671 0.028898
C32   C     C_R   0.833540 0.404211 0.373888 -0.208285
C33   C     C_R   0.842937 0.404092 0.470094 -0.203201
C34   C     C_R   0.672629 0.497145 0.965802 -0.000519
C35   C     C_R   0.916629 0.502356 0.571988 0.035314
C36   C     C_R   0.954510 0.601924 0.571960 0.169746
C37   C     C_3   0.063951 0.705750 0.641199 -0.533342
C38   C     C_3   0.052033 0.706263 0.537555 -0.524112
C39   C     C_R   0.862737 0.892094 0.967600 0.164793
C40   C     C_R   0.940803 0.407123 0.683973 -0.127035
C41   C     C_R   0.927346 0.858303 0.933134 0.036996
C42   C     C_R   0.945688 0.879724 0.854209 -0.203592
C43   C     C_R   0.928382 0.959720 0.837074 -0.193115
C44   C     C_R   0.894337 0.017729 0.900287 0.030623
C45   C     C_R   0.993313 0.591344 0.297870 -0.164367
C46   C     C_R   0.846218 0.971445 0.951405 0.161924
C47   C     C_3   0.852496 0.022644 0.060461 -0.524320
C48   C     C_3   0.869851 0.935225 0.077333 -0.533469
C49   C     C_R   0.774474 0.589876 0.041974 -0.136007
C50   C     C_R   0.699280 0.195608 0.789276 -0.117084
C51   C     C_R   0.047440 0.774197 0.958806 -0.133605
C52   C     C_R   0.977106 0.806047 0.980438 0.072369
C53   C     C_3   0.798380 0.057270 0.412848 -0.257162
C54   C     C_R   0.207711 0.407112 0.904993 -0.138421
C55   C     C_R   0.312870 0.745764 0.221359 -0.141335
C56   C     C_R   0.903306 0.196541 0.994465 -0.147304
C57   C     C_R   0.997170 0.195867 0.905916 -0.123393
H1    H     H_    0.909864 0.787596 0.087365 0.100403
H2    H     H_    0.475589 0.379963 0.770551 0.159023
H3    H     H_    0.321483 0.386760 0.755439 0.158482
H4    H     H_    0.827832 0.167268 0.653337 0.138706
H5    H     H_    0.312232 0.315316 0.830397 0.148156
H6    H     H_    0.565175 0.434460 0.062931 0.157372
H7    H     H_    0.408468 0.429669 0.043783 0.159723
H8    H     H_    0.643597 0.674737 0.006454 0.142982
H9    H     H_    0.573615 0.587301 0.860477 0.160552
H10   H     H_    0.422547 0.596202 0.853948 0.156737
H11   H     H_    0.494758 0.676123 0.001485 0.149065
H12   H     H_    0.177466 0.321119 0.852336 0.088919
H13   H     H_    0.634868 0.581920 0.127624 0.160222
H14   H     H_    0.480039 0.577463 0.113613 0.159258
H15   H     H_    0.527680 0.986604 0.698750 0.119681
H16   H     H_    0.075748 0.674795 0.797309 0.099832
H17   H     H_    0.362880 0.828228 0.534104 0.123157
H18   H     H_    0.573096 0.853448 0.298559 0.218507
H19   H     H_    0.505129 0.937661 0.313018 0.170046
H20   H     H_    0.668863 0.090274 0.474801 0.005041
H21   H     H_    0.788281 0.325807 0.298523 0.122666
H22   H     H_    0.803674 0.325727 0.465065 0.120513
H23   H     H_    0.372916 0.747539 0.197097 0.116845
H24   H     H_    0.063038 0.775776 0.697920 0.187776
H25   H     H_    0.132591 0.693391 0.678904 0.197907
H26   H     H_    0.043096 0.775890 0.533979 0.193068
H27   H     H_    0.621830 0.319668 0.893275 0.091761
H28   H     H_    0.114528 0.695204 0.518907 0.198258
H29   H     H_    0.984710 0.845301 0.815729 0.123810
H30   H     H_    0.956783 0.986045 0.787708 0.131574
H31   H     H_    0.925414 0.106165 0.121333 0.204405
H32   H     H_    0.773496 0.014837 0.051539 0.186666
H33   H     H_    0.952309 0.969972 0.146808 0.199480
H34   H     H_    0.838610 0.168850 0.012523 0.099471
H35   H     H_    0.800525 0.876637 0.077490 0.186723
H36   H     H_    0.887152 0.321628 0.620417 0.089305
H37   H     H_    0.791973 0.670971 0.093758 0.080750
H38   H     H_    0.647311 0.167099 0.820859 0.077768
H39   H     H_    0.094389 0.804369 0.923977 0.084121
H40   H     H_    0.010619 0.674169 0.343849 0.105052
H41   H     H_    0.828138 0.146838 0.458276 0.118300
H42   H     H_    0.736498 0.019484 0.325317 0.141301
H43   H     H_    0.868973 0.048344 0.414433 0.171055
H44   H     H_    0.022265 0.167724 0.847146 0.089633
H45   H     H_    0.202722 0.762066 0.379412 0.094790
H46   H     H_    0.848258 0.323590 0.177691 0.082873
H47   H     H_    0.354230 0.675146 0.022689 0.087773
H48   H     H_    0.464246 0.314923 0.851044 0.148653
N1    N     N_R   0.995640 0.706130 0.053910 -0.038879
N2    N     N_R   0.054010 0.556790 0.847890 -0.038511
N3    N     N_R   0.789940 0.443190 0.997130 -0.035519
N4    N     N_R   0.997630 0.443170 0.791110 -0.038456
N5    N     N_R   0.846320 0.556810 0.053910 -0.032986
N6    N     N_R   0.791080 0.293860 0.847890 -0.037684
N7    N     N_R   0.052880 0.706130 0.997130 -0.038978
N8    N     N_R   0.002370 0.556830 0.208890 -0.038755
N9    N     N_R   0.153680 0.443190 0.946090 -0.033836
N10   N     N_R   0.208920 0.706140 0.152110 -0.043867
N11   N     N_R   0.947120 0.293870 0.002870 -0.039845
N12   N     N_R   0.004360 0.293870 0.946090 -0.040360
N13   N     N_R   0.151690 0.706140 0.208890 -0.041563
N14   N     N_R   0.945990 0.443210 0.152110 -0.039867
N15   N     N_R   0.210060 0.556810 0.002870 -0.034544
N16   N     N_R   0.848310 0.293860 0.791110 -0.037544
Ni1   Ni    Ni4+2 0.999010 0.630300 0.130220 0.208813
Ni2   Ni    Ni4+2 0.000990 0.369700 0.869780 0.214298
Ni3   Ni    Ni4+2 0.130280 0.630280 0.000000 0.208802
Ni4   Ni    Ni4+2 0.869720 0.369720 0.000000 0.203695
O1    O     O_3   0.756703 0.003791 0.463603 -0.599705

loop_
_geom_bond_atom_site_label_1
_geom_bond_atom_site_label_2
_ccdc_geom_bond_type
C51   N7    A    
C6    C45   A    
C38   H26   S    
C28   H27   S    
N2    N4    A    
C41   C42   A    
C35   C36   A    
C40   H36   S    
C3    C6    A    
C18   H7    S    
C2    N13   A    
C39   C41   A    
N1    N7    A    
C53   H42   S    
C26   C27   S    
C20   C26   A    
C13   C18   S    
C36   C37   S    
N7    Ni3   S    
C10   C15   S    
C30   C31   A    
C50   H38   S    
C27   C29   S    
C13   H13   S    
C2    H45   S    
C23   C40   A    
C54   N9    A    
N11   N12   A    
C30   C38   S    
N13   Ni1   S    
C16   N2    A    
C17   C19   S    
N8    N14   A    
N15   Ni3   S    
C56   H34   S    
N8    Ni1   S    
C31   C32   A    
N6    N16   A    
C7    C17   S    
N6    Ni4   S    
C19   H10   S    
C42   H29   S    
N3    Ni4   S    
C4    C12   A    
C15   C34   S    
C1    N1    A    
C11   H5    S    
C6    C31   S    
C5    H47   S    
C28   C34   A    
C48   H33   S    
C29   O1    S    
C8    C25   S    
C47   H32   S    
C37   H24   S    
N2    Ni3   S    
C27   H18   S    
C8    C55   A    
C22   H15   S    
C44   C46   A    
C20   C29   S    
C53   H43   S    
C14   H9    S    
C5    N15   A    
C51   C52   A    
C24   C25   A    
C10   C11   S    
C5    C7    A    
N4    Ni2   S    
C38   H28   S    
C25   C26   A    
C12   C21   S    
C16   H16   S    
C32   C33   A    
C43   C44   A    
C37   C38   S    
C47   C48   S    
C13   H6    S    
N10   N13   A    
N1    Ni1   S    
C17   C18   S    
C56   N11   A    
C19   H11   S    
C9    C56   A    
C9    C44   S    
C3    N14   A    
C39   C46   A    
N9    Ni2   S    
N14   Ni4   S    
C16   C23   A    
C23   C35   S    
N11   Ni4   S    
C13   C15   S    
C49   H37   S    
C22   C24   A    
C37   H25   S    
C42   C43   A    
C27   H19   S    
C57   N12   A    
C3    H46   S    
C18   H14   S    
C46   C47   S    
C11   C17   S    
C34   C49   A    
N10   Ni3   S    
C41   C52   S    
C14   C19   S    
C2    C8    A    
C33   H22   S    
C12   C50   A    
C40   N4    A    
C53   H41   S    
C57   H44   S    
C51   H39   S    
C30   C36   A    
C43   H30   S    
C47   H31   S    
C10   H2    S    
N12   Ni2   S    
C45   H40   S    
C1    H1    S    
N5    Ni1   S    
C55   H23   S    
C24   H17   S    
C54   H12   S    
C55   N10   A    
C28   N3    A    
C4    H4    S    
C50   N6    A    
C33   C35   A    
C14   H8    S    
N3    N5    A    
C4    N16   A    
C9    C57   A    
C1    C52   A    
N16   Ni2   S    
C53   O1    S    
C32   H21   S    
C45   N8    A    
C29   H20   S    
C20   C21   A    
C48   H35   S    
C14   C15   S    
C39   C48   S    
C10   H48   S    
C7    C54   A    
C21   C22   A    
N9    N15   A    
C11   H3    S    
C49   N5    A    
