data_mof_unit_22581.cif
_audit_creation_date              2012-12-11T15:50:47-0500
_audit_creation_method            fapswitch 2.2
_symmetry_space_group_name_H-M    P1
_symmetry_Int_Tables_number       1
_space_group_crystal_system       triclinic
_cell_length_a                    19.169675
_cell_length_b                    11.341958
_cell_length_c                    18.665447
_cell_angle_alpha                 89.907535
_cell_angle_beta                  90.179043
_cell_angle_gamma                 90.225805
_cell_volume                      4058.21572617

loop_
_atom_site_label
_atom_site_type_symbol
_atom_type_description
_atom_site_fract_x
_atom_site_fract_y
_atom_site_fract_z
_atom_type_partial_charge
C1    C     C_R   0.285992 0.006957 0.861514 0.615773
C2    C     C_R   0.712700 0.004074 0.138788 0.630292
C3    C     C_R   0.787375 0.503610 0.861350 0.634867
C4    C     C_R   0.214270 0.507857 0.138656 0.613602
C5    C     C_3   0.522958 0.735210 0.972403 -0.089064
C6    C     C_3   0.468209 0.739770 0.033075 -0.118606
C7    C     C_3   0.031952 0.240267 0.966897 -0.119358
C8    C     C_3   0.977203 0.235091 0.027574 -0.089158
C9    C     C_R   0.227659 0.531723 0.062363 0.117731
C10   C     C_R   0.775606 0.523566 0.938457 0.149917
C11   C     C_R   0.724477 0.024253 0.061747 0.151187
C12   C     C_R   0.272702 0.030456 0.937938 0.117102
C13   C     C_R   0.274016 0.462620 0.020924 0.046844
C14   C     C_R   0.724011 0.463411 0.978104 -0.001589
C15   C     C_R   0.775486 0.963554 0.022071 0.003075
C16   C     C_R   0.225461 0.962149 0.979329 0.043785
C17   C     C_R   0.283953 0.492580 0.948919 -0.008913
C18   C     C_R   0.714224 0.492210 0.050647 -0.009246
C19   C     C_R   0.785226 0.992161 0.949425 -0.007163
C20   C     C_R   0.215447 0.992412 0.051225 -0.010044
C21   C     C_R   0.184509 0.617596 0.952127 0.009868
C22   C     C_R   0.817235 0.611217 0.048972 -0.016856
C23   C     C_R   0.683145 0.112329 0.951388 -0.015999
C24   C     C_R   0.316016 0.116077 0.048341 0.008972
C25   C     C_R   0.183131 0.610560 0.025440 0.137287
C26   C     C_R   0.820773 0.600113 0.975557 0.155506
C27   C     C_R   0.679774 0.101236 0.024746 0.154102
C28   C     C_R   0.317747 0.108805 0.974985 0.138555
C29   C     C_3   0.351448 0.449922 0.030389 0.270061
C30   C     C_3   0.646994 0.468571 0.964405 0.265708
C31   C     C_3   0.852535 0.968457 0.035604 0.264655
C32   C     C_3   0.147901 0.950545 0.969601 0.270483
C33   C     C_3   0.360977 0.497923 0.954478 0.494966
C34   C     C_3   0.637897 0.508564 0.041923 0.488013
C35   C     C_3   0.861676 0.008545 0.958008 0.486757
C36   C     C_3   0.138497 0.998206 0.045496 0.496471
C37   C     C_R   0.240051 0.571323 0.913986 0.023112
C38   C     C_R   0.759981 0.568215 0.086448 0.036591
C39   C     C_R   0.739819 0.068510 0.913714 0.038477
C40   C     C_R   0.259794 0.070761 0.086250 0.020375
C41   C     C_R   0.489810 0.824016 0.417888 -0.003504
C42   C     C_R   0.459446 0.823214 0.564535 -0.009932
C43   C     C_R   0.989948 0.322961 0.417885 -0.003089
C44   C     C_R   0.960672 0.323187 0.564656 -0.010180
C45   C     C_R   0.465691 0.821393 0.856768 0.635670
C46   C     C_R   0.531704 0.822176 0.144776 0.610933
C47   C     C_R   0.968410 0.322291 0.855148 0.621345
C48   C     C_R   0.034488 0.321343 0.143135 0.626942
C49   C     C_R   0.478337 0.717770 0.454914 0.024013
C50   C     C_R   0.463491 0.717673 0.527021 0.042033
C51   C     C_R   0.981461 0.216860 0.455884 0.019901
C52   C     C_R   0.966960 0.217251 0.527927 0.042471
C53   C     C_R   0.464532 0.929219 0.526788 -0.125889
C54   C     C_R   0.476709 0.929652 0.453121 -0.113644
C55   C     C_R   0.962351 0.428625 0.525927 -0.123876
C56   C     C_R   0.973325 0.428129 0.451963 -0.109694
C57   C     C_3   0.526494 0.614994 0.462931 -0.261719
C58   C     C_3   0.511945 0.617481 0.541911 -0.264403
C59   C     C_3   0.031570 0.116774 0.464166 -0.257989
C60   C     C_3   0.017304 0.119897 0.543268 -0.263885
C61   C     C_R   0.221639 0.514382 0.439901 -0.063836
C62   C     C_R   0.777689 0.516663 0.560791 -0.057626
C63   C     C_R   0.733151 0.040621 0.436661 -0.060874
C64   C     C_R   0.278588 0.013899 0.560537 -0.058781
C65   C     C_R   0.165538 0.547038 0.481849 0.048201
C66   C     C_R   0.829095 0.572375 0.522297 0.022227
C67   C     C_R   0.674320 0.062493 0.477348 0.063710
C68   C     C_R   0.330223 0.068540 0.521843 0.025804
C69   C     C_R   0.173374 0.566167 0.555002 -0.020657
C70   C     C_R   0.823884 0.590889 0.449538 -0.023893
C71   C     C_R   0.677929 0.070957 0.551244 -0.017997
C72   C     C_R   0.325066 0.086532 0.448830 -0.021408
C73   C     C_R   0.292133 0.493352 0.549490 0.102594
C74   C     C_R   0.711850 0.487579 0.449026 0.096135
C75   C     C_R   0.797430 0.000760 0.547938 0.105177
C76   C     C_R   0.212825 0.984643 0.448685 0.100186
C77   C     C_R   0.285019 0.486000 0.474324 -0.176919
C78   C     C_R   0.718962 0.472655 0.523805 -0.171613
C79   C     C_R   0.794005 0.002566 0.472262 -0.174686
C80   C     C_R   0.219897 0.969870 0.523534 -0.170235
C81   C     C_3   0.126422 0.658082 0.472083 0.271623
C82   C     C_3   0.853925 0.693106 0.536617 0.247479
C83   C     C_3   0.631806 0.169694 0.470569 0.263401
C84   C     C_3   0.354903 0.189367 0.535836 0.243596
C85   C     C_3   0.129467 0.675351 0.551270 0.032752
C86   C     C_3   0.855425 0.712960 0.457671 0.044968
C87   C     C_3   0.631701 0.177833 0.550241 0.029428
C88   C     C_3   0.357327 0.207698 0.456891 0.041363
C89   C     C_R   0.258922 0.633620 0.848905 0.575524
C90   C     C_R   0.741050 0.633130 0.150993 0.583269
C91   C     C_R   0.758877 0.133201 0.848988 0.584193
C92   C     C_R   0.241014 0.133495 0.151094 0.576417
C93   C     C_R   0.239433 0.554349 0.587271 0.004422
C94   C     C_R   0.761427 0.560571 0.414019 0.009309
C95   C     C_R   0.742498 0.057184 0.585660 0.001982
C96   C     C_R   0.262094 0.058199 0.413564 0.008196
C97   C     C_R   0.289151 0.001149 0.637884 0.556629
C98   C     C_R   0.723980 0.032546 0.358996 0.559144
C99   C     C_R   0.788828 0.502008 0.637805 0.555797
C100  C     C_R   0.211073 0.502042 0.362284 0.572988
C101  C     C_R   0.442837 0.819289 0.640112 0.549339
C102  C     C_R   0.529088 0.821988 0.351498 0.545113
C103  C     C_R   0.943475 0.319375 0.640067 0.547550
C104  C     C_R   0.028997 0.321883 0.351397 0.542920
C105  C     C_R   0.258291 0.632075 0.646880 0.534664
C106  C     C_R   0.741714 0.632644 0.353046 0.544369
C107  C     C_R   0.758733 0.132372 0.646755 0.534343
C108  C     C_R   0.241850 0.132135 0.353020 0.535808
C109  C     C_3   0.471040 0.931386 0.030818 0.270413
C110  C     C_3   0.525440 0.927844 0.969893 0.276125
C111  C     C_3   0.975019 0.427696 0.029867 0.276848
C112  C     C_3   0.029404 0.431854 0.968919 0.269931
C113  C     C_3   0.428440 0.836318 0.992668 0.391212
C114  C     C_3   0.565566 0.832365 0.009785 0.418905
C115  C     C_3   0.934728 0.331985 0.990101 0.418935
C116  C     C_3   0.071859 0.337056 0.007194 0.391444
C117  C     C_3   0.483243 0.831258 0.932493 -0.032637
C118  C     C_3   0.511082 0.834604 0.070166 -0.046785
C119  C     C_3   0.989202 0.334781 0.929699 -0.048744
C120  C     C_3   0.017060 0.331374 0.067377 -0.030700
Cr1   Cr    Cr6+3 0.229640 0.835880 0.747370 1.024507
Cr2   Cr    Cr6+3 0.770360 0.835880 0.252630 1.021769
Cr3   Cr    Cr6+3 0.729640 0.335880 0.747370 1.021174
Cr4   Cr    Cr6+3 0.270360 0.335880 0.252630 1.024619
Cr5   Cr    Cr6+3 0.387390 0.989720 0.750850 1.009137
Cr6   Cr    Cr6+3 0.612610 0.989720 0.249150 1.039835
Cr7   Cr    Cr6+3 0.887390 0.489720 0.750850 1.018459
Cr8   Cr    Cr6+3 0.112610 0.489720 0.249150 1.023699
Cr9   Cr    Cr6+3 0.385770 0.677220 0.749340 1.020317
Cr10  Cr    Cr6+3 0.614230 0.677220 0.250660 1.023396
Cr11  Cr    Cr6+3 0.885770 0.177220 0.749340 1.017671
Cr12  Cr    Cr6+3 0.114230 0.177220 0.250660 1.021105
H1    H     H_    0.462294 0.010687 0.555025 0.259406
H2    H     H_    0.481319 0.011504 0.424782 0.248244
H3    H     H_    0.958231 0.510464 0.553577 0.261298
H4    H     H_    0.973842 0.509198 0.422285 0.242247
H5    H     H_    0.086230 0.142072 0.451417 0.186673
H6    H     H_    0.992287 0.038660 0.563740 0.149732
H7    H     H_    0.581601 0.638094 0.450798 0.190057
H8    H     H_    0.485454 0.537299 0.561772 0.152569
H9    H     H_    0.505630 0.534996 0.435817 0.137535
H10   H     H_    0.558207 0.644365 0.574245 0.156394
H11   H     H_    0.011829 0.035406 0.437710 0.138293
H12   H     H_    0.063142 0.149816 0.575250 0.154165
H13   H     H_    0.330444 0.465672 0.442567 0.130762
H14   H     H_    0.675717 0.438448 0.553835 0.123444
H15   H     H_    0.839513 0.978662 0.441391 0.124670
H16   H     H_    0.176635 0.935778 0.553611 0.124337
H17   H     H_    0.158597 0.722992 0.443416 0.106553
H18   H     H_    0.813157 0.745121 0.564153 0.117474
H19   H     H_    0.663330 0.239380 0.445970 0.099308
H20   H     H_    0.313582 0.241598 0.562333 0.118467
H21   H     H_    0.155874 0.758099 0.564172 0.103961
H22   H     H_    0.821123 0.786564 0.442597 0.119845
H23   H     H_    0.655183 0.261206 0.566946 0.108659
H24   H     H_    0.323503 0.280581 0.441193 0.117037
H25   H     H_    0.539605 0.653590 0.947271 0.239819
H26   H     H_    0.445375 0.670222 0.065720 0.249854
H27   H     H_    0.054873 0.171066 0.934383 0.250075
H28   H     H_    0.960724 0.153083 0.052720 0.239639
H29   H     H_    0.148048 0.677416 0.927158 0.187962
H30   H     H_    0.853082 0.673588 0.073291 0.171994
H31   H     H_    0.647613 0.174953 0.927159 0.172046
H32   H     H_    0.352779 0.175630 0.073417 0.188335
H33   H     H_    0.875387 0.881635 0.049305 0.067200
H34   H     H_    0.129786 0.858997 0.962337 0.107717
H35   H     H_    0.368609 0.358051 0.037561 0.108960
H36   H     H_    0.623658 0.381785 0.950880 0.067130
O1    O     O_R   0.214300 0.709080 0.827500 -0.543203
O2    O     O_R   0.785700 0.709080 0.172500 -0.548596
O3    O     O_R   0.714300 0.209080 0.827500 -0.547362
O4    O     O_R   0.285700 0.209080 0.172500 -0.542710
O5    O     O_R   0.445900 0.919370 0.676500 -0.522884
O6    O     O_R   0.554100 0.919370 0.323500 -0.486992
O7    O     O_R   0.945900 0.419370 0.676500 -0.522835
O8    O     O_R   0.054100 0.419370 0.323500 -0.495190
O9    O     O_R   0.456660 0.717710 0.669820 -0.507849
O10   O     O_R   0.543340 0.717710 0.330180 -0.524625
O11   O     O_R   0.956660 0.217710 0.669820 -0.510985
O12   O     O_R   0.043340 0.217710 0.330180 -0.522068
O13   O     O_R   0.320590 0.625770 0.672930 -0.499970
O14   O     O_R   0.679410 0.625770 0.327070 -0.491598
O15   O     O_R   0.820590 0.125770 0.672930 -0.500445
O16   O     O_R   0.179410 0.125770 0.327070 -0.494134
O17   O     O_3   0.334270 0.834280 0.749190 -0.318192
O18   O     O_3   0.665730 0.834280 0.250810 -0.293140
O19   O     O_3   0.834270 0.334280 0.749190 -0.321407
O20   O     O_3   0.165730 0.334280 0.250810 -0.303058
O21   O     O_R   0.236190 0.958390 0.823150 -0.440783
O22   O     O_R   0.763810 0.958390 0.176850 -0.457381
O23   O     O_R   0.736190 0.458390 0.823150 -0.450392
O24   O     O_R   0.263810 0.458390 0.176850 -0.443167
O25   O     O_R   0.332090 0.075280 0.831290 -0.548096
O26   O     O_R   0.667910 0.075280 0.168710 -0.506267
O27   O     O_R   0.832090 0.575280 0.831290 -0.501967
O28   O     O_R   0.167910 0.575280 0.168710 -0.548636
O29   O     O_R   0.446280 0.918040 0.826620 -0.506890
O30   O     O_R   0.553720 0.918040 0.173380 -0.513100
O31   O     O_R   0.946280 0.418040 0.826620 -0.510311
O32   O     O_R   0.053720 0.418040 0.173380 -0.509023
O33   O     O_R   0.457080 0.716270 0.831760 -0.483351
O34   O     O_R   0.542920 0.716270 0.168240 -0.488718
O35   O     O_R   0.957080 0.216270 0.831760 -0.483687
O36   O     O_R   0.042920 0.216270 0.168240 -0.488115
O37   O     O_R   0.320980 0.624440 0.823040 -0.465212
O38   O     O_R   0.679020 0.624440 0.176960 -0.457769
O39   O     O_R   0.820980 0.124440 0.823040 -0.456673
O40   O     O_R   0.179020 0.124440 0.176960 -0.464392
O41   O     O_R   0.213880 0.710510 0.665560 -0.560185
O42   O     O_R   0.786120 0.710510 0.334440 -0.556873
O43   O     O_R   0.713880 0.210510 0.665560 -0.560402
O44   O     O_R   0.286120 0.210510 0.334440 -0.561273
O45   O     O_R   0.235800 0.959720 0.673040 -0.506492
O46   O     O_R   0.764200 0.959720 0.326960 -0.512033
O47   O     O_R   0.735800 0.459720 0.673040 -0.504804
O48   O     O_R   0.264200 0.459720 0.326960 -0.511609
O49   O     O_R   0.331670 0.076720 0.669350 -0.489402
O50   O     O_R   0.668330 0.076720 0.330650 -0.489483
O51   O     O_R   0.831670 0.576720 0.669350 -0.488310
O52   O     O_R   0.168330 0.576720 0.330650 -0.500772
F1    F     F_    0.357130 0.835573 0.983190 -0.610937
F2    F     F_    0.637090 0.834155 0.017990 -0.590548
F3    F     F_    0.863186 0.333530 0.981934 -0.590407
F4    F     F_    0.143141 0.336624 0.016682 -0.611016
N1    N     N_2   0.356196 0.456708 0.582891 -0.499991
H37   H     H_    0.393104 0.422023 0.549062 0.250592
C121  C     C_3   0.355095 0.403840 0.654474 -0.241737
H38   H     H_    0.376960 0.314519 0.655262 0.195651
H39   H     H_    0.301506 0.398355 0.676765 0.137285
H40   H     H_    0.389609 0.454792 0.690963 0.159589
N2    N     N_2   0.649247 0.448273 0.413757 -0.520607
H41   H     H_    0.609752 0.417374 0.446190 0.237897
C122  C     C_3   0.653761 0.391302 0.343831 -0.256995
H42   H     H_    0.628276 0.303643 0.344292 0.162317
H43   H     H_    0.708683 0.381238 0.326018 0.147135
H44   H     H_    0.623812 0.442321 0.303521 0.161122
N3    N     N_2   0.860149 0.960324 0.582627 -0.499198
H45   H     H_    0.897875 0.926610 0.549389 0.249906
C123  C     C_3   0.857565 0.906365 0.653877 -0.237652
H46   H     H_    0.880743 0.818051 0.655001 0.194004
H47   H     H_    0.803386 0.898588 0.674350 0.141693
H48   H     H_    0.890489 0.957691 0.691685 0.159863
N4    N     N_2   0.150802 0.943452 0.413320 -0.519444
H49   H     H_    0.112025 0.909878 0.445697 0.236585
C124  C     C_3   0.156517 0.887199 0.343372 -0.258646
H50   H     H_    0.130574 0.799961 0.343065 0.157706
H51   H     H_    0.211740 0.876537 0.326694 0.149322
H52   H     H_    0.127703 0.939043 0.302604 0.159849
F5    F     F_    0.060904 0.641341 0.444375 -0.647297
F6    F     F_    0.918103 0.694353 0.568967 -0.691174
F7    F     F_    0.568046 0.149049 0.439397 -0.650841
F8    F     F_    0.418376 0.192028 0.569419 -0.698664
N5    N     N_2   0.061963 0.664929 0.585058 -0.430539
H53   H     H_    0.032992 0.738506 0.572864 0.311742
C125  C     C_3   0.061830 0.642458 0.661389 -0.237921
H54   H     H_    0.007280 0.630656 0.679839 0.185920
H55   H     H_    0.084503 0.718627 0.690761 0.139775
H56   H     H_    0.091085 0.560728 0.674144 0.169364
N6    N     N_2   0.926140 0.724382 0.430296 -0.429160
H57   H     H_    0.953406 0.792630 0.454032 0.282848
C126  C     C_3   0.933999 0.726095 0.353264 -0.248252
H58   H     H_    0.990195 0.731868 0.339455 0.163065
H59   H     H_    0.907519 0.804427 0.330130 0.140377
H60   H     H_    0.913001 0.643576 0.329456 0.171724
N7    N     N_2   0.563606 0.159771 0.581121 -0.441119
H61   H     H_    0.532846 0.230700 0.568008 0.317522
C127  C     C_3   0.562259 0.137838 0.657493 -0.242769
H62   H     H_    0.507602 0.123823 0.674923 0.191738
H63   H     H_    0.583113 0.215191 0.687155 0.139521
H64   H     H_    0.592676 0.057635 0.670980 0.171960
N8    N     N_2   0.428070 0.217885 0.429596 -0.439026
H65   H     H_    0.455633 0.285865 0.453249 0.285919
C128  C     C_3   0.435315 0.219897 0.352472 -0.251186
H66   H     H_    0.491378 0.224515 0.338065 0.169618
H67   H     H_    0.409244 0.298939 0.329744 0.141920
H68   H     H_    0.413367 0.138061 0.328665 0.171226
F9    F     F_    0.444845 0.028083 0.065606 -0.688708
F10   F     F_    0.553962 0.021333 0.933135 -0.682613
F11   F     F_    0.946563 0.520872 0.066446 -0.682057
F12   F     F_    0.055642 0.528914 0.933983 -0.689450
N9    N     N_2   0.145039 0.699450 0.060618 -0.545472
H69   H     H_    0.173648 0.744076 0.098832 0.280835
C129  C     C_3   0.074473 0.668491 0.079939 -0.164405
H70   H     H_    0.063129 0.696308 0.135619 0.149771
H71   H     H_    0.067070 0.572622 0.077989 0.236162
H72   H     H_    0.038324 0.712278 0.043169 0.168290
N10   N     N_2   0.855206 0.691072 0.938466 -0.512468
H73   H     H_    0.841585 0.772042 0.956809 0.245827
C130  C     C_3   0.927712 0.672692 0.923095 -0.176944
H74   H     H_    0.940417 0.712269 0.870376 0.153295
H75   H     H_    0.938128 0.577953 0.918638 0.241232
H76   H     H_    0.959703 0.713472 0.965179 0.152628
N11   N     N_2   0.645624 0.191910 0.061833 -0.513540
H77   H     H_    0.659699 0.273162 0.043851 0.245626
C131  C     C_3   0.572957 0.173349 0.076815 -0.177298
H78   H     H_    0.560185 0.212233 0.129585 0.153791
H79   H     H_    0.562091 0.078569 0.080955 0.241788
H80   H     H_    0.541356 0.214762 0.034717 0.151921
N12   N     N_2   0.356143 0.197993 0.939809 -0.544992
H81   H     H_    0.327463 0.242555 0.901757 0.282097
C132  C     C_3   0.426402 0.167213 0.919891 -0.163571
H82   H     H_    0.437544 0.195785 0.864231 0.148703
H83   H     H_    0.433289 0.071321 0.921478 0.235779
H84   H     H_    0.463044 0.210377 0.956517 0.169175
F13   F     F_    0.374282 0.521979 0.084829 -0.667309
F14   F     F_    0.632785 0.553764 0.913560 -0.629749
F15   F     F_    0.867231 0.053496 0.086340 -0.632778
F16   F     F_    0.125888 0.023388 0.915172 -0.665257
F17   F     F_    0.383651 0.612308 0.950849 -0.589356
F18   F     F_    0.620920 0.624408 0.050107 -0.566071
F19   F     F_    0.879097 0.124405 0.949688 -0.566814
F20   F     F_    0.116467 0.112680 0.049082 -0.588174
N13   N     N_2   0.394913 0.422786 0.902331 -0.540879
H85   H     H_    0.370603 0.422003 0.852928 0.237760
C133  C     C_3   0.469702 0.434393 0.895312 -0.248548
H86   H     H_    0.488697 0.376241 0.851878 0.107691
H87   H     H_    0.495946 0.407908 0.945381 0.133365
H88   H     H_    0.484102 0.524811 0.880040 0.230788
N14   N     N_2   0.596968 0.432134 0.088090 -0.571353
H89   H     H_    0.619701 0.413623 0.137027 0.245870
C134  C     C_3   0.523478 0.457809 0.093991 -0.235890
H90   H     H_    0.493240 0.375319 0.100991 0.128200
H91   H     H_    0.504235 0.502859 0.045520 0.198821
H92   H     H_    0.513775 0.513263 0.141564 0.207991
N15   N     N_2   0.902317 0.932405 0.911847 -0.570441
H93   H     H_    0.879392 0.913570 0.863046 0.247349
C135  C     C_3   0.975870 0.958524 0.905692 -0.234722
H94   H     H_    0.005955 0.876254 0.899128 0.127004
H95   H     H_    0.995291 0.004103 0.953887 0.198460
H96   H     H_    0.985657 0.013501 0.857780 0.207722
N16   N     N_2   0.104090 0.922837 0.097590 -0.541291
H97   H     H_    0.128290 0.921819 0.147049 0.236795
C136  C     C_3   0.029344 0.934322 0.104473 -0.250597
H98   H     H_    0.009949 0.875031 0.147388 0.106349
H99   H     H_    0.003106 0.909071 0.054158 0.134191
H100  H     H_    0.015390 0.024364 0.120413 0.230413

loop_
_geom_bond_atom_site_label_1
_geom_bond_atom_site_label_2
_ccdc_geom_bond_type
C125  H55   S    
C36   F20   S    
C32   H34   S    
C73   C93   A    
Cr12  O20   S    
C75   C95   A    
C48   C120  S    
C136  H98   S    
C63   C98   S    
Cr9   O17   S    
C5    C6    S    
C20   C40   A    
C46   O30   A    
C7    H27   S    
C58   H8    S    
N8    H65   S    
C22   C38   A    
C29   C33   S    
C128  H68   S    
C4    O24   A    
C56   H4    S    
C11   C15   A    
C89   O37   A    
C12   C16   A    
C31   F15   S    
Cr2   O2    S    
Cr7   O19   S    
N10   C130  S    
C28   N12   S    
Cr10  O34   S    
C98   O46   A    
C59   C60   S    
C124  H50   S    
C24   H32   S    
C41   C49   A    
C109  C118  S    
C108  O16   A    
C9    C25   A    
C51   C52   A    
C7    C119  S    
C53   H1    S    
C30   C34   S    
C132  H82   S    
C3    O27   A    
Cr1   O45   S    
C1    O25   A    
Cr7   O27   S    
C66   C82   S    
C121  H38   S    
Cr4   O4    S    
C11   C27   A    
C68   C72   A    
C113  F1    S    
C64   C97   S    
C48   O32   A    
C98   O50   A    
C136  H100  S    
C25   N9    S    
C110  C114  S    
N5    C125  S    
C132  H84   S    
C13   C29   S    
C4    O28   A    
C100  O48   A    
C2    O22   A    
C74   N2    S    
N6    C126  S    
C37   C89   S    
C38   C90   S    
C69   C93   A    
C91   O3    A    
C18   C38   A    
C89   O1    A    
C26   N10   S    
C19   C35   S    
C76   C96   A    
C44   C55   A    
C66   C70   A    
C92   O4    A    
C81   H17   S    
C86   H22   S    
C78   H14   S    
C35   F19   S    
C62   C99   S    
C72   C96   A    
C61   C65   A    
C80   H16   S    
C71   C95   A    
C134  H90   S    
C124  H52   S    
C107  O15   A    
C73   C77   A    
C75   C79   A    
C60   H12   S    
Cr6   O50   S    
C60   H6    S    
C54   H2    S    
N14   C134  S    
C67   C83   S    
C101  O5    A    
C111  C112  S    
Cr11  O39   S    
C7    C8    S    
C104  O8    A    
C53   C54   A    
C46   C118  S    
C24   C40   A    
C64   C68   A    
C42   C53   A    
Cr1   O21   S    
C126  H58   S    
C127  H64   S    
N13   C133  S    
C45   O29   A    
C49   C57   S    
C41   C102  S    
Cr5   O17   S    
N15   C135  S    
C43   C104  S    
C33   N13   S    
C52   C60   S    
C31   H33   S    
C61   C77   A    
Cr2   O42   S    
C122  H42   S    
Cr8   O52   S    
C103  O11   A    
Cr9   O33   S    
C44   C52   A    
C59   H11   S    
N3    H45   S    
C129  H72   S    
C33   F17   S    
C47   O31   A    
C1    C12   S    
C27   N11   S    
C2    C11   S    
C34   N14   S    
C108  O44   A    
C44   C103  S    
N1    H37   S    
C18   C34   S    
N1    C121  S    
C62   C66   A    
C76   N4    S    
C101  O9    A    
C10   C14   A    
C135  H95   S    
C85   H21   S    
C116  C120  S    
C84   C88   S    
C7    C116  S    
C112  F12   S    
N11   H77   S    
Cr10  O38   S    
N12   C132  S    
C88   N8    S    
C134  H92   S    
C130  H74   S    
C123  H47   S    
C114  C118  S    
N7    C127  S    
C42   C50   A    
C113  C117  S    
C121  H39   S    
Cr12  O12   S    
C115  C119  S    
C74   C78   A    
C102  O10   A    
C61   C100  S    
C42   C101  S    
C112  C116  S    
C69   C85   S    
C45   C117  S    
C21   C25   A    
C133  H88   S    
C82   F6    S    
C76   C80   A    
Cr7   O31   S    
C6    H26   S    
C126  H60   S    
C91   O39   A    
C127  H62   S    
C15   C31   S    
N9    C129  S    
C48   O36   A    
C13   C17   A    
C57   C58   S    
C128  H67   S    
Cr6   O6    S    
C96   C108  S    
C122  H44   S    
C100  O52   A    
C49   C50   A    
C129  H70   S    
C105  O13   A    
C4    C9    S    
C81   C85   S    
C125  H54   S    
Cr11  O19   S    
C1    O21   A    
Cr5   O25   S    
C83   C87   S    
C55   C56   A    
Cr3   O47   S    
C74   C94   A    
C123  H46   S    
Cr7   O51   S    
C15   C19   A    
C12   C28   A    
C88   H24   S    
C115  F3    S    
C70   C94   A    
C34   F18   S    
C22   H30   S    
C9    C13   A    
C107  O43   A    
N4    H49   S    
C130  H76   S    
C105  O41   A    
C57   H7    S    
C39   C91   S    
Cr10  O10   S    
C90   O38   A    
Cr11  O15   S    
Cr11  O35   S    
C132  H83   S    
C125  H56   S    
C133  H86   S    
C97   O45   A    
C64   C80   A    
C17   C33   S    
C110  C117  S    
C62   C78   A    
Cr2   O22   S    
C83   H19   S    
C136  H99   S    
Cr7   O7    S    
Cr12  O36   S    
Cr8   O8    S    
C68   C84   S    
C24   C28   A    
Cr6   O18   S    
C35   N15   S    
C131  H79   S    
C131  H78   S    
C79   H15   S    
Cr4   O44   S    
C82   C86   S    
Cr9   O9    S    
Cr2   O46   S    
C2    O26   A    
C50   C58   S    
C116  F4    S    
N12   H81   S    
Cr8   O32   S    
Cr9   O37   S    
Cr6   O26   S    
C109  F9    S    
N10   H73   S    
C103  O7    A    
C47   O35   A    
N2    C122  S    
C114  F2    S    
C95   C107  S    
C87   N7    S    
C71   C87   S    
C99   O51   A    
C5    H25   S    
C124  H51   S    
C97   O49   A    
C75   N3    S    
C16   C32   S    
Cr3   O23   S    
C8    H28   S    
C32   C36   S    
Cr4   O24   S    
C32   F16   S    
Cr8   O20   S    
C112  C119  S    
C57   H9    S    
C29   H35   S    
C30   H36   S    
C135  H94   S    
C109  C110  S    
Cr12  O16   S    
C127  H63   S    
C43   C51   A    
N13   H85   S    
N5    H53   S    
C65   C69   A    
C67   C71   A    
N15   H93   S    
Cr2   O18   S    
N14   H89   S    
C20   C36   S    
C46   O34   A    
C21   C37   A    
C22   C26   A    
C122  H43   S    
Cr3   O3    S    
C111  F11   S    
C110  F10   S    
Cr5   O49   S    
Cr1   O1    S    
C36   N16   S    
C5    C114  S    
C84   F8    S    
C14   C18   A    
N16   H97   S    
Cr5   O5    S    
C63   C79   A    
C55   H3    S    
C59   H5    S    
C58   H10   S    
C106  O14   A    
C8    C115  S    
C93   C105  S    
C65   C81   S    
C134  H91   S    
Cr3   O43   S    
Cr1   O41   S    
N7    H61   S    
C16   C20   A    
C10   C26   A    
C47   C119  S    
Cr5   O29   S    
C14   C30   S    
C72   C88   S    
C131  H80   S    
C23   H31   S    
C86   N6    S    
C63   C67   A    
C133  H87   S    
C21   H29   S    
Cr10  O14   S    
C126  H59   S    
Cr11  O11   S    
N4    C124  S    
N9    H69   S    
C5    C117  S    
C111  C120  S    
C6    C113  S    
C92   O40   A    
C3    O23   A    
C90   O2    A    
C128  H66   S    
C17   C37   A    
C40   C92   S    
N16   C136  S    
C82   H18   S    
C19   C39   A    
C84   H20   S    
Cr12  O40   S    
C23   C27   A    
N3    C123  S    
C87   H23   S    
C51   C59   S    
N6    H57   S    
C70   C86   S    
C77   H13   S    
C30   F14   S    
C8    C120  S    
Cr4   O48   S    
N8    C128  S    
Cr9   O13   S    
C94   C106  S    
Cr4   O20   S    
C83   F7    S    
Cr8   O28   S    
C81   F5    S    
C106  O42   A    
C135  H96   S    
Cr10  O18   S    
C109  C113  S    
C102  O6    A    
C85   N5    S    
N11   C131  S    
C3    C10   S    
C73   N1    S    
Cr6   O30   S    
C104  O12   A    
C99   O47   A    
C23   C39   A    
C130  H75   S    
C123  H48   S    
C31   C35   S    
Cr3   O19   S    
C41   C54   A    
C29   F13   S    
Cr1   O17   S    
C43   C56   A    
C121  H40   S    
C45   O33   A    
N2    H41   S    
C111  C115  S    
C6    C118  S    
C129  H71   S    
