data_mof_unit_9953.cif
_audit_creation_date              2013-03-05T15:50:13-0500
_audit_creation_method            fapswitch 2.2
_symmetry_space_group_name_H-M    P1
_symmetry_Int_Tables_number       1
_space_group_crystal_system       triclinic
_cell_length_a                    18.544259
_cell_length_b                    25.979895
_cell_length_c                    17.977305
_cell_angle_alpha                 90.000304
_cell_angle_beta                  90.196791
_cell_angle_gamma                 90.001009
_cell_volume                      8661.01719265

loop_
_atom_site_label
_atom_site_type_symbol
_atom_site_description
_atom_site_fract_x
_atom_site_fract_y
_atom_site_fract_z
_atom_type_partial_charge
Zn1   Zn    Zn3+2 0.249990 0.293780 0.913250 1.064556
Zn2   Zn    Zn3+2 0.249990 0.706220 0.086750 1.069942
Zn3   Zn    Zn3+2 0.249990 0.706220 0.913250 1.064898
Zn4   Zn    Zn3+2 0.249990 0.293780 0.086750 1.070616
Zn5   Zn    Zn3+2 0.749990 0.793780 0.413250 1.064831
Zn6   Zn    Zn3+2 0.749990 0.206220 0.586750 1.070539
Zn7   Zn    Zn3+2 0.749990 0.206220 0.413250 1.064478
Zn8   Zn    Zn3+2 0.749990 0.793780 0.586750 1.070006
Zn9   Zn    Zn3+2 0.336760 0.206240 0.000000 1.073192
Zn10  Zn    Zn3+2 0.336760 0.793760 0.000000 1.073504
Zn11  Zn    Zn3+2 0.836760 0.706240 0.500000 1.073575
Zn12  Zn    Zn3+2 0.836760 0.293760 0.500000 1.073358
Zn13  Zn    Zn3+2 0.163250 0.206230 0.000000 1.051963
Zn14  Zn    Zn3+2 0.163250 0.793770 0.000000 1.050560
Zn15  Zn    Zn3+2 0.663250 0.706230 0.500000 1.050692
Zn16  Zn    Zn3+2 0.663250 0.293770 0.500000 1.052119
O1    O     O_3   0.249990 0.250010 0.000000 -0.517030
O2    O     O_3   0.249990 0.749990 0.000000 -0.517213
O3    O     O_3   0.749990 0.750010 0.500000 -0.517244
O4    O     O_3   0.749990 0.249990 0.500000 -0.517027
O5    O     O_R   0.335430 0.280650 0.146160 -0.603504
O6    O     O_R   0.335430 0.719350 0.853840 -0.627971
O7    O     O_R   0.335430 0.719350 0.146160 -0.593334
O8    O     O_R   0.335430 0.280650 0.853840 -0.628581
O9    O     O_R   0.835430 0.780650 0.646160 -0.593394
O10   O     O_R   0.835430 0.219350 0.353840 -0.628576
O11   O     O_R   0.835430 0.219350 0.646160 -0.603661
O12   O     O_R   0.835430 0.780650 0.353840 -0.627917
O13   O     O_R   0.164550 0.280640 0.853840 -0.601362
O14   O     O_R   0.164550 0.719360 0.146160 -0.636972
O15   O     O_R   0.164550 0.719360 0.853840 -0.600232
O16   O     O_R   0.164550 0.280640 0.146160 -0.628690
O17   O     O_R   0.664550 0.780640 0.353840 -0.600301
O18   O     O_R   0.664550 0.219360 0.646160 -0.628658
O19   O     O_R   0.664550 0.219360 0.353840 -0.601556
O20   O     O_R   0.664550 0.780640 0.646160 -0.636861
O21   O     O_R   0.396160 0.219380 0.914560 -0.616894
O22   O     O_R   0.396160 0.780620 0.085440 -0.613819
O23   O     O_R   0.396160 0.780620 0.914560 -0.616540
O24   O     O_R   0.396160 0.219380 0.085440 -0.610962
O25   O     O_R   0.896160 0.719380 0.414560 -0.616506
O26   O     O_R   0.896160 0.280620 0.585440 -0.610806
O27   O     O_R   0.896160 0.280620 0.414560 -0.616852
O28   O     O_R   0.896160 0.719380 0.585440 -0.613718
O29   O     O_R   0.103840 0.219370 0.085450 -0.618113
O30   O     O_R   0.103840 0.780630 0.914550 -0.632027
O31   O     O_R   0.103840 0.780630 0.085450 -0.616514
O32   O     O_R   0.103840 0.219370 0.914550 -0.631910
O33   O     O_R   0.603840 0.719370 0.585450 -0.616459
O34   O     O_R   0.603840 0.280630 0.414550 -0.631747
O35   O     O_R   0.603840 0.280630 0.585450 -0.618060
O36   O     O_R   0.603840 0.719370 0.414550 -0.631946
O37   O     O_R   0.310730 0.133160 0.000000 -0.582921
O38   O     O_R   0.310730 0.866840 0.000000 -0.583602
O39   O     O_R   0.810730 0.633160 0.500000 -0.583488
O40   O     O_R   0.810730 0.366840 0.500000 -0.582738
O41   O     O_R   0.249970 0.366860 0.060720 -0.582041
O42   O     O_R   0.249970 0.633140 0.939280 -0.599853
O43   O     O_R   0.249970 0.633140 0.060720 -0.583130
O44   O     O_R   0.249970 0.366860 0.939280 -0.601486
O45   O     O_R   0.749970 0.866860 0.560720 -0.582970
O46   O     O_R   0.749970 0.133140 0.439280 -0.601578
O47   O     O_R   0.749970 0.133140 0.560720 -0.582216
O48   O     O_R   0.749970 0.866860 0.439280 -0.599893
O49   O     O_R   0.189290 0.133150 0.000000 -0.612733
O50   O     O_R   0.189290 0.866850 0.000000 -0.610042
O51   O     O_R   0.689290 0.633150 0.500000 -0.609829
O52   O     O_R   0.689290 0.366850 0.500000 -0.612598
C1    C     C_R   0.386696 0.248203 0.143133 0.871021
C2    C     C_R   0.385479 0.753421 0.855352 0.889613
C3    C     C_R   0.386801 0.751703 0.143064 0.869885
C4    C     C_R   0.385752 0.246875 0.855486 0.891153
C5    C     C_R   0.886806 0.748303 0.643061 0.869799
C6    C     C_R   0.885760 0.253118 0.355489 0.891277
C7    C     C_R   0.886698 0.251795 0.643132 0.871081
C8    C     C_R   0.885491 0.746592 0.355358 0.889731
C9    C     C_R   0.112228 0.249008 0.858156 0.849171
C10   C     C_R   0.112803 0.752137 0.143914 0.874200
C11   C     C_R   0.112235 0.750973 0.858162 0.848005
C12   C     C_R   0.112898 0.247919 0.143905 0.883730
C13   C     C_R   0.612237 0.749024 0.358159 0.848080
C14   C     C_R   0.612893 0.252078 0.643903 0.883867
C15   C     C_R   0.612228 0.250992 0.358156 0.849251
C16   C     C_R   0.612795 0.747864 0.643912 0.874278
C17   C     C_R   0.250123 0.109435 0.002017 0.897935
C18   C     C_R   0.250058 0.890568 0.001357 0.897403
C19   C     C_R   0.750056 0.609433 0.501366 0.897154
C20   C     C_R   0.750123 0.390565 0.502038 0.897731
C21   C     C_R   0.248466 0.391480 0.999602 0.922925
C22   C     C_R   0.251727 0.608522 0.999633 0.922631
C23   C     C_R   0.751752 0.891477 0.499638 0.922519
C24   C     C_R   0.748494 0.108519 0.499596 0.923060
C25   C     C_3   0.314546 0.469618 0.044371 0.116820
C26   C     C_3   0.184770 0.530365 0.042131 0.123013
C27   C     C_3   0.323539 0.528428 0.031653 0.086456
C28   C     C_3   0.176139 0.471546 0.029174 0.078709
C29   C     C_3   0.823360 0.971578 0.532222 0.086458
C30   C     C_3   0.675964 0.028457 0.528598 0.078572
C31   C     C_3   0.814260 0.030381 0.544889 0.117049
C32   C     C_3   0.684486 0.969631 0.541602 0.122796
H1    H     H_    0.364596 0.450525 0.024673 0.146935
H2    H     H_    0.135250 0.549409 0.020630 0.125563
H3    H     H_    0.366487 0.532967 0.989265 0.163125
H4    H     H_    0.134275 0.466926 0.985354 0.144272
H5    H     H_    0.866620 0.967057 0.490162 0.163203
H6    H     H_    0.634413 0.033093 0.484454 0.144258
H7    H     H_    0.864463 0.049488 0.525611 0.146852
H8    H     H_    0.635123 0.950598 0.519680 0.125496
C33   C     C_3   0.255120 0.469473 0.913940 0.323710
C34   C     C_3   0.247583 0.530527 0.913850 0.325582
C35   C     C_3   0.748256 0.969465 0.413826 0.325584
C36   C     C_3   0.755789 0.030519 0.413966 0.323544
C37   C     C_3   0.248250 0.449007 0.997626 -0.289372
C38   C     C_3   0.252205 0.550983 0.997705 -0.291652
C39   C     C_3   0.752260 0.949016 0.497718 -0.291497
C40   C     C_3   0.748306 0.050991 0.497608 -0.289409
H9    H     H_    0.175252 0.138300 0.636938 0.203571
H10   H     H_    0.960114 0.909424 0.129763 0.205361
H11   H     H_    0.173372 0.864665 0.639555 0.202676
H12   H     H_    0.968558 0.086127 0.139466 0.205279
H13   H     H_    0.673524 0.635566 0.139344 0.202544
H14   H     H_    0.468431 0.413795 0.639302 0.205299
H15   H     H_    0.675252 0.361697 0.136933 0.203407
H16   H     H_    0.459795 0.590748 0.629430 0.205396
C41   C     C_R   0.993966 0.315463 0.875147 -0.125600
C42   C     C_R   0.112653 0.679510 0.275664 -0.079511
C43   C     C_R   0.995272 0.682982 0.873206 -0.121659
C44   C     C_R   0.111773 0.321656 0.274357 -0.068252
C45   C     C_R   0.495202 0.816925 0.373324 -0.122032
C46   C     C_R   0.611746 0.178320 0.774331 -0.068311
C47   C     C_R   0.493958 0.184545 0.375160 -0.125983
C48   C     C_R   0.612668 0.820465 0.775691 -0.079327
C49   C     C_R   0.931277 0.341673 0.893166 -0.177882
C50   C     C_R   0.101975 0.633963 0.314843 -0.147727
C51   C     C_R   0.932871 0.656177 0.890602 -0.176663
C52   C     C_R   0.100098 0.367499 0.312450 -0.139861
C53   C     C_R   0.432789 0.843699 0.390754 -0.177194
C54   C     C_R   0.600067 0.132475 0.812417 -0.139939
C55   C     C_R   0.431268 0.158335 0.393181 -0.178171
C56   C     C_R   0.602024 0.866004 0.814900 -0.147509
C57   C     C_R   0.369285 0.832534 0.353434 -0.118723
C58   C     C_R   0.530598 0.118268 0.831781 -0.129760
C59   C     C_R   0.368026 0.169174 0.355251 -0.116294
C60   C     C_R   0.532862 0.880866 0.834468 -0.135291
C61   C     C_R   0.868031 0.330824 0.855245 -0.116573
C62   C     C_R   0.032801 0.619120 0.334398 -0.135336
C63   C     C_R   0.869350 0.667370 0.853326 -0.119192
C64   C     C_R   0.030628 0.381709 0.331802 -0.129763
C65   C     C_R   0.368587 0.797002 0.295107 0.289828
C66   C     C_R   0.473313 0.152046 0.819730 0.305855
C67   C     C_R   0.367744 0.203873 0.295880 0.291133
C68   C     C_R   0.474803 0.847942 0.821488 0.304600
C69   C     C_R   0.867748 0.296118 0.795883 0.291219
C70   C     C_R   0.974767 0.652068 0.321437 0.304601
C71   C     C_R   0.868630 0.702954 0.795067 0.289941
C72   C     C_R   0.973339 0.347935 0.319736 0.305827
C73   C     C_R   0.434614 0.775167 0.268792 0.001945
C74   C     C_R   0.486230 0.201877 0.789403 -0.003623
C75   C     C_R   0.434019 0.225347 0.269363 0.002311
C76   C     C_R   0.486634 0.798310 0.790134 -0.001578
C77   C     C_R   0.934023 0.274649 0.769363 0.002417
C78   C     C_R   0.986633 0.701708 0.290119 -0.001595
C79   C     C_R   0.934645 0.724804 0.768760 0.002060
C80   C     C_R   0.986253 0.298102 0.289413 -0.003666
C81   C     C_R   0.995752 0.280339 0.814712 0.033968
C82   C     C_R   0.054053 0.712104 0.256773 0.020949
C83   C     C_R   0.996503 0.718933 0.813787 0.034311
C84   C     C_R   0.053882 0.288211 0.256243 0.025156
C85   C     C_R   0.496463 0.781024 0.313842 0.034440
C86   C     C_R   0.553858 0.211769 0.756226 0.025225
C87   C     C_R   0.495747 0.219663 0.314717 0.033951
C88   C     C_R   0.554044 0.787897 0.756779 0.020991
C89   C     C_R   0.442074 0.748082 0.200576 -0.093383
C90   C     C_R   0.433981 0.241476 0.790049 -0.106590
C91   C     C_R   0.441973 0.251760 0.200600 -0.095099
C92   C     C_R   0.433341 0.759486 0.789732 -0.107126
C93   C     C_R   0.941975 0.248236 0.700600 -0.095093
C94   C     C_R   0.933373 0.740556 0.289747 -0.107108
C95   C     C_R   0.942075 0.751931 0.700579 -0.093334
C96   C     C_R   0.934004 0.258501 0.290062 -0.106593
C97   C     C_R   0.504803 0.718942 0.184920 -0.006435
C98   C     C_R   0.440058 0.282805 0.738993 -0.021567
C99   C     C_R   0.505211 0.280184 0.184316 -0.004111
C100  C     C_R   0.437802 0.719286 0.736916 -0.024214
C101  C     C_R   0.005210 0.219810 0.684319 -0.004107
C102  C     C_R   0.937893 0.780797 0.236993 -0.024199
C103  C     C_R   0.004766 0.781126 0.684972 -0.006367
C104  C     C_R   0.940099 0.217154 0.239031 -0.021524
C105  C     C_R   0.064205 0.219967 0.734843 0.016943
C106  C     C_R   0.005183 0.792440 0.204858 -0.009567
C107  C     C_R   0.063842 0.780844 0.735421 0.017816
C108  C     C_R   0.007741 0.206330 0.207084 -0.009211
C109  C     C_R   0.563875 0.719217 0.235372 0.017797
C110  C     C_R   0.507697 0.293641 0.707049 -0.009200
C111  C     C_R   0.564204 0.280032 0.234843 0.016993
C112  C     C_R   0.505077 0.707615 0.704770 -0.009524
C113  C     C_R   0.057750 0.250362 0.800437 -0.092823
C114  C     C_R   0.060496 0.754585 0.206720 -0.110541
C115  C     C_R   0.057934 0.749646 0.800286 -0.090448
C116  C     C_R   0.061340 0.245299 0.207219 -0.111567
C117  C     C_R   0.557927 0.750355 0.300292 -0.090480
C118  C     C_R   0.561316 0.254685 0.707204 -0.111590
C119  C     C_R   0.557748 0.249638 0.300439 -0.092856
C120  C     C_R   0.560453 0.745428 0.706693 -0.110613
C121  C     C_R   0.508301 0.688136 0.119947 -0.166305
C122  C     C_R   0.380577 0.314011 0.718780 -0.144184
C123  C     C_R   0.509317 0.310168 0.118553 -0.182924
C124  C     C_R   0.376820 0.690310 0.714797 -0.142690
C125  C     C_R   0.009311 0.189820 0.618563 -0.183178
C126  C     C_R   0.876962 0.809851 0.214929 -0.142662
C127  C     C_R   0.008216 0.811997 0.620062 -0.166473
C128  C     C_R   0.880641 0.185914 0.218855 -0.144253
C129  C     C_R   0.568274 0.658198 0.104586 0.302901
C130  C     C_R   0.390608 0.359860 0.680068 0.299581
C131  C     C_R   0.569821 0.339348 0.102453 0.292582
C132  C     C_R   0.384611 0.645686 0.672671 0.300222
C133  C     C_R   0.069815 0.160639 0.602466 0.292430
C134  C     C_R   0.884833 0.854518 0.172913 0.300302
C135  C     C_R   0.068144 0.841999 0.604764 0.302697
C136  C     C_R   0.890702 0.140045 0.180206 0.299604
C137  C     C_R   0.128064 0.160895 0.650742 -0.176615
C138  C     C_R   0.953519 0.872070 0.155573 -0.187608
C139  C     C_R   0.126560 0.841529 0.652852 -0.181866
C140  C     C_R   0.960106 0.124011 0.162983 -0.184251
C141  C     C_R   0.626681 0.658657 0.152684 -0.181777
C142  C     C_R   0.460006 0.375919 0.662857 -0.184335
C143  C     C_R   0.628065 0.339100 0.150736 -0.176606
C144  C     C_R   0.453268 0.628082 0.655316 -0.187762
C145  C     C_R   0.126870 0.190094 0.716001 0.190012
C146  C     C_R   0.013894 0.842148 0.172782 0.283201
C147  C     C_R   0.126069 0.811355 0.717197 0.190042
C148  C     C_R   0.018853 0.156186 0.177288 0.280982
C149  C     C_R   0.626139 0.688760 0.217097 0.190194
C150  C     C_R   0.518779 0.343780 0.677223 0.280991
C151  C     C_R   0.626867 0.309908 0.216002 0.190119
C152  C     C_R   0.513698 0.657923 0.672616 0.283275
H17   H     H_    0.041085 0.323291 0.908990 0.136549
H18   H     H_    0.167755 0.689218 0.263611 0.224131
H19   H     H_    0.042571 0.674995 0.906698 0.137263
H20   H     H_    0.167118 0.312374 0.262655 0.220674
H21   H     H_    0.542490 0.824899 0.406840 0.136995
H22   H     H_    0.667091 0.187601 0.762632 0.220651
H23   H     H_    0.541074 0.176723 0.409009 0.136534
H24   H     H_    0.667762 0.810745 0.763628 0.224110
H25   H     H_    0.930869 0.368319 0.939469 0.175583
H26   H     H_    0.147300 0.609164 0.327525 0.200210
H27   H     H_    0.932845 0.628892 0.936122 0.171878
H28   H     H_    0.144861 0.392957 0.324508 0.197277
H29   H     H_    0.432743 0.870946 0.436322 0.171908
H30   H     H_    0.644828 0.107014 0.824467 0.197206
H31   H     H_    0.430858 0.131695 0.439490 0.175760
H32   H     H_    0.647367 0.890784 0.827596 0.200107
H33   H     H_    0.160614 0.047888 0.765094 0.169073
H34   H     H_    0.160145 0.952839 0.764958 0.169396
H35   H     H_    0.661524 0.547166 0.264476 0.169507
H36   H     H_    0.661951 0.452111 0.264635 0.169197
C153  C     C_R   0.302951 0.053273 0.135421 0.288506
C154  C     C_R   0.300857 0.945935 0.135587 0.286623
C155  C     C_R   0.799953 0.554085 0.635960 0.286515
C156  C     C_R   0.802137 0.446731 0.635788 0.288460
C157  C     C_R   0.331311 0.025690 0.194807 -0.165811
C158  C     C_R   0.330169 0.972979 0.194947 -0.167321
C159  C     C_R   0.828505 0.527032 0.695681 -0.166844
C160  C     C_R   0.829698 0.474325 0.695538 -0.165227
C161  C     C_R   0.276013 0.972307 0.069810 -0.017957
C162  C     C_R   0.276662 0.027348 0.069830 -0.018880
C163  C     C_R   0.776255 0.472656 0.570028 -0.018987
C164  C     C_R   0.775578 0.527702 0.570009 -0.018046
C165  C     C_R   0.250001 0.946189 0.005103 -0.113095
C166  C     C_R   0.250377 0.053771 0.005385 -0.114158
C167  C     C_R   0.750388 0.446231 0.505407 -0.114103
C168  C     C_R   0.750003 0.553813 0.505120 -0.113025
C169  C     C_R   0.225086 0.973075 0.941633 0.061845
C170  C     C_R   0.225255 0.027099 0.941770 0.062133
C171  C     C_R   0.725610 0.472901 0.441657 0.062033
C172  C     C_R   0.725453 0.526925 0.441513 0.061694
C173  C     C_R   0.201300 0.946850 0.876556 -0.099698
C174  C     C_R   0.201745 0.053525 0.876743 -0.099219
C175  C     C_R   0.702408 0.446473 0.376521 -0.099131
C176  C     C_R   0.702009 0.553152 0.376314 -0.099623
C177  C     C_R   0.177983 0.973623 0.813894 -0.086679
C178  C     C_R   0.178229 0.026951 0.813979 -0.087714
C179  C     C_R   0.679292 0.473049 0.313613 -0.087469
C180  C     C_R   0.679072 0.526380 0.313516 -0.086432
H37   H     H_    0.352249 0.045364 0.243485 0.191491
H38   H     H_    0.350099 0.952934 0.243757 0.191003
H39   H     H_    0.847975 0.547076 0.744680 0.190931
H40   H     H_    0.850223 0.454657 0.744402 0.191468
H41   H     H_    0.464022 0.686076 0.080723 0.155808
H42   H     H_    0.325791 0.302538 0.730548 0.216757
H43   H     H_    0.465152 0.312145 0.079189 0.149422
H44   H     H_    0.322700 0.702831 0.727716 0.216316
H45   H     H_    0.965143 0.187838 0.579204 0.149405
H46   H     H_    0.822816 0.797364 0.227804 0.216344
H47   H     H_    0.963929 0.814063 0.580849 0.155725
H48   H     H_    0.825846 0.197369 0.230606 0.216739
Br1   Br    Br    0.072779 0.120246 0.513640 -0.415986
Br2   Br    Br    0.801964 0.893636 0.144418 -0.326488
Br3   Br    Br    0.070159 0.883728 0.517212 -0.405801
Br4   Br    Br    0.809994 0.097245 0.156688 -0.316186
Br5   Br    Br    0.570368 0.616575 0.016931 -0.405997
Br6   Br    Br    0.309862 0.402594 0.656435 -0.316261
Br7   Br    Br    0.572791 0.379727 0.013614 -0.416509
Br8   Br    Br    0.301671 0.606694 0.644034 -0.326767
Br9   Br    Br    0.216273 0.186376 0.770252 -0.538390
Br10  Br    Br    0.105006 0.877045 0.169272 -0.385053
Br11  Br    Br    0.215903 0.814460 0.770872 -0.542746
Br12  Br    Br    0.111925 0.124111 0.173076 -0.389111
Br13  Br    Br    0.715956 0.685632 0.270792 -0.542913
Br14  Br    Br    0.611827 0.375898 0.673046 -0.389776
Br15  Br    Br    0.716257 0.313643 0.270272 -0.538700
Br16  Br    Br    0.604726 0.622920 0.669137 -0.385532
Br17  Br    Br    0.300804 0.125283 0.157854 -0.463916
Br18  Br    Br    0.294308 0.874081 0.158417 -0.462973
Br19  Br    Br    0.793993 0.626016 0.658429 -0.463208
Br20  Br    Br    0.800751 0.374667 0.657851 -0.464157
Br21  Br    Br    0.312488 0.450197 0.150257 -0.278849
Br22  Br    Br    0.184063 0.549960 0.147992 -0.322572
Br23  Br    Br    0.368188 0.565910 0.115078 -0.331951
Br24  Br    Br    0.129784 0.434063 0.111316 -0.393346
Br25  Br    Br    0.867480 0.934119 0.615977 -0.332017
Br26  Br    Br    0.629076 0.065962 0.610402 -0.393411
Br27  Br    Br    0.811383 0.049753 0.650793 -0.279080
Br28  Br    Br    0.682964 0.949989 0.647436 -0.322900
H49   H     H_    0.200930 0.905392 0.872734 0.172941
H50   H     H_    0.201838 0.094985 0.872977 0.173331
H51   H     H_    0.702433 0.405004 0.372787 0.173406
H52   H     H_    0.701625 0.594612 0.372513 0.172937
Br29  Br    Br    0.347899 0.444419 0.872403 -0.349125
Br30  Br    Br    0.155949 0.555509 0.868876 -0.399165
Br31  Br    Br    0.321132 0.562059 0.847801 -0.292075
Br32  Br    Br    0.183643 0.438089 0.844769 -0.313586
Br33  Br    Br    0.822329 0.937893 0.348436 -0.292817
Br34  Br    Br    0.684834 0.061863 0.344159 -0.312554
Br35  Br    Br    0.848863 0.055595 0.373177 -0.349389
Br36  Br    Br    0.656937 0.944497 0.368088 -0.397869
H53   H     H_    0.319520 0.849854 0.372439 0.194963
H54   H     H_    0.521152 0.080621 0.855683 0.185085
H55   H     H_    0.318127 0.152127 0.374402 0.195915
H56   H     H_    0.524259 0.918365 0.859176 0.185875
H57   H     H_    0.818132 0.347869 0.874399 0.195729
H58   H     H_    0.024170 0.581615 0.359080 0.185931
H59   H     H_    0.819591 0.650037 0.872325 0.194789
H60   H     H_    0.021182 0.419356 0.355703 0.185122
Br37  Br    Br    0.274101 0.771007 0.272990 -0.465025
Br38  Br    Br    0.378644 0.122831 0.830054 -0.464410
Br39  Br    Br    0.273036 0.228553 0.271540 -0.465506
Br40  Br    Br    0.380657 0.878074 0.831800 -0.467417
Br41  Br    Br    0.773045 0.271411 0.771575 -0.465706
Br42  Br    Br    0.880605 0.621961 0.331723 -0.468004
Br43  Br    Br    0.774166 0.729044 0.773102 -0.465182
Br44  Br    Br    0.878676 0.377156 0.330026 -0.464890

loop_
_geom_bond_atom_site_label_1
_geom_bond_atom_site_label_2
_geom_bond_distance
_ccdc_geom_bond_type
C25   Br21  1.969779 S    
C166  C170  1.414697 A    
C27   Br23  1.968361 S    
C72   Br44  1.922108 S    
C41   H17   1.082287 S    
C47   C87   1.419322 A    
O26   C7    1.291707 A    
C153  C157  1.387820 A    
C155  C159  1.386758 A    
O30   C11   1.283192 A    
C146  Br10  1.918687 S    
H15   C143  1.083226 S    
C109  C117  1.424627 A    
Zn12  O26   1.917688 S    
C73   C85   1.410018 A    
C74   C90   1.413303 A    
C172  C176  1.422526 A    
C69   Br41  1.918828 S    
C98   C110  1.409704 A    
C175  C179  1.391457 A    
C112  C120  1.421452 A    
C63   C71   1.397040 A    
C156  C160  1.387490 A    
C26   C28   1.553947 S    
C29   H5    1.110518 S    
C122  C130  1.392338 A    
C59   C67   1.397077 A    
C32   C39   1.579762 S    
C110  C150  1.423816 A    
O11   C7    1.271894 A    
O34   C15   1.282948 A    
C157  H37   1.084205 S    
C133  C137  1.383327 A    
C50   C62   1.385958 A    
C21   C37   1.494983 S    
C159  H39   1.084088 S    
C80   C84   1.414069 A    
Zn1   O44   1.955426 S    
C25   H1    1.111385 S    
C31   C40   1.580499 S    
C14   C118  1.490591 S    
Zn2   O43   1.955425 S    
C128  C136  1.392315 A    
Zn5   O48   1.955426 S    
C69   C77   1.432820 A    
C106  C146  1.423735 A    
C17   C166  1.447422 S    
C102  C106  1.409720 A    
C82   C114  1.429248 A    
Zn7   O46   1.955431 S    
C51   H27   1.082654 S    
O16   C12   1.281200 A    
C62   C70   1.394110 A    
Zn16  O4    1.970051 S    
C10   C114  1.492400 S    
Zn12  O4    1.970326 S    
Zn1   O13   1.938033 S    
C76   C88   1.414432 A    
C43   C83   1.419193 A    
Zn3   O15   1.938045 S    
C24   C40   1.494999 S    
Zn4   O16   1.944024 S    
C75   C87   1.410848 A    
C103  C107  1.419823 A    
C103  C127  1.417585 A    
C28   H4    1.110631 S    
C101  C125  1.418038 A    
C49   C61   1.383558 A    
C77   C93   1.421973 A    
C46   C54   1.391156 A    
Zn6   O4    1.930088 S    
C91   C99   1.417235 A    
C105  C113  1.424576 A    
C92   C100  1.414068 A    
C35   Br36  1.988717 S    
Zn16  O34   1.917930 S    
C34   Br31  1.988048 S    
C154  Br18  1.915271 S    
C165  C169  1.414091 A    
C8    C94   1.487097 S    
C30   H6    1.110764 S    
Zn10  O22   1.917688 S    
C125  C133  1.385514 A    
C133  Br1   1.911749 S    
O25   C8    1.292366 A    
Zn13  O29   1.923987 S    
C104  C128  1.415373 A    
Zn10  O2    1.970326 S    
O29   C12   1.296702 A    
Zn15  O33   1.923987 S    
C121  H41   1.081817 S    
C7    C93   1.455808 S    
C86   C118  1.428201 A    
C94   C102  1.414205 A    
C45   C53   1.387138 A    
C42   C50   1.391574 A    
C107  C147  1.438699 A    
O37   C17   1.282454 A    
C1    C91   1.455797 S    
O48   C23   1.259854 A    
C127  H47   1.081826 S    
C50   H26   1.082710 S    
C77   C81   1.410835 A    
C36   Br35  1.987418 S    
H14   C142  1.082799 S    
C111  C119  1.424587 A    
H10   C138  1.082788 S    
C99   C123  1.418063 A    
C97   C121  1.417596 A    
C35   C36   1.592320 S    
Zn16  O35   1.923984 S    
C28   Br24  1.968915 S    
C33   Br29  1.987542 S    
H13   C141  1.083243 S    
C22   C38   1.495291 S    
C132  C144  1.389337 A    
Zn7   O10   1.943980 S    
O33   C16   1.295742 A    
O9    C5    1.271778 A    
C126  H46   1.081010 S    
C157  C158  1.369576 A    
O40   C20   1.282482 A    
C155  C164  1.440876 A    
C55   C59   1.383552 A    
C48   H24   1.075235 S    
C66   C74   1.425326 A    
C164  C168  1.429032 A    
Zn5   O17   1.938033 S    
C26   Br22  1.970094 S    
C34   C38   1.600434 S    
C108  C116  1.418768 A    
H12   C140  1.082791 S    
C65   Br37  1.918188 S    
C154  C158  1.387039 A    
C27   H3    1.110436 S    
C147  Br11  1.923995 S    
C32   H8    1.111443 S    
Zn8   O3    1.930078 S    
C160  H40   1.084133 S    
C57   H53   1.083065 S    
C29   C31   1.553851 S    
O38   C18   1.283242 A    
C74   C86   1.414100 A    
C71   C79   1.431260 A    
C85   C117  1.412540 A    
O5    C1    1.271913 A    
C98   C122  1.415362 A    
C67   C75   1.432837 A    
O32   C9    1.282948 A    
C41   C81   1.419318 A    
C128  H48   1.080380 S    
C19   C168  1.446570 S    
C20   C167  1.447464 S    
Zn15  O51   1.959066 S    
Zn11  O28   1.917678 S    
C26   H2    1.111337 S    
C52   C64   1.385669 A    
C68   Br40  1.922890 S    
C158  H38   1.084222 S    
C51   C63   1.384115 A    
C79   C95   1.420985 A    
C29   C39   1.568800 S    
C36   C40   1.601424 S    
O8    C4    1.281211 A    
C131  Br7   1.911749 S    
H36   C179  1.082885 S    
C70   C78   1.424558 A    
C18   C165  1.446607 S    
C54   H30   1.082710 S    
O50   C18   1.284509 A    
C129  Br5   1.911637 S    
C163  C164  1.430134 A    
C101  C105  1.419525 A    
C135  Br3   1.911656 S    
C127  C135  1.385735 A    
Zn1   O1    1.930089 S    
C132  Br8   1.910839 S    
Zn13  O1    1.970019 S    
C104  C108  1.409717 A    
C60   C68   1.394102 A    
C46   H22   1.075744 S    
C16   C120  1.492476 S    
C2    C92   1.487091 S    
C136  Br4   1.910680 S    
C131  C143  1.383334 A    
O39   C19   1.283248 A    
O36   C13   1.283182 A    
C78   C94   1.412152 A    
C129  C141  1.383660 A    
C121  C129  1.385722 A    
C31   Br27  1.970160 S    
O13   C9    1.274089 A    
C138  C146  1.396847 A    
Zn1   O8    1.943988 S    
C73   C89   1.421047 A    
Zn2   O7    1.937989 S    
C83   C115  1.412528 A    
Zn3   O6    1.943980 S    
O18   C14   1.281235 A    
O31   C10   1.295785 A    
C149  Br13  1.923946 S    
O6    C2    1.282752 A    
C49   H25   1.082674 S    
C155  Br19  1.915197 S    
C43   H19   1.082262 S    
C171  C172  1.403541 A    
C56   H32   1.082708 S    
C136  C140  1.388751 A    
C36   Br34  1.989483 S    
C159  C160  1.369506 A    
Zn14  O30   1.917930 S    
Zn15  O3    1.970019 S    
Zn11  O3    1.970359 S    
O41   C21   1.271587 A    
C64   H60   1.082782 S    
C43   C51   1.387182 A    
C122  H42   1.080397 S    
C53   C57   1.384074 A    
C44   C52   1.391152 A    
C61   H57   1.083099 S    
C95   C103  1.416957 A    
C27   C38   1.568495 S    
C110  C118  1.418808 A    
C93   C101  1.417224 A    
C52   H28   1.082708 S    
Zn8   O20   1.944024 S    
C88   C120  1.429306 A    
C161  C165  1.429123 A    
C124  H44   1.081026 S    
C96   C104  1.417379 A    
C78   C82   1.414412 A    
C163  C167  1.430790 A    
C48   C56   1.391585 A    
C90   C98   1.417312 A    
C70   Br42  1.922830 S    
C99   C111  1.419523 A    
C4    C90   1.486827 S    
C97   C109  1.419806 A    
C80   C96   1.413328 A    
C89   C97   1.416980 A    
Zn8   O9    1.938001 S    
C111  C151  1.438800 A    
C62   H58   1.082767 S    
C109  C149  1.438711 A    
C139  C147  1.397415 A    
C11   C115  1.445865 S    
O7    C3    1.271788 A    
C15   C119  1.446154 S    
C54   C58   1.385671 A    
O19   C15   1.274109 A    
C13   C117  1.445873 S    
C112  C152  1.423726 A    
C100  C112  1.409717 A    
Zn9   O24   1.917678 S    
C169  C173  1.422626 A    
Zn6   O18   1.944031 S    
C173  H49   1.079297 S    
Zn10  O23   1.923738 S    
C105  C145  1.438809 A    
C81   C113  1.412890 A    
C60   H56   1.082763 S    
C168  C172  1.413922 A    
C156  Br20  1.913968 S    
C123  C131  1.385501 A    
C25   C37   1.580267 S    
Zn15  O36   1.917940 S    
O15   C11   1.273686 A    
O42   C22   1.259792 A    
Zn4   O1    1.930078 S    
C30   C32   1.554048 S    
C32   Br28  1.970164 S    
C28   C37   1.567792 S    
Zn9   O37   1.959006 S    
O12   C8    1.282711 A    
Zn11  O39   1.959006 S    
H33   C178  1.083019 S    
C106  C114  1.421359 A    
C108  C148  1.423816 A    
C173  C177  1.391559 A    
C59   H55   1.083100 S    
C84   C116  1.428144 A    
Zn14  O2    1.970051 S    
C153  C162  1.441432 A    
C56   C60   1.385965 A    
C42   C82   1.418035 A    
C142  C150  1.396376 A    
C53   H29   1.082649 S    
Zn5   O3    1.930089 S    
C44   H20   1.075751 S    
C31   H7    1.111499 S    
C100  C124  1.414427 A    
Zn2   O14   1.944031 S    
C141  C149  1.397392 A    
C58   C66   1.394270 A    
C66   Br38  1.922168 S    
C33   C34   1.592307 S    
C45   H21   1.082263 S    
C46   C86   1.418137 A    
C23   C39   1.495281 S    
C87   C119  1.412898 A    
O28   C5    1.291885 A    
C58   H54   1.082788 S    
C135  C139  1.383688 A    
Zn3   O42   1.955431 S    
Zn7   O4    1.930079 S    
O21   C4    1.293808 A    
C137  C145  1.397309 A    
C64   C72   1.394269 A    
C65   C73   1.431356 A    
C174  H50   1.079272 S    
C151  Br15  1.923027 S    
C130  Br6   1.910736 S    
Zn6   O47   1.955425 S    
C68   C76   1.424543 A    
Zn2   O2    1.930088 S    
C35   Br33  1.988117 S    
C171  C175  1.422758 A    
C34   Br30  1.988248 S    
C134  Br2   1.910878 S    
C26   C38   1.579700 S    
C57   C65   1.397035 A    
Zn13  O49   1.959066 S    
O44   C21   1.259389 A    
C167  C171  1.414589 A    
C45   C85   1.419194 A    
C107  C115  1.424642 A    
Zn12  O27   1.923738 S    
C140  C148  1.396342 A    
C12   C116  1.490550 S    
Zn3   O2    1.930079 S    
C150  Br14  1.918369 S    
O46   C24   1.259310 A    
Zn4   O41   1.955430 S    
Zn16  O52   1.959049 S    
C161  C162  1.430007 A    
C71   Br43  1.918157 S    
C33   C37   1.601135 S    
Zn8   O45   1.955430 S    
C61   C69   1.397071 A    
O27   C6    1.293822 A    
C124  C132  1.392542 A    
C75   C91   1.421984 A    
C76   C92   1.412099 A    
C130  C142  1.388779 A    
H11   C139  1.083244 S    
H16   C144  1.082775 S    
H9    C137  1.083238 S    
C134  C138  1.389336 A    
C63   H59   1.083063 S    
O24   C1    1.291699 A    
C175  H51   1.079442 S    
C47   C55   1.386605 A    
C162  C166  1.430810 A    
C29   Br25  1.968545 S    
C9    C113  1.446145 S    
C177  C178  1.385472 A    
C3    C89   1.456417 S    
O43   C22   1.271355 A    
O14   C10   1.283500 A    
O47   C24   1.271670 A    
C79   C83   1.409962 A    
C153  Br17  1.914225 S    
Zn5   O12   1.943988 S    
C30   C40   1.567757 S    
Zn6   O11   1.937989 S    
Zn9   O21   1.923734 S    
C169  C170  1.403543 A    
Zn14  O50   1.959049 S    
C156  C163  1.441429 A    
O35   C14   1.296719 A    
C30   Br26  1.968991 S    
Zn12  O40   1.959023 S    
Zn9   O1    1.970359 S    
O52   C20   1.285789 A    
C179  C180  1.385541 A    
C176  H52   1.079317 S    
C41   C49   1.386607 A    
O22   C3    1.291855 A    
C170  C174  1.422856 A    
Zn7   O19   1.938045 S    
C55   H31   1.082677 S    
C176  C180  1.391361 A    
C123  H43   1.081753 S    
Zn13  O32   1.917940 S    
O49   C17   1.285791 A    
Zn14  O31   1.923984 S    
C143  C151  1.397332 A    
O51   C19   1.284493 A    
C126  C134  1.392563 A    
C102  C126  1.414477 A    
C47   H23   1.082290 S    
Zn4   O5    1.938001 S    
C148  Br12  1.918331 S    
O20   C16   1.283574 A    
H35   C180  1.082934 S    
O10   C6    1.281177 A    
O23   C2    1.292293 A    
Zn11  O25   1.923734 S    
Zn10  O38   1.959023 S    
C67   Br39  1.918826 S    
C144  C152  1.396842 A    
C145  Br9   1.923025 S    
C152  Br16  1.918636 S    
C48   C88   1.418029 A    
C5    C95   1.456457 S    
H34   C177  1.083012 S    
C6    C96   1.486829 S    
C72   C80   1.425317 A    
C25   C27   1.553949 S    
C174  C178  1.391590 A    
C44   C84   1.418130 A    
C125  H45   1.081749 S    
C35   C39   1.600465 S    
C154  C161  1.440931 A    
O17   C13   1.273692 A    
C33   Br32  1.989138 S    
O45   C23   1.271290 A    
C42   H18   1.075257 S    
