data_mof_unit_57401.cif
_audit_creation_date              2012-12-10T20:40:46-0500
_audit_creation_method            fapswitch 2.2
_symmetry_space_group_name_H-M    P1
_symmetry_Int_Tables_number       1
_space_group_crystal_system       triclinic
_cell_length_a                    21.755776
_cell_length_b                    21.774067
_cell_length_c                    47.058177
_cell_angle_alpha                 90.075675
_cell_angle_beta                  89.324849
_cell_angle_gamma                 90.052856
_cell_volume                      22290.4339131

loop_
_atom_site_label
_atom_site_type_symbol
_atom_type_description
_atom_site_fract_x
_atom_site_fract_y
_atom_site_fract_z
_atom_type_partial_charge
C1    C     C_R   0.999248 0.879513 0.000262 0.979696
C2    C     C_R   0.120427 0.998324 0.000178 0.955572
C3    C     C_R   0.001279 0.120436 0.000219 0.958264
C4    C     C_R   0.879686 0.002840 0.000505 0.975068
C5    C     C_R   0.499247 0.379513 0.500262 0.979684
C6    C     C_R   0.620427 0.498325 0.500178 0.955572
C7    C     C_R   0.501279 0.620436 0.500219 0.958265
C8    C     C_R   0.379685 0.502838 0.500505 0.975052
C9    C     C_R   0.809617 0.102262 0.106504 -0.187608
C10   C     C_R   0.880900 0.814093 0.102049 -0.115756
C11   C     C_R   0.190317 0.896493 0.105657 -0.188195
C12   C     C_R   0.128303 0.186525 0.098086 -0.134488
C13   C     C_R   0.309620 0.602267 0.606503 -0.187660
C14   C     C_R   0.380893 0.314096 0.602046 -0.115793
C15   C     C_R   0.690318 0.396488 0.605656 -0.188024
C16   C     C_R   0.628301 0.686519 0.598086 -0.134489
C17   C     C_R   0.714486 0.030449 0.021448 -0.064595
C18   C     C_R   0.971457 0.714709 0.020904 0.005274
C19   C     C_R   0.284906 0.974732 0.021984 -0.049106
C20   C     C_R   0.029879 0.285161 0.020434 -0.015985
C21   C     C_R   0.214486 0.530440 0.521450 -0.064578
C22   C     C_R   0.471446 0.214708 0.520899 0.005247
C23   C     C_R   0.784906 0.474732 0.521984 -0.049108
C24   C     C_R   0.529883 0.785161 0.520433 -0.016003
C25   C     C_R   0.686179 0.996969 0.999708 0.009419
C26   C     C_R   0.002310 0.685610 0.998428 -0.029530
C27   C     C_R   0.314375 0.002222 0.998653 -0.003203
C28   C     C_R   0.997360 0.314335 0.998829 -0.009772
C29   C     C_R   0.186178 0.496968 0.499708 0.009418
C30   C     C_R   0.502307 0.185610 0.498425 -0.029533
C31   C     C_R   0.814375 0.502222 0.498653 -0.003204
C32   C     C_R   0.497362 0.814335 0.498828 -0.009781
C33   C     C_R   0.720157 0.954632 0.982828 0.056144
C34   C     C_R   0.042603 0.718578 0.980113 0.063101
C35   C     C_R   0.281559 0.036923 0.978543 0.059094
C36   C     C_R   0.957317 0.281267 0.980849 0.039741
C37   C     C_R   0.220155 0.454634 0.482826 0.056169
C38   C     C_R   0.542602 0.218580 0.480111 0.063081
C39   C     C_R   0.781560 0.536924 0.478544 0.059099
C40   C     C_R   0.457320 0.781266 0.480848 0.039746
C41   C     C_R   0.784419 0.955243 0.984178 -0.104491
C42   C     C_R   0.043312 0.782924 0.981574 -0.043865
C43   C     C_R   0.217382 0.039217 0.980618 -0.047315
C44   C     C_R   0.956960 0.216937 0.982160 -0.030262
C45   C     C_R   0.284418 0.455245 0.484176 -0.104466
C46   C     C_R   0.543310 0.282925 0.481573 -0.043854
C47   C     C_R   0.717383 0.539217 0.480618 -0.047328
C48   C     C_R   0.456962 0.716936 0.482159 -0.030258
C49   C     C_R   0.813349 0.998043 0.002207 -0.096530
C50   C     C_R   0.003866 0.812968 0.001272 -0.124465
C51   C     C_R   0.186942 0.002182 0.001132 -0.105296
C52   C     C_R   0.997243 0.186945 0.001077 -0.101070
C53   C     C_R   0.313348 0.498040 0.502207 -0.096549
C54   C     C_R   0.503863 0.312968 0.501271 -0.124452
C55   C     C_R   0.686942 0.502182 0.501132 -0.105306
C56   C     C_R   0.497244 0.686945 0.501076 -0.101075
C57   C     C_R   0.778759 0.031835 0.022960 -0.103738
C58   C     C_R   0.971508 0.778720 0.022498 -0.010382
C59   C     C_R   0.220655 0.971599 0.022940 -0.110017
C60   C     C_R   0.031192 0.221111 0.021406 -0.042467
C61   C     C_R   0.278758 0.531829 0.522961 -0.103742
C62   C     C_R   0.471499 0.278719 0.522495 -0.010418
C63   C     C_R   0.720656 0.471600 0.522940 -0.110002
C64   C     C_R   0.531195 0.721111 0.521405 -0.042454
C65   C     C_R   0.671232 0.849641 0.977865 -0.028028
C66   C     C_R   0.147648 0.670138 0.975888 -0.018362
C67   C     C_R   0.335473 0.134486 0.963158 -0.012262
C68   C     C_R   0.852742 0.330680 0.976872 -0.022941
C69   C     C_R   0.171224 0.349646 0.477858 -0.028054
C70   C     C_R   0.647648 0.170142 0.475885 -0.018370
C71   C     C_R   0.835475 0.634488 0.463160 -0.012260
C72   C     C_R   0.352743 0.830677 0.476871 -0.022935
C73   C     C_R   0.655259 0.799185 0.960388 -0.146658
C74   C     C_R   0.194231 0.640065 0.959960 -0.188504
C75   C     C_R   0.364896 0.170436 0.941954 -0.169900
C76   C     C_R   0.806996 0.360818 0.960981 -0.185771
C77   C     C_R   0.155242 0.299195 0.460380 -0.146674
C78   C     C_R   0.694234 0.140077 0.459956 -0.188522
C79   C     C_R   0.864900 0.670441 0.441958 -0.169905
C80   C     C_R   0.306997 0.860811 0.460978 -0.185776
C81   C     C_R   0.666356 0.801634 0.930737 -0.115062
C82   C     C_R   0.188476 0.633781 0.930256 -0.135209
C83   C     C_R   0.363377 0.151632 0.913206 -0.147966
C84   C     C_R   0.813945 0.366612 0.931247 -0.134930
C85   C     C_R   0.166331 0.301649 0.430729 -0.115017
C86   C     C_R   0.688481 0.133801 0.430252 -0.135197
C87   C     C_R   0.863383 0.651640 0.413210 -0.147976
C88   C     C_R   0.313947 0.866605 0.431244 -0.134949
C89   C     C_R   0.467161 0.005848 0.764880 -0.100230
C90   C     C_R   0.003828 0.500310 0.764049 -0.095411
C91   C     C_R   0.967129 0.505892 0.264877 -0.100237
C92   C     C_R   0.503860 0.000290 0.264049 -0.095443
C93   C     C_R   0.684370 0.857518 0.917679 0.348631
C94   C     C_R   0.135843 0.656999 0.916487 0.363194
C95   C     C_R   0.333493 0.096302 0.905687 0.362786
C96   C     C_R   0.866908 0.342759 0.917377 0.364289
C97   C     C_R   0.184351 0.357533 0.417673 0.348604
C98   C     C_R   0.635844 0.157014 0.416484 0.363201
C99   C     C_R   0.833499 0.596310 0.405689 0.362783
C100  C     C_R   0.366912 0.842756 0.417375 0.364276
C101  C     C_R   0.694164 0.910504 0.934804 -0.207928
C102  C     C_R   0.085294 0.679051 0.932904 -0.254705
C103  C     C_R   0.313453 0.055250 0.927282 -0.236293
C104  C     C_R   0.916559 0.320334 0.933696 -0.252730
C105  C     C_R   0.194156 0.410515 0.434799 -0.207940
C106  C     C_R   0.585293 0.179056 0.432902 -0.254715
C107  C     C_R   0.813457 0.555256 0.427283 -0.236291
C108  C     C_R   0.416563 0.820334 0.433695 -0.252724
C109  C     C_R   0.689990 0.906031 0.964998 -0.022107
C110  C     C_R   0.091445 0.686538 0.962755 -0.045017
C111  C     C_R   0.313643 0.074704 0.956231 -0.066311
C112  C     C_R   0.909185 0.313278 0.963583 -0.049975
C113  C     C_R   0.189986 0.406037 0.464994 -0.022120
C114  C     C_R   0.591444 0.186540 0.462753 -0.045025
C115  C     C_R   0.813644 0.574707 0.456232 -0.066303
C116  C     C_R   0.409188 0.813277 0.463582 -0.049973
C117  C     C_R   0.478901 0.052260 0.811218 0.702527
C118  C     C_R   0.017730 0.553257 0.808790 0.741626
C119  C     C_R   0.448997 0.949155 0.808360 0.708769
C120  C     C_R   0.989083 0.447357 0.808821 0.741454
C121  C     C_R   0.978898 0.552294 0.311216 0.702493
C122  C     C_R   0.517734 0.053253 0.308788 0.741615
C123  C     C_R   0.948950 0.449203 0.308358 0.708811
C124  C     C_R   0.489112 0.947346 0.308822 0.741489
C125  C     C_R   0.479881 0.936930 0.870013 0.387989
C126  C     C_R   0.052321 0.474219 0.867901 0.381685
C127  C     C_R   0.537637 0.029821 0.866090 0.355384
C128  C     C_R   0.951979 0.526400 0.868012 0.380738
C129  C     C_R   0.979866 0.436947 0.370008 0.387993
C130  C     C_R   0.552334 0.974228 0.367902 0.381661
C131  C     C_R   0.037627 0.529836 0.366089 0.355398
C132  C     C_R   0.451984 0.026395 0.368010 0.380710
C133  C     C_R   0.469831 0.946345 0.899115 0.259358
C134  C     C_R   0.047864 0.467219 0.897723 0.250448
C135  C     C_R   0.532353 0.040407 0.895798 0.305609
C136  C     C_R   0.955025 0.533219 0.897847 0.250993
C137  C     C_R   0.969828 0.446351 0.399111 0.259346
C138  C     C_R   0.547873 0.967225 0.397724 0.250451
C139  C     C_R   0.032350 0.540414 0.395797 0.305604
C140  C     C_R   0.455027 0.033215 0.397846 0.250995
C141  C     C_R   0.497248 0.987416 0.853138 -0.078166
C142  C     C_R   0.002512 0.500382 0.853289 -0.096378
C143  C     C_R   0.997232 0.487438 0.353134 -0.078124
C144  C     C_R   0.502521 0.000382 0.353289 -0.096396
C145  C     C_R   0.938372 0.527434 0.129715 0.003283
C146  C     C_R   0.458618 0.036365 0.130662 0.012829
C147  C     C_R   0.046722 0.497426 0.132513 0.000549
C148  C     C_R   0.546267 0.965195 0.129688 0.015277
C149  C     C_R   0.438286 0.027110 0.629726 0.003155
C150  C     C_R   0.958607 0.536391 0.630658 0.012851
C151  C     C_R   0.546803 0.997701 0.632508 0.000560
C152  C     C_R   0.046232 0.465190 0.629693 0.015243
C153  C     C_R   0.942392 0.523413 0.100115 -0.102687
C154  C     C_R   0.459675 0.037264 0.101006 -0.107618
C155  C     C_R   0.049587 0.494152 0.102743 -0.094358
C156  C     C_R   0.543262 0.963633 0.100084 -0.097571
C157  C     C_R   0.442302 0.023097 0.600126 -0.102728
C158  C     C_R   0.959671 0.537282 0.601002 -0.107601
C159  C     C_R   0.549665 0.994434 0.602739 -0.094520
C160  C     C_R   0.043235 0.463625 0.600089 -0.097568
C161  C     C_R   0.997420 0.506164 0.086533 -0.092548
C162  C     C_R   0.500887 0.000189 0.085905 -0.099904
C163  C     C_R   0.497417 0.006151 0.586536 -0.092438
C164  C     C_R   0.000876 0.500191 0.585906 -0.099898
C165  C     C_R   0.498786 0.999875 0.944356 0.998071
C166  C     C_R   0.000330 0.500047 0.944431 1.007165
C167  C     C_R   0.998787 0.499875 0.444356 0.998068
C168  C     C_R   0.500330 0.000047 0.444431 1.007139
C169  C     C_R   0.964176 0.460038 0.189044 0.561654
C170  C     C_R   0.480965 0.950612 0.189447 0.551581
C171  C     C_R   0.997829 0.563984 0.191664 0.553628
C172  C     C_R   0.526367 0.050397 0.189294 0.550883
C173  C     C_R   0.464267 0.959979 0.689050 0.561603
C174  C     C_R   0.980902 0.450648 0.689448 0.551735
C175  C     C_R   0.497809 0.063955 0.691666 0.553651
C176  C     C_R   0.026350 0.550412 0.689293 0.550827
C177  C     C_R   0.990610 0.513605 0.145991 0.104876
C178  C     C_R   0.502867 0.000854 0.145028 0.100122
C179  C     C_R   0.490611 0.013573 0.645994 0.104944
C180  C     C_R   0.002841 0.500868 0.645028 0.100126
C181  C     C_R   0.994747 0.562884 0.221698 -0.160617
C182  C     C_R   0.529388 0.050789 0.219127 -0.161628
C183  C     C_R   0.951917 0.458865 0.218437 -0.160615
C184  C     C_R   0.478351 0.949910 0.219311 -0.161772
C185  C     C_R   0.494741 0.062852 0.721699 -0.160630
C186  C     C_R   0.029368 0.550807 0.719127 -0.161647
C187  C     C_R   0.451998 0.958802 0.718441 -0.160608
C188  C     C_R   0.978288 0.449951 0.719311 -0.161716
C189  C     C_R   0.971351 0.509189 0.234997 -0.084738
C190  C     C_R   0.503891 0.000322 0.234129 -0.086462
C191  C     C_R   0.471387 0.009143 0.735000 -0.084732
C192  C     C_R   0.003854 0.500348 0.734129 -0.086492
C193  C     C_R   0.500078 0.000042 0.055146 0.978472
C194  C     C_R   0.999524 0.501464 0.055381 0.944297
C195  C     C_R   0.000077 0.500042 0.555146 0.978473
C196  C     C_R   0.499524 0.001465 0.555382 0.944386
C197  C     C_R   0.010637 0.614233 0.238739 0.335512
C198  C     C_R   0.554257 0.100899 0.234414 0.334832
C199  C     C_R   0.921672 0.408871 0.231692 0.341946
C200  C     C_R   0.453744 0.899609 0.234770 0.334690
C201  C     C_R   0.510604 0.114211 0.738739 0.335576
C202  C     C_R   0.054247 0.600912 0.734416 0.334840
C203  C     C_R   0.421783 0.908789 0.731694 0.341936
C204  C     C_R   0.953647 0.399666 0.734770 0.334599
C205  C     C_R   0.497570 0.997852 0.912719 -0.435395
C206  C     C_R   0.001093 0.500171 0.912932 -0.462444
C207  C     C_R   0.997570 0.497855 0.412718 -0.435403
C208  C     C_R   0.501095 0.000171 0.412932 -0.462449
C209  C     C_R   0.491073 0.115563 0.767422 0.351235
C210  C     C_R   0.038239 0.607843 0.763292 0.332633
C211  C     C_R   0.428592 0.900017 0.761199 0.338211
C212  C     C_R   0.969675 0.392719 0.763446 0.334161
C213  C     C_R   0.991099 0.615594 0.267421 0.351220
C214  C     C_R   0.538243 0.107833 0.263289 0.332575
C215  C     C_R   0.928491 0.400087 0.261196 0.338257
C216  C     C_R   0.469766 0.892681 0.263449 0.334484
C217  C     C_R   0.477876 0.058982 0.781365 -0.181327
C218  C     C_R   0.019078 0.554977 0.778879 -0.177156
C219  C     C_R   0.448937 0.950364 0.778267 -0.182500
C220  C     C_R   0.988464 0.445620 0.778930 -0.177495
C221  C     C_R   0.977874 0.559019 0.281363 -0.181316
C222  C     C_R   0.519089 0.054966 0.278878 -0.177181
C223  C     C_R   0.948876 0.450417 0.278264 -0.182500
C224  C     C_R   0.488513 0.945599 0.278931 -0.177383
C225  C     C_R   0.619967 0.999473 0.998129 0.934883
C226  C     C_R   0.000499 0.619640 0.997825 0.883179
C227  C     C_R   0.380422 0.000359 0.997664 0.927594
C228  C     C_R   0.999539 0.380302 0.997941 0.950721
C229  C     C_R   0.119967 0.499472 0.498129 0.934879
C230  C     C_R   0.500499 0.119640 0.497823 0.883242
C231  C     C_R   0.880422 0.500359 0.497664 0.927579
C232  C     C_R   0.499539 0.880301 0.497941 0.950701
C233  C     C_R   0.824032 0.040549 0.100322 -0.085295
C234  C     C_R   0.944999 0.824787 0.099261 -0.023689
C235  C     C_R   0.173808 0.957987 0.100328 -0.080643
C236  C     C_R   0.063374 0.180328 0.097765 -0.033965
C237  C     C_R   0.324039 0.540555 0.600322 -0.085289
C238  C     C_R   0.444994 0.324777 0.599260 -0.023686
C239  C     C_R   0.673807 0.457982 0.600328 -0.080644
C240  C     C_R   0.563372 0.680326 0.597765 -0.033976
C241  C     C_R   0.821412 0.019165 0.072002 0.093500
C242  C     C_R   0.973967 0.819845 0.072198 0.039723
C243  C     C_R   0.174942 0.980476 0.072151 0.100170
C244  C     C_R   0.031726 0.183832 0.071632 0.001117
C245  C     C_R   0.321418 0.519168 0.572002 0.093497
C246  C     C_R   0.473962 0.319833 0.572196 0.039681
C247  C     C_R   0.674940 0.480472 0.572151 0.100138
C248  C     C_R   0.531725 0.683834 0.571631 0.001111
C249  C     C_R   0.805802 0.059317 0.049617 -0.100898
C250  C     C_R   0.939025 0.805767 0.047867 -0.009529
C251  C     C_R   0.192605 0.942144 0.049203 -0.094283
C252  C     C_R   0.064679 0.193639 0.045950 -0.054179
C253  C     C_R   0.305802 0.559315 0.549617 -0.100906
C254  C     C_R   0.439018 0.305765 0.547865 -0.009581
C255  C     C_R   0.692605 0.442142 0.549202 -0.094284
C256  C     C_R   0.564680 0.693638 0.545950 -0.054181
C257  C     C_R   0.798596 0.122961 0.055507 -0.174904
C258  C     C_R   0.874260 0.799330 0.050493 -0.117726
C259  C     C_R   0.202414 0.878613 0.054336 -0.183362
C260  C     C_R   0.129792 0.195554 0.046137 -0.156062
C261  C     C_R   0.298591 0.622959 0.555506 -0.174901
C262  C     C_R   0.374252 0.299339 0.550490 -0.117777
C263  C     C_R   0.702416 0.378611 0.554335 -0.183368
C264  C     C_R   0.629793 0.695550 0.546137 -0.156056
C265  C     C_R   0.801395 0.144769 0.084084 0.485715
C266  C     C_R   0.845724 0.799524 0.077768 0.311851
C267  C     C_R   0.200212 0.855380 0.082672 0.476710
C268  C     C_R   0.161551 0.195647 0.072316 0.283546
C269  C     C_R   0.301392 0.644771 0.584082 0.485702
C270  C     C_R   0.345716 0.299535 0.577765 0.311821
C271  C     C_R   0.700214 0.355376 0.582670 0.476694
C272  C     C_R   0.661551 0.695640 0.572316 0.283530
H1    H     H_    0.902324 0.533866 0.087554 0.206127
H2    H     H_    0.427182 0.065350 0.089552 0.220231
H3    H     H_    0.092146 0.481159 0.092175 0.211015
H4    H     H_    0.575230 0.935585 0.087906 0.220727
H5    H     H_    0.402162 0.033325 0.587573 0.206266
H6    H     H_    0.927190 0.565375 0.589546 0.220217
H7    H     H_    0.592290 0.981677 0.592166 0.211031
H8    H     H_    0.075199 0.435565 0.587913 0.220711
N1    N     N_R   0.477153 0.995078 0.823496 -0.323116
N2    N     N_R   0.003158 0.500332 0.822770 -0.327862
N3    N     N_R   0.977133 0.495111 0.323494 -0.323107
N4    N     N_R   0.503170 0.000327 0.322771 -0.327882
N5    N     N_R   0.985287 0.512301 0.176411 -0.400291
N6    N     N_R   0.503445 0.000627 0.175422 -0.395197
N7    N     N_R   0.485317 0.012261 0.676414 -0.400292
N8    N     N_R   0.003410 0.500649 0.675423 -0.395211
O1    O     O_R   0.000020 0.908410 0.023640 -0.625075
O2    O     O_R   0.091590 0.000020 0.023640 -0.608619
O3    O     O_R   0.999980 0.091590 0.023640 -0.627055
O4    O     O_R   0.908410 0.999980 0.023640 -0.603703
O5    O     O_R   0.500020 0.408410 0.523640 -0.625060
O6    O     O_R   0.591590 0.500020 0.523640 -0.608628
O7    O     O_R   0.499980 0.591590 0.523640 -0.627044
O8    O     O_R   0.408410 0.499980 0.523640 -0.603711
O9    O     O_R   0.000040 0.908440 0.976310 -0.563505
O10   O     O_R   0.091560 0.000040 0.976310 -0.565572
O11   O     O_R   0.999960 0.091560 0.976310 -0.561537
O12   O     O_R   0.908440 0.999960 0.976310 -0.580015
O13   O     O_R   0.500040 0.408440 0.476310 -0.563510
O14   O     O_R   0.591560 0.500040 0.476310 -0.565572
O15   O     O_R   0.499960 0.591560 0.476310 -0.561544
O16   O     O_R   0.408440 0.499960 0.476310 -0.580009
O17   O     O_R   0.591640 0.051770 0.999960 -0.624025
O18   O     O_R   0.948230 0.591640 0.999960 -0.612146
O19   O     O_R   0.408360 0.948230 0.999960 -0.591984
O20   O     O_R   0.051770 0.408360 0.999960 -0.583286
O21   O     O_R   0.091640 0.551770 0.499960 -0.624012
O22   O     O_R   0.448230 0.091640 0.499960 -0.612146
O23   O     O_R   0.908360 0.448230 0.499960 -0.591990
O24   O     O_R   0.551770 0.908360 0.499960 -0.583285
O25   O     O_R   0.591650 0.948320 0.999970 -0.595684
O26   O     O_R   0.051680 0.591650 0.999970 -0.596906
O27   O     O_R   0.408350 0.051680 0.999970 -0.585027
O28   O     O_R   0.948320 0.408350 0.999970 -0.594995
O29   O     O_R   0.091650 0.448320 0.499970 -0.595681
O30   O     O_R   0.551680 0.091650 0.499970 -0.596900
O31   O     O_R   0.908350 0.551680 0.499970 -0.585029
O32   O     O_R   0.448320 0.908350 0.499970 -0.594997
O33   O     O_2   0.956924 0.409073 0.173121 -0.440269
O34   O     O_2   0.463806 0.901114 0.174245 -0.443211
O35   O     O_2   0.010596 0.616294 0.177525 -0.431662
O36   O     O_2   0.543498 0.099980 0.174019 -0.441862
O37   O     O_2   0.457076 0.909004 0.673129 -0.440270
O38   O     O_2   0.963713 0.401157 0.674249 -0.443240
O39   O     O_2   0.510515 0.116277 0.677526 -0.431626
O40   O     O_2   0.043502 0.599985 0.674017 -0.441841
O41   O     O_2   0.481158 0.102078 0.827991 -0.390602
O42   O     O_2   0.033574 0.602691 0.824194 -0.403210
O43   O     O_2   0.415534 0.906675 0.822168 -0.405270
O44   O     O_2   0.972855 0.397911 0.824253 -0.402747
O45   O     O_2   0.981166 0.602111 0.327990 -0.390607
O46   O     O_2   0.533562 0.102693 0.324191 -0.403215
O47   O     O_2   0.915475 0.406735 0.322168 -0.405232
O48   O     O_2   0.472879 0.897903 0.324255 -0.402660
O49   O     O_R   0.500040 0.051770 0.958040 -0.563284
O50   O     O_R   0.948230 0.500040 0.958040 -0.564995
O51   O     O_R   0.499960 0.948230 0.958040 -0.558782
O52   O     O_R   0.051770 0.499960 0.958040 -0.567935
O53   O     O_R   0.000040 0.551770 0.458040 -0.563277
O54   O     O_R   0.448230 0.000040 0.458040 -0.564995
O55   O     O_R   0.999960 0.448230 0.458040 -0.558785
O56   O     O_R   0.551770 0.999960 0.458040 -0.567934
O57   O     O_R   0.500000 0.051760 0.041880 -0.598343
O58   O     O_R   0.948240 0.500000 0.041880 -0.616456
O59   O     O_R   0.500000 0.948240 0.041880 -0.605060
O60   O     O_R   0.051760 0.500000 0.041880 -0.598002
O61   O     O_R   0.000000 0.551760 0.541880 -0.598358
O62   O     O_R   0.448240 1.000000 0.541880 -0.616526
O63   O     O_R   0.000000 0.448240 0.541880 -0.605056
O64   O     O_R   0.551760 1.000000 0.541880 -0.598034
Zn1   Zn    Zn3+2 1.000000 1.000000 0.031580 1.167413
Zn2   Zn    Zn3+2 0.500000 0.500000 0.531580 1.167418
Zn3   Zn    Zn3+2 1.000000 1.000000 0.968370 1.152254
Zn4   Zn    Zn3+2 0.500000 0.500000 0.468370 1.152241
Zn5   Zn    Zn3+2 0.500020 0.069110 0.999960 1.143021
Zn6   Zn    Zn3+2 0.930890 0.500020 0.999960 1.148533
Zn7   Zn    Zn3+2 0.499980 0.930890 0.999960 1.165588
Zn8   Zn    Zn3+2 0.069110 0.499980 0.999960 1.162225
Zn9   Zn    Zn3+2 0.000020 0.569110 0.499960 1.143037
Zn10  Zn    Zn3+2 0.430890 0.000020 0.499960 1.148520
Zn11  Zn    Zn3+2 0.999980 0.430890 0.499960 1.165592
Zn12  Zn    Zn3+2 0.569110 0.999980 0.499960 1.162242
C273  C     C_2   0.803186 0.121293 0.136766 0.586577
H9    H     H_    0.835968 0.105471 0.152337 0.077365
O65   O     O_2   0.759581 0.152348 0.144760 -0.439829
C274  C     C_2   0.849698 0.819805 0.130238 0.547093
H10   H     H_    0.805143 0.841972 0.131876 0.137514
O66   O     O_2   0.872312 0.798181 0.151635 -0.512280
C275  C     C_2   0.196801 0.876117 0.135633 0.584849
H11   H     H_    0.163182 0.890036 0.151594 0.080118
O67   O     O_2   0.241255 0.846133 0.142977 -0.443608
C276  C     C_2   0.162295 0.181210 0.125231 0.543289
H12   H     H_    0.205210 0.155914 0.125808 0.138252
O68   O     O_2   0.143918 0.206547 0.146873 -0.519297
C277  C     C_2   0.303193 0.621301 0.636764 0.586643
H13   H     H_    0.335978 0.605483 0.652335 0.077415
O69   O     O_2   0.259586 0.652354 0.644759 -0.439781
C278  C     C_2   0.349690 0.319814 0.630235 0.547032
H14   H     H_    0.305138 0.341988 0.631872 0.137528
O70   O     O_2   0.372299 0.298187 0.651632 -0.512292
C279  C     C_2   0.696805 0.376112 0.635632 0.584646
H15   H     H_    0.663186 0.390029 0.651593 0.079970
O71   O     O_2   0.741261 0.346129 0.642975 -0.443772
C280  C     C_2   0.662292 0.681201 0.625231 0.543200
H16   H     H_    0.705206 0.655903 0.625808 0.138273
O72   O     O_2   0.643915 0.706536 0.646874 -0.519385
C281  C     C_2   0.663069 0.744329 0.913714 0.499636
H17   H     H_    0.701642 0.731236 0.900205 0.131007
O73   O     O_2   0.617402 0.711701 0.914434 -0.529226
C282  C     C_2   0.237447 0.601348 0.913841 0.597663
H18   H     H_    0.285498 0.611458 0.917480 0.032415
O74   O     O_2   0.224475 0.561917 0.896475 -0.424831
C283  C     C_2   0.394834 0.189477 0.891193 0.641076
H19   H     H_    0.389167 0.238905 0.890849 0.016712
O75   O     O_2   0.428730 0.165629 0.873555 -0.424372
C284  C     C_2   0.765995 0.399473 0.914931 0.602488
H20   H     H_    0.717680 0.390086 0.918756 0.031339
O76   O     O_2   0.780109 0.438515 0.897465 -0.423237
C285  C     C_2   0.163032 0.244347 0.413704 0.499674
H21   H     H_    0.201601 0.231250 0.400193 0.131006
O77   O     O_2   0.117359 0.211727 0.414425 -0.529210
C286  C     C_2   0.737458 0.101381 0.413835 0.597659
H22   H     H_    0.785506 0.111498 0.417475 0.032413
O78   O     O_2   0.724492 0.061952 0.396467 -0.424849
C287  C     C_2   0.894842 0.689487 0.391198 0.641092
H23   H     H_    0.889173 0.738915 0.390855 0.016719
O79   O     O_2   0.928741 0.665641 0.373561 -0.424381
C288  C     C_2   0.265995 0.899462 0.414928 0.602515
H24   H     H_    0.217680 0.890071 0.418753 0.031348
O80   O     O_2   0.280108 0.938504 0.397462 -0.423211
S1    S     S_3+6 0.695801 0.861772 0.879855 0.049021
O81   O     O_2   0.664839 0.918432 0.868882 -0.220433
O82   O     O_2   0.763644 0.866176 0.873782 -0.298857
O83   O     O_3   0.667556 0.801360 0.861889 -0.513169
H25   H     H_    0.676480 0.810351 0.841629 0.423884
S2    S     S_3+6 0.136366 0.662903 0.878593 0.085610
O84   O     O_2   0.115885 0.602397 0.866727 -0.231411
O85   O     O_2   0.094555 0.712941 0.868355 -0.250415
O86   O     O_3   0.207822 0.678318 0.866510 -0.499110
H26   H     H_    0.205773 0.672794 0.845644 0.426960
S3    S     S_3+6 0.314505 0.081698 0.869352 0.052469
O87   O     O_2   0.362304 0.040021 0.856544 -0.295822
O88   O     O_2   0.252677 0.051057 0.867675 -0.276588
O89   O     O_3   0.311332 0.146981 0.850351 -0.505760
H27   H     H_    0.301698 0.133637 0.830770 0.420016
S4    S     S_3+6 0.868091 0.336845 0.879470 0.084380
O90   O     O_2   0.890301 0.396958 0.867672 -0.233800
O91   O     O_2   0.909497 0.286039 0.869174 -0.253950
O92   O     O_3   0.796988 0.322712 0.867369 -0.497870
H28   H     H_    0.800146 0.328424 0.846521 0.424675
S5    S     S_3+6 0.195772 0.361794 0.379848 0.049008
O93   O     O_2   0.164796 0.418451 0.368880 -0.220478
O94   O     O_2   0.263613 0.366212 0.373771 -0.298853
O95   O     O_3   0.167534 0.301382 0.361880 -0.513181
H29   H     H_    0.176433 0.310389 0.341619 0.423899
S6    S     S_3+6 0.636364 0.162926 0.378590 0.085612
O96   O     O_2   0.615887 0.102420 0.366722 -0.231400
O97   O     O_2   0.594548 0.212962 0.368355 -0.250405
O98   O     O_3   0.707817 0.178349 0.366507 -0.499116
H30   H     H_    0.705766 0.172829 0.345640 0.426945
S7    S     S_3+6 0.814513 0.581710 0.369354 0.052455
O99   O     O_2   0.862305 0.540021 0.356548 -0.295875
O100  O     O_2   0.752679 0.551082 0.367676 -0.276570
O101  O     O_3   0.811360 0.646993 0.350351 -0.505745
H31   H     H_    0.801730 0.633648 0.330771 0.420016
S8    S     S_3+6 0.368098 0.836840 0.379468 0.084395
O102  O     O_2   0.390306 0.896953 0.367669 -0.233758
O103  O     O_2   0.409507 0.786035 0.369174 -0.253960
O104  O     O_3   0.296996 0.822703 0.367367 -0.497855
H32   H     H_    0.300156 0.828411 0.346519 0.424717
C289  C     C_2   0.717622 0.968363 0.921401 0.525347
H33   H     H_    0.742606 0.967409 0.901404 0.153712
O105  O     O_2   0.710291 0.018222 0.932741 -0.509601
C290  C     C_2   0.026582 0.693774 0.918490 0.599170
H34   H     H_    0.013357 0.667856 0.899838 0.146268
O106  O     O_2   0.992526 0.734650 0.926849 -0.523536
C291  C     C_2   0.291148 0.992909 0.918808 0.601465
H35   H     H_    0.307089 0.972663 0.899017 0.168225
O107  O     O_2   0.255451 0.962974 0.933413 -0.545357
C292  C     C_2   0.975750 0.305031 0.919147 0.596469
H36   H     H_    0.989894 0.330651 0.900435 0.148596
O108  O     O_2   0.009226 0.264040 0.927464 -0.521553
C293  C     C_2   0.217616 0.468376 0.421398 0.525351
H37   H     H_    0.242585 0.467424 0.401396 0.153733
O109  O     O_2   0.210305 0.518232 0.432742 -0.509635
C294  C     C_2   0.526578 0.193774 0.418489 0.599166
H38   H     H_    0.513355 0.167856 0.399837 0.146264
O110  O     O_2   0.492518 0.234645 0.426849 -0.523523
C295  C     C_2   0.791152 0.492916 0.418807 0.601448
H39   H     H_    0.807089 0.472674 0.399014 0.168247
O111  O     O_2   0.755459 0.462977 0.433412 -0.545355
C296  C     C_2   0.475756 0.805034 0.419147 0.596457
H40   H     H_    0.489901 0.830656 0.400435 0.148586
O112  O     O_2   0.509233 0.764044 0.427464 -0.521549
S9    S     S_3+6 0.065063 0.670197 0.226684 0.155259
O113  O     O_2   0.112647 0.640042 0.207909 -0.235214
O114  O     O_2   0.032748 0.719384 0.210183 -0.164697
O115  O     O_3   0.101296 0.702470 0.254319 -0.463044
H41   H     H_    0.128016 0.734556 0.245803 0.400278
S10   S     S_3+6 0.615116 0.146657 0.219834 0.157859
O116  O     O_2   0.654464 0.108110 0.200315 -0.238227
O117  O     O_2   0.588871 0.199458 0.203392 -0.152949
O118  O     O_3   0.659846 0.174245 0.245815 -0.470506
H42   H     H_    0.690221 0.200988 0.236015 0.401790
S11   S     S_3+6 0.863700 0.367406 0.213041 0.148791
O119  O     O_2   0.833876 0.408873 0.191722 -0.253191
O120  O     O_2   0.891935 0.313531 0.197734 -0.163129
O121  O     O_3   0.809069 0.342092 0.235753 -0.465261
H43   H     H_    0.781535 0.316397 0.224056 0.401848
S12   S     S_3+6 0.393152 0.853496 0.220810 0.158491
O122  O     O_2   0.353434 0.891791 0.201824 -0.236689
O123  O     O_2   0.419742 0.800933 0.203970 -0.153093
O124  O     O_3   0.348699 0.825542 0.247259 -0.474685
H44   H     H_    0.319823 0.796998 0.237876 0.404460
S13   S     S_3+6 0.565000 0.170197 0.726680 0.155207
O125  O     O_2   0.612585 0.140060 0.707898 -0.235245
O126  O     O_2   0.532657 0.219372 0.710183 -0.164728
O127  O     O_3   0.601235 0.202483 0.754311 -0.463062
H45   H     H_    0.627974 0.234547 0.745790 0.400081
S14   S     S_3+6 0.115092 0.646683 0.719832 0.157905
O128  O     O_2   0.154452 0.608149 0.700312 -0.237650
O129  O     O_2   0.088823 0.699471 0.703389 -0.153461
O130  O     O_3   0.159819 0.674286 0.745810 -0.470450
H46   H     H_    0.189832 0.701479 0.736039 0.401882
S15   S     S_3+6 0.363850 0.867279 0.713039 0.148725
O131  O     O_2   0.334011 0.908726 0.691715 -0.253643
O132  O     O_2   0.392128 0.813420 0.697736 -0.162781
O133  O     O_3   0.309225 0.841932 0.735745 -0.465348
H47   H     H_    0.281535 0.816478 0.724014 0.401789
S16   S     S_3+6 0.892978 0.353644 0.720819 0.158343
O134  O     O_2   0.853314 0.392042 0.701851 -0.239242
O135  O     O_2   0.919439 0.301043 0.703963 -0.150826
O136  O     O_3   0.848526 0.325738 0.747276 -0.474543
H48   H     H_    0.817978 0.299216 0.737764 0.403897
S17   S     S_3+6 0.473054 0.188035 0.783306 0.160050
O137  O     O_2   0.523914 0.207391 0.802738 -0.146577
O138  O     O_2   0.464435 0.236478 0.760998 -0.210199
O139  O     O_3   0.407032 0.181991 0.802072 -0.491954
H49   H     H_    0.403682 0.220937 0.812880 0.405657
S18   S     S_3+6 0.033364 0.683799 0.777658 0.166928
O140  O     O_2   0.088778 0.696682 0.795523 -0.157489
O141  O     O_2   0.029994 0.730830 0.754398 -0.198573
O142  O     O_3   0.969333 0.690242 0.797827 -0.461332
H50   H     H_    0.973759 0.729866 0.807967 0.412055
S19   S     S_3+6 0.421995 0.823631 0.774861 0.162026
O143  O     O_2   0.362694 0.816790 0.791278 -0.151334
O144  O     O_2   0.423797 0.776767 0.751410 -0.215650
O145  O     O_3   0.481369 0.809129 0.796230 -0.457906
H51   H     H_    0.476960 0.765292 0.801482 0.408057
S20   S     S_3+6 0.975191 0.316757 0.777590 0.165091
O146  O     O_2   0.919691 0.303116 0.795868 -0.160019
O147  O     O_2   0.979402 0.269946 0.754166 -0.199531
O148  O     O_3   0.039007 0.310944 0.797241 -0.463246
H52   H     H_    0.035021 0.271092 0.807224 0.410661
S21   S     S_3+6 0.973100 0.688074 0.283304 0.160066
O149  O     O_2   0.023962 0.707411 0.302739 -0.146542
O150  O     O_2   0.964505 0.736519 0.260995 -0.210174
O151  O     O_3   0.907070 0.682051 0.302066 -0.491964
H53   H     H_    0.903734 0.720993 0.312878 0.405658
S22   S     S_3+6 0.533357 0.183791 0.277651 0.167096
O152  O     O_2   0.588765 0.196684 0.295518 -0.157340
O153  O     O_2   0.529990 0.230814 0.254388 -0.198372
O154  O     O_3   0.469320 0.190234 0.297816 -0.461373
H54   H     H_    0.473730 0.229870 0.307947 0.412038
S23   S     S_3+6 0.921849 0.323704 0.274855 0.161901
O155  O     O_2   0.862553 0.316902 0.291281 -0.151414
O156  O     O_2   0.923601 0.276843 0.251403 -0.215851
O157  O     O_3   0.981227 0.309156 0.296215 -0.457870
H55   H     H_    0.976779 0.265326 0.301475 0.408072
S24   S     S_3+6 0.475337 0.816728 0.277601 0.164287
O158  O     O_2   0.419832 0.803044 0.295868 -0.160669
O159  O     O_2   0.479616 0.769909 0.254182 -0.200580
O160  O     O_3   0.539138 0.810980 0.297266 -0.463017
H56   H     H_    0.535178 0.771129 0.307251 0.410692
S25   S     S_3+6 0.510322 0.863826 0.860794 0.165528
O161  O     O_2   0.459326 0.818837 0.855360 -0.170689
O162  O     O_2   0.551345 0.868815 0.834984 -0.200435
O163  O     O_3   0.552044 0.837776 0.888027 -0.489935
H57   H     H_    0.549076 0.792493 0.886820 0.423371
S26   S     S_3+6 0.119324 0.450989 0.848039 0.153650
O164  O     O_2   0.109916 0.386586 0.837440 -0.203769
O165  O     O_2   0.130057 0.492293 0.822923 -0.271534
O166  O     O_3   0.183060 0.453400 0.867825 -0.406777
H58   H     H_    0.215674 0.434797 0.855747 0.392830
S27   S     S_3+6 0.605676 0.050938 0.846830 0.152799
O167  O     O_2   0.616347 0.006387 0.822833 -0.250334
O168  O     O_2   0.600669 0.114577 0.834775 -0.162449
O169  O     O_3   0.666312 0.048744 0.868633 -0.472202
H59   H     H_    0.702534 0.056759 0.856238 0.400999
S28   S     S_3+6 0.885800 0.549524 0.848287 0.153345
O170  O     O_2   0.895609 0.613926 0.837734 -0.203239
O171  O     O_2   0.876196 0.508177 0.823150 -0.273063
O172  O     O_3   0.821192 0.547053 0.868167 -0.406790
H60   H     H_    0.789207 0.566132 0.856262 0.394005
S29   S     S_3+6 0.010278 0.363837 0.360776 0.165515
O173  O     O_2   0.959264 0.318866 0.355346 -0.170726
O174  O     O_2   0.051282 0.368824 0.334960 -0.200517
O175  O     O_3   0.052012 0.337760 0.388000 -0.489860
H61   H     H_    0.049039 0.292478 0.386786 0.423368
S30   S     S_3+6 0.619346 0.951015 0.348044 0.153635
O176  O     O_2   0.609956 0.886611 0.337443 -0.203771
O177  O     O_2   0.630075 0.992324 0.322929 -0.271549
O178  O     O_3   0.683076 0.953437 0.367833 -0.406778
H62   H     H_    0.715699 0.934846 0.355755 0.392833
S31   S     S_3+6 0.105670 0.550949 0.346829 0.152768
O179  O     O_2   0.116335 0.506400 0.322830 -0.250371
O180  O     O_2   0.100671 0.614591 0.334776 -0.162455
O181  O     O_3   0.166306 0.548745 0.368632 -0.472231
H63   H     H_    0.202529 0.556762 0.356237 0.400967
S32   S     S_3+6 0.385805 0.049510 0.348284 0.153406
O182  O     O_2   0.395608 0.113913 0.337731 -0.203221
O183  O     O_2   0.376209 0.008161 0.323147 -0.272898
O184  O     O_3   0.321196 0.047033 0.368163 -0.406780
H64   H     H_    0.289209 0.066106 0.356256 0.394029
S33   S     S_3+6 0.421624 0.891926 0.917060 0.081765
O185  O     O_2   0.459941 0.840389 0.928506 -0.204763
O186  O     O_2   0.387171 0.921349 0.941281 -0.349369
O187  O     O_3   0.370473 0.863013 0.894091 -0.481351
H65   H     H_    0.345208 0.833954 0.905440 0.398734
S34   S     S_3+6 0.098461 0.415064 0.915537 0.093270
O188  O     O_2   0.154306 0.449749 0.925111 -0.204457
O189  O     O_2   0.067654 0.386952 0.941064 -0.346337
O190  O     O_3   0.120383 0.356853 0.894222 -0.467088
H66   H     H_    0.150413 0.333157 0.905439 0.399932
S35   S     S_3+6 0.563384 0.109164 0.910978 0.137886
O191  O     O_2   0.596909 0.148647 0.889770 -0.156919
O192  O     O_2   0.511485 0.146459 0.923293 -0.292460
O193  O     O_3   0.611717 0.091118 0.937226 -0.495733
H67   H     H_    0.620760 0.130557 0.946829 0.386411
S36   S     S_3+6 0.903547 0.585247 0.915837 0.091158
O194  O     O_2   0.847340 0.550449 0.925437 -0.207497
O195  O     O_2   0.933198 0.613319 0.941370 -0.337788
O196  O     O_3   0.882445 0.643500 0.894669 -0.468246
H68   H     H_    0.851241 0.666612 0.905824 0.393157
S37   S     S_3+6 0.921623 0.391931 0.417057 0.081773
O197  O     O_2   0.959942 0.340390 0.428498 -0.204754
O198  O     O_2   0.887177 0.421350 0.441281 -0.349346
O199  O     O_3   0.870464 0.363025 0.394090 -0.481335
H69   H     H_    0.845205 0.333959 0.405439 0.398734
S38   S     S_3+6 0.598472 0.915073 0.415538 0.093276
O200  O     O_2   0.654311 0.949763 0.425116 -0.204475
O201  O     O_2   0.567663 0.886953 0.441063 -0.346318
O202  O     O_3   0.620405 0.856867 0.394223 -0.467084
H70   H     H_    0.650437 0.833175 0.405440 0.399927
S39   S     S_3+6 0.063387 0.609167 0.410980 0.137881
O203  O     O_2   0.096913 0.648651 0.389773 -0.156922
O204  O     O_2   0.011490 0.646463 0.423296 -0.292448
O205  O     O_3   0.111720 0.591112 0.437226 -0.495757
H71   H     H_    0.120773 0.630550 0.446828 0.386420
S40   S     S_3+6 0.403543 0.085239 0.415834 0.091159
O206  O     O_2   0.347338 0.050437 0.425434 -0.207504
O207  O     O_2   0.433190 0.113315 0.441368 -0.337786
O208  O     O_3   0.382438 0.143489 0.394665 -0.468239
H72   H     H_    0.351230 0.166599 0.405819 0.393159
C297  C     C_2   0.879386 0.545459 0.143611 0.569233
H73   H     H_    0.875636 0.548707 0.166565 0.077535
O209  O     O_2   0.834016 0.557121 0.129567 -0.487438
C298  C     C_2   0.410813 0.071630 0.146496 0.529652
H74   H     H_    0.407441 0.068885 0.169468 0.075996
O210  O     O_2   0.374086 0.103999 0.134039 -0.528819
C299  C     C_2   0.101906 0.482954 0.149503 0.545351
H75   H     H_    0.100099 0.485278 0.172525 0.082263
O211  O     O_2   0.150303 0.468213 0.137997 -0.494604
C300  C     C_2   0.595120 0.930397 0.144470 0.526928
H76   H     H_    0.599876 0.933621 0.167336 0.075374
O212  O     O_2   0.631176 0.897907 0.131246 -0.530056
C301  C     C_2   0.379219 0.044841 0.643630 0.569280
H77   H     H_    0.375508 0.048217 0.666581 0.077576
O213  O     O_2   0.333737 0.056116 0.629597 -0.487484
C302  C     C_2   0.910810 0.571676 0.646488 0.529692
H78   H     H_    0.907434 0.568938 0.669460 0.076009
O214  O     O_2   0.874096 0.604053 0.634028 -0.528820
C303  C     C_2   0.602075 0.983539 0.649490 0.545475
H79   H     H_    0.600223 0.985662 0.672515 0.082335
O215  O     O_2   0.650606 0.969290 0.637971 -0.494614
C304  C     C_2   0.095066 0.430376 0.644479 0.526895
H80   H     H_    0.099815 0.433601 0.667346 0.075348
O216  O     O_2   0.131113 0.397870 0.631259 -0.530035
C305  C     C_2   0.835583 0.997312 0.124137 0.418598
H81   H     H_    0.804873 0.996624 0.142475 0.070033
O217  O     O_2   0.880962 0.964467 0.124104 -0.542430
C306  C     C_2   0.981475 0.839939 0.124944 0.630862
H82   H     H_    0.963051 0.871199 0.140854 0.114324
O218  O     O_2   0.031301 0.815975 0.129063 -0.487993
C307  C     C_2   0.161955 0.999964 0.124816 0.410033
H83   H     H_    0.192683 0.999807 0.142815 0.070070
O219  O     O_2   0.116516 0.032710 0.125747 -0.528156
C308  C     C_2   0.028993 0.170887 0.124963 0.634021
H84   H     H_    0.046855 0.140075 0.140962 0.114158
O220  O     O_2   0.981654 0.199064 0.130136 -0.480145
C309  C     C_2   0.335595 0.497322 0.624138 0.418579
H85   H     H_    0.304886 0.496633 0.642476 0.070040
O221  O     O_2   0.380977 0.464480 0.624105 -0.542387
C310  C     C_2   0.481472 0.339921 0.624943 0.630865
H86   H     H_    0.463054 0.371185 0.640853 0.114314
O222  O     O_2   0.531293 0.315947 0.629062 -0.488008
C311  C     C_2   0.661953 0.499957 0.624816 0.410016
H87   H     H_    0.692681 0.499801 0.642816 0.070018
O223  O     O_2   0.616513 0.532701 0.625749 -0.528161
C312  C     C_2   0.528989 0.670887 0.624962 0.634030
H88   H     H_    0.546848 0.640072 0.640961 0.114162
O224  O     O_2   0.481651 0.699066 0.630134 -0.480123
C313  C     C_2   0.829316 0.953245 0.065966 0.454017
H89   H     H_    0.792544 0.926772 0.056537 0.108959
O225  O     O_2   0.879182 0.929521 0.069713 -0.549704
C314  C     C_2   0.040866 0.831036 0.068797 0.529201
H90   H     H_    0.069101 0.800973 0.055691 0.095500
O226  O     O_2   0.064082 0.876529 0.079340 -0.561771
C315  C     C_2   0.162626 0.045704 0.066658 0.453171
H91   H     H_    0.196595 0.073972 0.055889 0.089473
O227  O     O_2   0.111757 0.066385 0.071895 -0.531557
C316  C     C_2   0.964094 0.174940 0.070516 0.548775
H92   H     H_    0.936171 0.202853 0.056632 0.089816
O228  O     O_2   0.939559 0.133595 0.083948 -0.554655
C317  C     C_2   0.329329 0.453248 0.565968 0.454013
H93   H     H_    0.292561 0.426773 0.556536 0.108940
O229  O     O_2   0.379196 0.429529 0.569717 -0.549681
C318  C     C_2   0.540863 0.331016 0.568796 0.529207
H94   H     H_    0.569094 0.300952 0.555689 0.095519
O230  O     O_2   0.564084 0.376505 0.579341 -0.561779
C319  C     C_2   0.662621 0.545700 0.566659 0.453196
H95   H     H_    0.696588 0.573969 0.555888 0.089466
O231  O     O_2   0.611752 0.566380 0.571897 -0.531555
C320  C     C_2   0.464092 0.674946 0.570515 0.548763
H96   H     H_    0.436171 0.702864 0.556632 0.089829
O232  O     O_2   0.439555 0.633600 0.583945 -0.554656
C321  C     C_2   0.781949 0.163963 0.031597 0.408088
H97   H     H_    0.801777 0.156189 0.010715 0.121781
O233  O     O_2   0.742596 0.203486 0.034419 -0.521367
C322  C     C_2   0.835716 0.794536 0.024745 0.549190
H98   H     H_    0.792256 0.818485 0.024297 0.087399
O234  O     O_2   0.851119 0.763884 0.004137 -0.541381
C323  C     C_2   0.221815 0.839647 0.029902 0.432694
H99   H     H_    0.201496 0.846807 0.009280 0.122931
O235  O     O_2   0.263686 0.802719 0.032012 -0.507857
C324  C     C_2   0.164865 0.196607 0.018940 0.554663
H100  H     H_    0.205187 0.167997 0.016642 0.109645
O236  O     O_2   0.150102 0.229547 0.999198 -0.525014
C325  C     C_2   0.281938 0.663956 0.531595 0.408106
H101  H     H_    0.301765 0.656184 0.510713 0.121783
O237  O     O_2   0.242579 0.703474 0.534417 -0.521349
C326  C     C_2   0.335710 0.294552 0.524741 0.549163
H102  H     H_    0.292257 0.318515 0.524291 0.087433
O238  O     O_2   0.351104 0.263890 0.504135 -0.541400
C327  C     C_2   0.721818 0.339647 0.529901 0.432682
H103  H     H_    0.701501 0.346809 0.509279 0.122939
O239  O     O_2   0.763688 0.302717 0.532011 -0.507852
C328  C     C_2   0.664868 0.696601 0.518940 0.554662
H104  H     H_    0.705187 0.667987 0.516642 0.109635
O240  O     O_2   0.650108 0.729545 0.499199 -0.525015
S41   S     S_3+6 0.797587 0.224894 0.092281 0.129344
O241  O     O_2   0.822550 0.262746 0.068264 -0.249068
O242  O     O_2   0.731593 0.242075 0.097719 -0.180753
O243  O     O_3   0.839141 0.241466 0.121250 -0.470132
H105  H     H_    0.831282 0.285528 0.125077 0.419650
S42   S     S_3+6 0.767021 0.776392 0.081989 0.021087
O244  O     O_2   0.746844 0.736098 0.057862 -0.306649
O245  O     O_2   0.758262 0.741028 0.109159 -0.214825
O246  O     O_3   0.722825 0.839622 0.083239 -0.550332
H106  H     H_    0.680030 0.824081 0.083920 0.427000
S43   S     S_3+6 0.207309 0.775138 0.089885 0.125603
O247  O     O_2   0.185571 0.737329 0.065396 -0.256374
O248  O     O_2   0.273717 0.760768 0.095260 -0.180653
O249  O     O_3   0.164910 0.755373 0.118591 -0.472620
H107  H     H_    0.174054 0.711372 0.121762 0.413354
S44   S     S_3+6 0.242216 0.212709 0.073358 0.028558
O250  O     O_2   0.263448 0.247020 0.047340 -0.280340
O251  O     O_2   0.256056 0.251693 0.098895 -0.223432
O252  O     O_3   0.281547 0.146515 0.075756 -0.550439
H108  H     H_    0.325304 0.158901 0.076640 0.427333
S45   S     S_3+6 0.297575 0.724896 0.592277 0.129346
O253  O     O_2   0.322528 0.762749 0.568258 -0.249065
O254  O     O_2   0.231581 0.742070 0.597719 -0.180746
O255  O     O_3   0.339136 0.741476 0.621243 -0.470139
H109  H     H_    0.331269 0.785535 0.625072 0.419647
S46   S     S_3+6 0.267008 0.276419 0.581985 0.021008
O256  O     O_2   0.246824 0.236132 0.557857 -0.306665
O257  O     O_2   0.258241 0.241053 0.609154 -0.215038
O258  O     O_3   0.222824 0.339656 0.583237 -0.550326
H110  H     H_    0.180027 0.324123 0.583919 0.427022
S47   S     S_3+6 0.707312 0.275134 0.589882 0.125671
O259  O     O_2   0.685570 0.237326 0.565394 -0.256369
O260  O     O_2   0.773721 0.260764 0.595256 -0.180557
O261  O     O_3   0.664918 0.255367 0.618590 -0.472630
H111  H     H_    0.674059 0.211366 0.621759 0.413400
S48   S     S_3+6 0.742217 0.712697 0.573359 0.028537
O262  O     O_2   0.763451 0.747009 0.547341 -0.280338
O263  O     O_2   0.756058 0.751680 0.598897 -0.223512
O264  O     O_3   0.781545 0.646502 0.575757 -0.550421
H112  H     H_    0.825303 0.658885 0.576638 0.427349
C329  C     C_2   0.676343 0.056250 0.045144 0.426697
H113  H     H_    0.677781 0.104643 0.050302 0.128875
O265  O     O_2   0.643514 0.022530 0.059380 -0.575631
C330  C     C_2   0.942725 0.677538 0.044206 0.401733
H114  H     H_    0.901287 0.651243 0.040356 0.126525
O266  O     O_2   0.965815 0.676202 0.067715 -0.541766
C331  C     C_2   0.321661 0.955010 0.046972 0.419737
H115  H     H_    0.318626 0.908673 0.055153 0.121675
O267  O     O_2   0.355090 0.991637 0.058892 -0.581638
C332  C     C_2   0.058319 0.321759 0.043799 0.441656
H116  H     H_    0.105898 0.314725 0.049498 0.112789
O268  O     O_2   0.027737 0.358858 0.057326 -0.553763
C333  C     C_2   0.176342 0.556231 0.545148 0.426692
H117  H     H_    0.177783 0.604622 0.550313 0.128863
O269  O     O_2   0.143510 0.522505 0.559380 -0.575614
C334  C     C_2   0.442695 0.177538 0.544194 0.401856
H118  H     H_    0.401228 0.151284 0.540342 0.126565
O270  O     O_2   0.465802 0.176163 0.567699 -0.541744
C335  C     C_2   0.821661 0.455010 0.546972 0.419732
H119  H     H_    0.818631 0.408671 0.555151 0.121679
O271  O     O_2   0.855083 0.491639 0.558894 -0.581622
C336  C     C_2   0.558323 0.821760 0.543798 0.441662
H120  H     H_    0.605906 0.814732 0.549494 0.112775
O272  O     O_2   0.527737 0.858851 0.557328 -0.553688
C337  C     C_2   0.820748 0.907652 0.968211 0.416007
H121  H     H_    0.807393 0.892505 0.947287 0.084933
O273  O     O_2   0.865505 0.883357 0.978730 -0.562304
C338  C     C_2   0.088825 0.817500 0.963699 0.429029
H122  H     H_    0.100469 0.801839 0.942442 0.128632
O274  O     O_2   0.115717 0.862307 0.972973 -0.605147
C339  C     C_2   0.183360 0.082419 0.961689 0.442593
H123  H     H_    0.198706 0.090414 0.940029 0.115159
O275  O     O_2   0.139048 0.111391 0.970437 -0.562647
C340  C     C_2   0.911484 0.182335 0.964710 0.422662
H124  H     H_    0.899399 0.198330 0.943710 0.126979
O276  O     O_2   0.885149 0.137049 0.974042 -0.620898
C341  C     C_2   0.320746 0.407657 0.468205 0.416019
H125  H     H_    0.307388 0.392515 0.447281 0.084938
O277  O     O_2   0.365503 0.383360 0.478723 -0.562303
C342  C     C_2   0.588824 0.317502 0.463699 0.429026
H126  H     H_    0.600468 0.301844 0.442441 0.128630
O278  O     O_2   0.615718 0.362307 0.472974 -0.605152
C343  C     C_2   0.683361 0.582418 0.461689 0.442592
H127  H     H_    0.698707 0.590413 0.440029 0.115160
O279  O     O_2   0.639048 0.611391 0.470436 -0.562646
C344  C     C_2   0.411485 0.682335 0.464709 0.422652
H128  H     H_    0.399402 0.698328 0.443709 0.126971
O280  O     O_2   0.385148 0.637051 0.474042 -0.620892
C345  C     C_2   0.675272 0.839023 0.009355 0.460685
H129  H     H_    0.675051 0.792741 0.017751 0.133756
O281  O     O_2   0.679923 0.880720 0.026499 -0.553723
C346  C     C_2   0.160418 0.686937 0.005957 0.528290
H130  H     H_    0.207189 0.696797 0.012251 0.148575
O282  O     O_2   0.119978 0.688345 0.024090 -0.533609
C347  C     C_2   0.323702 0.163011 0.991679 0.500008
H131  H     H_    0.321313 0.212599 0.993632 0.123717
O283  O     O_2   0.316847 0.132590 0.013221 -0.540752
C348  C     C_2   0.839151 0.315553 0.007181 0.534215
H132  H     H_    0.792127 0.307098 0.013982 0.149258
O284  O     O_2   0.879303 0.314225 0.024998 -0.522615
C349  C     C_2   0.175267 0.339022 0.509348 0.460708
H133  H     H_    0.175042 0.292737 0.517743 0.133770
O285  O     O_2   0.179924 0.380714 0.526494 -0.553704
C350  C     C_2   0.660416 0.186938 0.505955 0.528300
H134  H     H_    0.707187 0.196796 0.512250 0.148583
O286  O     O_2   0.619976 0.188344 0.524088 -0.533607
C351  C     C_2   0.823702 0.663011 0.491682 0.500016
H135  H     H_    0.821311 0.712599 0.493636 0.123721
O287  O     O_2   0.816848 0.632588 0.513224 -0.540750
C352  C     C_2   0.339152 0.815547 0.507179 0.534203
H136  H     H_    0.292128 0.807088 0.513979 0.149258
O288  O     O_2   0.379302 0.814223 0.524996 -0.522630
C353  C     C_2   0.630203 0.741773 0.973260 0.493209
H137  H     H_    0.647457 0.697265 0.966554 0.113181
O289  O     O_2   0.588710 0.743883 0.990940 -0.518195
C354  C     C_2   0.248404 0.612905 0.974503 0.411379
H138  H     H_    0.293713 0.614461 0.964740 0.082485
O290  O     O_2   0.242479 0.586902 0.997353 -0.506028
C355  C     C_2   0.399055 0.227272 0.949900 0.446456
H139  H     H_    0.399050 0.267230 0.936218 0.068211
O291  O     O_2   0.429213 0.229266 0.971609 -0.518891
C356  C     C_2   0.752523 0.388750 0.975583 0.403184
H140  H     H_    0.707440 0.386694 0.966097 0.080589
O292  O     O_2   0.757967 0.415949 0.998129 -0.508048
C357  C     C_2   0.130184 0.241782 0.473251 0.493221
H141  H     H_    0.147438 0.197273 0.466544 0.113155
O293  O     O_2   0.088689 0.243892 0.490930 -0.518172
C358  C     C_2   0.748409 0.112919 0.474498 0.411408
H142  H     H_    0.793718 0.114481 0.464735 0.082485
O294  O     O_2   0.742486 0.086910 0.497347 -0.506002
C359  C     C_2   0.899060 0.727275 0.449906 0.446460
H143  H     H_    0.899057 0.767234 0.436225 0.068213
O295  O     O_2   0.929215 0.729266 0.471616 -0.518882
C360  C     C_2   0.252521 0.888740 0.475580 0.403202
H144  H     H_    0.207439 0.886682 0.466093 0.080591
O296  O     O_2   0.257962 0.915938 0.498127 -0.508030

loop_
_geom_bond_atom_site_label_1
_geom_bond_atom_site_label_2
_ccdc_geom_bond_type
C132  C144  A    
C320  O232  D    
S27   O167  D    
C8    O16   A    
C21   C29   A    
C82   C94   A    
C102  C290  S    
C13   C277  S    
O178  H62   S    
C129  S29   S    
O124  H44   S    
C34   C42   A    
C291  H35   S    
C75   C355  S    
O115  H41   S    
C28   C228  S    
C79   C87   A    
C309  H85   S    
C164  C195  S    
C131  C143  A    
C237  C309  S    
S25   O161  D    
C342  H126  S    
S21   O151  S    
C227  O19   A    
C323  O235  D    
C336  H120  S    
C352  O288  D    
C203  S15   S    
C150  C180  A    
S24   O159  D    
C89   C217  A    
C302  O214  D    
C118  N2    A    
C340  H124  S    
C38   C114  S    
C292  O108  D    
S15   O132  D    
C231  O31   A    
C242  C314  S    
O19   Zn7   S    
C232  O32   A    
C15   C239  A    
C149  C179  A    
C233  C305  S    
O199  H69   S    
C186  C202  A    
S28   O171  D    
O145  H51   S    
C268  S44   S    
S31   O179  D    
C316  H92   S    
C165  O51   A    
C214  C222  A    
C80   C360  S    
C41   C49   A    
C18   C58   A    
S24   O160  S    
C339  H123  S    
S40   O207  D    
O175  H61   S    
C43   C339  S    
C344  O280  D    
C168  C208  S    
C117  C217  A    
S30   O176  D    
C200  C216  A    
C147  C155  A    
C87   C99   A    
S40   O208  S    
C167  O55   A    
C97   C105  A    
C313  O225  D    
C133  S33   S    
C347  H131  S    
S1    O82   D    
O243  H105  S    
C308  O220  D    
C99   C107  A    
C183  C189  A    
C73   C81   A    
C274  H10   S    
S3    O89   S    
S46   O257  D    
C353  O289  D    
C11   C235  A    
C329  H113  S    
S14   O129  D    
C100  C108  A    
C77   C357  S    
C9    C233  A    
C319  H95   S    
O27   Zn5   S    
C186  C192  A    
C92   C224  A    
C257  C265  A    
C91   C189  A    
C282  O74   D    
C93   C101  A    
S17   O138  D    
C66   C346  S    
C13   C237  A    
C212  C220  A    
C27   C35   A    
C245  C253  A    
S36   O196  S    
C240  C312  S    
O15   Zn4   S    
C153  C161  A    
C270  S46   S    
C23   C31   A    
C152  C180  A    
C215  S23   S    
C22   C62   A    
C216  C224  A    
O261  H111  S    
C265  S41   S    
C89   C219  A    
C172  N6    A    
S34   O189  D    
C355  H139  S    
C173  N7    A    
S5    O95   S    
C174  N8    A    
S16   O134  D    
C204  C212  A    
S30   O178  S    
C83   C283  S    
S26   O164  D    
C237  C245  A    
S43   O248  D    
C175  N7    A    
C66   C110  A    
C176  N8    A    
C145  C297  S    
O63   Zn11  S    
C95   S3    S    
S32   O183  D    
O163  H57   S    
C255  C263  A    
O18   Zn6   S    
S10   O117  D    
C96   C104  A    
C297  H73   S    
C332  O268  D    
C36   C44   A    
C234  C306  S    
O121  H43   S    
C57   C249  S    
C279  H15   S    
C198  C214  A    
C105  C293  S    
O95   H29   S    
C252  C260  A    
S34   O190  S    
C39   C47   A    
C304  H80   S    
S37   O197  D    
S25   O163  S    
C253  C261  A    
C40   C48   A    
O14   Zn4   S    
O20   Zn8   S    
C61   C253  S    
C170  C184  A    
C321  O233  D    
C293  H37   S    
C171  C181  A    
C248  C320  S    
O11   Zn3   S    
C354  H138  S    
S47   O261  S    
O13   Zn4   S    
C21   C333  S    
C3    C52   S    
C359  O295  D    
C254  C262  A    
C104  C292  S    
C226  O18   A    
S10   O118  S    
C97   S5    S    
C94   S2    S    
C143  N3    S    
C98   C106  A    
C4    C49   S    
C17   C25   A    
S8    O102  D    
C209  C217  A    
C80   C88   A    
C305  H81   S    
C142  N2    S    
C211  S19   S    
C331  O267  D    
C177  N5    S    
C296  H40   S    
S22   O152  D    
C312  O224  D    
C163  C196  S    
C337  O273  D    
C313  H89   S    
C179  N7    S    
C358  H142  S    
C346  O282  D    
C24   C64   A    
C324  O236  D    
C4    O4    A    
C335  O271  D    
C202  S14   S    
C263  C327  S    
S7    O100  D    
C85   C97   A    
C167  O53   A    
C65   C345  S    
C157  H5    S    
C315  H91   S    
C62   C254  S    
C129  C137  A    
C326  H102  S    
C126  C134  A    
C322  O234  D    
C122  C222  A    
S27   O169  S    
C307  H83   S    
C193  O59   A    
C153  H1    S    
C4    O12   A    
C166  O52   A    
C273  H9    S    
C296  O112  D    
C165  C205  S    
C42   C338  S    
C303  H79   S    
C338  O274  D    
C278  H14   S    
C7    O15   A    
C98   S6    S    
S19   O145  S    
C32   C232  S    
C71   C351  S    
O86   H26   S    
C159  H7    S    
C69   C77   A    
S35   O191  D    
C160  H8    S    
C181  C197  A    
C298  H74   S    
C168  O56   A    
C71   C79   A    
C285  H21   S    
S34   O188  D    
S35   O193  S    
C311  O223  D    
C90   C192  A    
S33   O185  D    
O255  H109  S    
C93   S1    S    
C291  O107  D    
C30   C38   A    
O118  H42   S    
C124  O48   S    
C199  C215  A    
C171  O35   S    
C339  O275  D    
C229  O29   A    
S29   O174  D    
C327  O239  D    
O8    Zn2   S    
O157  H55   S    
O56   Zn12  S    
C317  O229  D    
O30   Zn12  S    
S39   O203  D    
C66   C74   A    
S16   O136  S    
C76   C356  S    
C49   C57   A    
O127  H45   S    
C146  C178  A    
C154  H2    S    
S45   O253  D    
C127  C141  A    
C25   C225  S    
C107  C295  S    
C276  H12   S    
C348  O284  D    
C261  C325  S    
C52   C60   A    
C148  C300  S    
S38   O200  D    
C53   C61   A    
O58   Zn6   S    
C200  S12   S    
C125  C141  A    
C290  H34   S    
C349  O285  D    
C55   C63   A    
C141  N1    S    
C56   C64   A    
C209  S17   S    
C14   C270  A    
O31   Zn9   S    
C127  S27   S    
C90   C220  A    
C121  O45   S    
C44   C52   A    
C314  O226  D    
O64   Zn12  S    
C123  O47   S    
C44   C340  S    
O142  H50   S    
C272  S48   S    
C203  C211  A    
C213  C221  A    
C8    O8    A    
O53   Zn9   S    
C47   C343  S    
O54   Zn10  S    
C201  C209  A    
C230  O30   A    
C95   C103  A    
O154  H54   S    
C51   C59   A    
S2    O85   D    
C124  N4    A    
O16   Zn4   S    
S37   O199  S    
C103  C291  S    
C347  O283  D    
C156  H4    S    
C85   C285  S    
S8    O104  S    
C150  C302  S    
C5    C54   S    
S23   O157  S    
C286  H22   S    
C65   C73   A    
C104  C112  A    
C138  C208  A    
C3    O11   A    
O7    Zn2   S    
C300  O212  D    
C19   C59   A    
C281  O73   D    
C188  C204  A    
C31   C231  S    
C318  H94   S    
S13   O126  D    
C151  C159  A    
C12   C268  A    
C36   C112  S    
S41   O241  D    
C13   C269  A    
S2    O86   S    
S31   O180  D    
C147  C177  A    
S26   O165  D    
O92   H28   S    
S20   O148  S    
C46   C342  S    
C165  O49   A    
S48   O262  D    
S36   O195  D    
C325  H101  S    
C67   C75   A    
C92   C222  A    
C166  O50   A    
C195  O63   A    
C214  S22   S    
C151  C303  S    
C288  H24   S    
C139  C207  A    
C234  C242  A    
C117  O41   S    
C330  O266  D    
C355  O291  D    
C176  O40   S    
O193  H67   S    
C59   C251  S    
C34   C110  S    
C258  C322  S    
C262  C326  S    
O136  H48   S    
C258  C266  A    
C201  S13   S    
O187  H65   S    
C70   C350  S    
S33   O187  S    
C303  O215  D    
C199  S11   S    
S46   O256  D    
O62   Zn10  S    
C148  C178  A    
C22   C30   A    
S22   O154  S    
O57   Zn5   S    
C130  S30   S    
C154  C162  A    
C269  S45   S    
S22   O153  D    
C24   C336  S    
S32   O182  D    
C299  O211  D    
S5    O93   D    
C8    C53   S    
C334  O270  D    
O32   Zn10  S    
C103  C111  A    
S21   O150  D    
C11   C275  S    
C336  O272  D    
S24   O158  D    
C188  C192  A    
S45   O255  S    
C2    O2    A    
C48   C344  S    
C29   C229  S    
C72   C80   A    
C74   C354  S    
O10   Zn3   S    
C340  O276  D    
C328  H104  S    
C5    O13   A    
C77   C85   A    
O52   Zn8   S    
C162  C193  S    
C69   C349  S    
C293  O109  D    
C33   C109  S    
C284  O76   D    
C212  S20   S    
C261  C269  A    
S31   O181  S    
S38   O201  D    
C277  O69   D    
C174  O38   S    
C239  C311  S    
S18   O140  D    
O104  H32   S    
C170  O34   S    
O55   Zn11  S    
C294  H38   S    
C16   C240  A    
C72   C352  S    
C360  H144  S    
C17   C57   A    
S43   O247  D    
C152  C304  S    
S30   O177  D    
C121  N3    A    
O3    Zn1   S    
C122  N4    A    
C25   C33   A    
C315  O227  D    
S46   O258  S    
C193  O57   A    
C79   C359  S    
S1    O81   D    
C119  C219  A    
C307  O219  D    
C273  O65   D    
C131  S31   S    
C278  O70   D    
O252  H108  S    
C18   C26   A    
C84   C284  S    
C6    C55   S    
O6    Zn2   S    
C106  C294  S    
C76   C84   A    
C274  O66   D    
C35   C111  S    
S47   O259  D    
C343  O279  D    
O49   Zn5   S    
C353  H137  S    
C155  C161  A    
C301  O213  D    
O190  H66   S    
O51   Zn7   S    
C178  N6    S    
C169  N5    A    
C160  C164  A    
C1    O9    A    
O151  H53   S    
C127  C135  A    
S41   O243  S    
C128  C136  A    
S17   O137  D    
O12   Zn3   S    
C23   C63   A    
C134  C206  A    
C37   C113  S    
O89   H27   S    
C101  C109  A    
C275  H11   S    
S48   O264  S    
C187  C203  A    
C12   C236  A    
S12   O122  D    
C239  C247  A    
C260  C268  A    
C185  C201  A    
C289  O105  D    
S6    O96   D    
O24   Zn12  S    
C6    O14   A    
C158  H6    S    
C251  C259  A    
C357  O293  D    
C134  S34   S    
C345  O281  D    
C181  C189  A    
C75   C83   A    
C235  C307  S    
C247  C319  S    
C350  H134  S    
S39   O204  D    
S16   O135  D    
C118  C218  A    
C194  O60   A    
C335  H119  S    
C260  C324  S    
O4    Zn1   S    
C20   C60   A    
C10   C266  A    
C1    C50   S    
C21   C61   A    
S4    O92   S    
C149  C301  S    
C135  C205  A    
C257  C321  S    
C120  N2    A    
C320  H96   S    
C266  S42   S    
C264  C272  A    
C196  O64   A    
C271  S47   S    
C7    C56   S    
C74   C82   A    
S32   O184  S    
C140  C208  A    
C30   C230  S    
O5    Zn2   S    
C309  O221  D    
C342  O278  D    
C226  O26   A    
C304  O216  D    
S25   O162  D    
C82   C282  S    
C120  O44   S    
C196  O62   A    
C10   C234  A    
S26   O166  S    
C236  C308  S    
C352  H136  S    
C100  S8    S    
C50   C58   A    
S15   O131  D    
C302  H78   S    
C119  N1    A    
C96   S4    S    
O59   Zn7   S    
C311  H87   S    
C14   C238  A    
C73   C353  S    
C292  H36   S    
S15   O133  S    
C245  C317  S    
C54   C62   A    
O169  H59   S    
O166  H58   S    
C126  C142  A    
C198  S10   S    
O22   Zn10  S    
S28   O170  D    
S6    O98   S    
C244  C316  S    
C136  S36   S    
C295  H39   S    
C319  O231  D    
C18   C330  S    
O246  H106  S    
C5    O5    A    
C175  C185  A    
C259  C323  S    
C225  O17   A    
C343  H127  S    
C120  C220  A    
C69   C113  A    
C46   C54   A    
C99   S7    S    
C344  H128  S    
C341  O277  D    
C241  C249  A    
C10   C274  S    
C65   C109  A    
C88   C100  A    
O184  H64   S    
C231  O23   A    
C354  O290  D    
C232  O24   A    
S20   O147  D    
C126  S26   S    
S1    O83   S    
C197  S9    S    
S27   O168  D    
C130  C138  A    
C147  C299  S    
C308  H84   S    
C12   C276  S    
C102  C110  A    
C68   C76   A    
O249  H107  S    
C168  O54   A    
C228  O20   A    
C20   C28   A    
S42   O245  D    
C211  C219  A    
C19   C331  S    
O202  H70   S    
C105  C113  A    
S19   O144  D    
C238  C310  S    
S14   O128  D    
S9    O114  D    
C23   C335  S    
C150  C158  A    
C202  C210  A    
C228  O28   A    
C356  H140  S    
S5    O94   D    
C249  C257  A    
C282  H18   S    
C171  N5    A    
C298  O210  D    
C346  H130  S    
S17   O139  S    
C22   C334  S    
C283  H19   S    
S35   O192  D    
C184  C200  A    
C129  C143  A    
C132  C140  A    
C155  H3    S    
C246  C254  A    
C72   C116  A    
C175  O39   S    
S12   O124  S    
C125  S25   S    
C108  C116  A    
C243  C251  A    
C295  O111  D    
C280  H16   S    
C294  O110  D    
C242  C250  A    
C351  H135  S    
C210  S18   S    
C15   C279  S    
C38   C46   A    
O28   Zn6   S    
C43   C51   A    
C317  H93   S    
C81   C281  S    
C123  C223  A    
C26   C226  S    
C310  O222  D    
S23   O155  D    
C306  O218  D    
S11   O121  S    
O1    Zn1   S    
C117  N1    A    
O29   Zn11  S    
C276  O68   D    
C172  O36   S    
C259  C267  A    
C2    C51   S    
O60   Zn8   S    
C230  O22   A    
C172  C182  A    
C28   C36   A    
C290  O106  D    
S10   O116  D    
C29   C37   A    
O196  H68   S    
C240  C248  A    
C350  O286  D    
C121  C221  A    
C332  H116  S    
C87   C287  S    
C351  O287  D    
C166  C206  S    
C128  S28   S    
C149  C157  A    
C349  H133  S    
S8    O103  D    
O83   H25   S    
S14   O130  S    
C195  O61   A    
C194  O58   A    
C136  C206  A    
C323  H99   S    
C152  C160  A    
O101  H31   S    
C37   C45   A    
C70   C78   A    
C139  S39   S    
C341  H125  S    
C86   C98   A    
C280  O72   D    
C359  H143  S    
C42   C50   A    
C3    O3    A    
O160  H56   S    
C24   C32   A    
C130  C144  A    
C119  O43   S    
O208  H72   S    
C327  H103  S    
C40   C116  S    
C345  H129  S    
C70   C114  A    
S37   O198  D    
O258  H110  S    
C337  H121  S    
C106  C114  A    
S28   O172  S    
S23   O156  D    
C286  O78   D    
S9    O115  S    
C305  O217  D    
O17   Zn5   S    
C185  C191  A    
S47   O260  D    
C262  C270  A    
C312  H88   S    
C133  C205  A    
S19   O143  D    
C27   C227  S    
O2    Zn1   S    
C135  S35   S    
S44   O250  D    
C318  O230  D    
S13   O125  D    
C84   C96   A    
C169  C183  A    
S7    O101  S    
C267  S43   S    
C333  O269  D    
O205  H71   S    
C151  C179  A    
C26   C34   A    
O23   Zn11  S    
C31   C39   A    
C322  H98   S    
S3    O88   D    
S48   O263  D    
C144  N4    S    
C287  H23   S    
O9    Zn3   S    
C11   C267  A    
C91   C221  A    
C173  C187  A    
C19   C27   A    
C125  C133  A    
C122  O46   S    
C187  C191  A    
C158  C164  A    
C229  O21   A    
C174  C188  A    
S20   O146  D    
S39   O205  S    
C287  O79   D    
C156  C162  A    
C9    C273  S    
C238  C246  A    
C170  N6    A    
O61   Zn9   S    
C2    O10   A    
C41   C337  S    
C358  O294  D    
C285  O77   D    
S4    O91   D    
C182  C190  A    
C45   C341  S    
C316  O228  D    
S33   O186  D    
O50   Zn6   S    
O25   Zn7   S    
C243  C315  S    
C90   C218  A    
C16   C272  A    
C356  O292  D    
C1    O1    A    
C124  C224  A    
C6    O6    A    
C131  C139  A    
C33   C41   A    
C324  H100  S    
S9    O113  D    
S11   O120  D    
S3    O87   D    
C329  O265  D    
C7    O7    A    
O181  H63   S    
C330  H114  S    
C275  O67   D    
S21   O149  D    
C137  S37   S    
C183  C199  A    
O172  H60   S    
C86   C286  S    
S45   O254  D    
C167  C207  S    
C180  N8    S    
C146  C154  A    
C279  O71   D    
O133  H47   S    
C92   C190  A    
C81   C93   A    
C148  C156  A    
C328  O240  D    
C247  C255  A    
O148  H52   S    
C235  C243  A    
C227  O27   A    
C333  H117  S    
C89   C191  A    
C71   C115  A    
C213  S21   S    
C83   C95   A    
C306  H82   S    
C15   C271  A    
S38   O202  S    
C107  C115  A    
C277  H13   S    
C118  O42   S    
S18   O141  D    
S29   O175  S    
C233  C241  A    
C314  H90   S    
C67   C347  S    
S42   O244  D    
C360  O296  D    
S18   O142  S    
C9    C265  A    
C204  S16   S    
C159  C163  A    
S43   O249  S    
C58   C250  S    
O26   Zn8   S    
C225  O25   A    
C173  O37   S    
O264  H112  S    
C20   C332  S    
S11   O119  D    
C35   C43   A    
S40   O206  D    
C47   C55   A    
S2    O84   D    
C137  C207  A    
C67   C111  A    
C48   C56   A    
C246  C318  S    
O130  H46   S    
C184  C190  A    
C169  O33   S    
C244  C252  A    
C310  H86   S    
C284  H20   S    
C288  O80   D    
C321  H97   S    
C157  C163  A    
C326  O238  D    
C108  C296  S    
C216  S24   S    
C264  C328  S    
C215  C223  A    
C331  H115  S    
C248  C256  A    
C176  C186  A    
C300  H76   S    
C297  O209  D    
S42   O246  S    
C16   C280  S    
C301  H77   S    
C39   C115  S    
C210  C218  A    
S44   O252  S    
C68   C348  S    
S13   O127  S    
C78   C358  S    
C338  H122  S    
C236  C244  A    
C138  S38   S    
C256  C264  A    
C145  C153  A    
S7    O99   D    
S41   O242  D    
O139  H49   S    
C123  N3    A    
C63   C255  S    
C283  O75   D    
C348  H132  S    
C78   C86   A    
O98   H30   S    
C281  H17   S    
C128  C142  A    
C263  C271  A    
S36   O194  D    
C325  O237  D    
S12   O123  D    
C161  C194  S    
C132  S32   S    
C101  C289  S    
C32   C40   A    
C17   C329  S    
C289  H33   S    
S6    O97   D    
C14   C278  S    
C45   C53   A    
O21   Zn9   S    
C197  C213  A    
C334  H118  S    
C241  C313  S    
S29   O173  D    
C145  C177  A    
C60   C252  S    
S4    O90   D    
C182  C198  A    
C146  C298  S    
C357  H141  S    
C140  S40   S    
C91   C223  A    
C250  C258  A    
C68   C112  A    
C299  H75   S    
C94   C102  A    
S44   O251  D    
C64   C256  S    
C88   C288  S    
