data_mof_unit_25453.cif
_audit_creation_date              2012-12-11T17:19:09-0500
_audit_creation_method            fapswitch 2.2
_symmetry_space_group_name_H-M    P1
_symmetry_Int_Tables_number       1
_space_group_crystal_system       triclinic
_cell_length_a                    14.979746
_cell_length_b                    7.281691
_cell_length_c                    13.176797
_cell_angle_alpha                 89.033017
_cell_angle_beta                  100.231121
_cell_angle_gamma                 91.099656
_cell_volume                      1414.05005843

loop_
_atom_site_label
_atom_site_type_symbol
_atom_type_description
_atom_site_fract_x
_atom_site_fract_y
_atom_site_fract_z
_atom_type_partial_charge
O1    O     O_R   0.648180 0.355050 0.151550 -0.524908
O2    O     O_R   0.351820 0.644950 0.848450 -0.524894
O3    O     O_R   0.851820 0.855050 0.348450 -0.498764
O4    O     O_R   0.148180 0.144950 0.651550 -0.498767
O5    O     O_R   0.835240 0.681980 0.154280 -0.508642
O6    O     O_R   0.164760 0.318020 0.845720 -0.508640
O7    O     O_R   0.664760 0.181980 0.345720 -0.532252
O8    O     O_R   0.335240 0.818020 0.654280 -0.532248
C1    C     C_R   0.860701 0.518145 0.128937 0.813534
C2    C     C_R   0.139298 0.481856 0.871061 0.813539
C3    C     C_R   0.638451 0.013469 0.369698 0.810293
C4    C     C_R   0.361546 0.986532 0.630300 0.810263
O9    O     O_R   0.647870 0.684600 0.139630 -0.493385
O10   O     O_R   0.352130 0.315400 0.860370 -0.493395
O11   O     O_R   0.852130 0.184600 0.360370 -0.515936
O12   O     O_R   0.147870 0.815400 0.639630 -0.515939
O13   O     O_R   0.663110 0.857440 0.333700 -0.510565
O14   O     O_R   0.336890 0.142560 0.666300 -0.510567
O15   O     O_R   0.836890 0.357440 0.166300 -0.534650
O16   O     O_R   0.163110 0.642560 0.833700 -0.534651
C5    C     C_R   0.614266 0.515875 0.114375 0.777988
C6    C     C_R   0.385734 0.484125 0.885624 0.777987
C7    C     C_R   0.885603 0.016644 0.385771 0.777875
C8    C     C_R   0.114399 0.983357 0.614225 0.777822
O17   O     O_3   0.755220 0.522230 0.313690 -0.349080
O18   O     O_3   0.244780 0.477770 0.686310 -0.349074
O19   O     O_3   0.744780 0.022230 0.186310 -0.355637
O20   O     O_3   0.255220 0.977770 0.813690 -0.355632
V1    V     V_3+5 0.749030 0.796100 0.238190 1.814771
V2    V     V_3+5 0.250970 0.203900 0.761810 1.814770
V3    V     V_3+5 0.750970 0.296100 0.261810 1.759073
V4    V     V_3+5 0.249030 0.703900 0.738190 1.759084
C9    C     C_1   0.966317 0.006013 0.466395 0.051090
C10   C     C_1   0.033685 0.993988 0.533600 0.051070
C11   C     C_1   0.533649 0.505191 0.033693 0.045918
C12   C     C_1   0.466351 0.494808 0.966306 0.045914
C13   C     C_R   0.557958 0.022651 0.720933 0.239378
C14   C     C_R   0.442035 0.977328 0.279074 0.239390
C15   C     C_R   0.943822 0.460039 0.779256 0.236045
C16   C     C_R   0.056177 0.539985 0.220737 0.236045
C17   C     C_R   0.650932 0.038016 0.761202 0.399479
C18   C     C_R   0.349058 0.961990 0.238808 0.399488
C19   C     C_R   0.851140 0.453122 0.736832 0.395894
C20   C     C_R   0.148859 0.546918 0.263157 0.395891
C21   C     C_R   0.714217 0.998391 0.700061 0.353451
C22   C     C_R   0.285781 0.001646 0.299950 0.353457
C23   C     C_R   0.787380 0.497927 0.796088 0.356096
C24   C     C_R   0.212619 0.502108 0.203904 0.356131
C25   C     C_R   0.685662 0.960783 0.595532 0.277348
C26   C     C_R   0.314342 0.039260 0.404478 0.277309
C27   C     C_R   0.814733 0.539668 0.900308 0.277128
C28   C     C_R   0.185265 0.460356 0.099687 0.277126
C29   C     C_R   0.593610 0.988714 0.546261 -0.087748
C30   C     C_R   0.406390 0.011296 0.453744 -0.087757
C31   C     C_R   0.906552 0.513710 0.951983 -0.087440
C32   C     C_R   0.093446 0.486303 0.048012 -0.087445
C33   C     C_R   0.526686 0.004803 0.610996 -0.096354
C34   C     C_R   0.473312 0.995188 0.389009 -0.096350
C35   C     C_R   0.974063 0.485082 0.889087 -0.096594
C36   C     C_R   0.025935 0.514930 0.110908 -0.096596
C37   C     C_R   0.567413 0.995716 0.435861 -0.020141
C38   C     C_R   0.432586 0.004283 0.564142 -0.020125
C39   C     C_R   0.932077 0.518693 0.062752 -0.022343
C40   C     C_R   0.067920 0.481311 0.937244 -0.022340
Cl1   Cl    Cl    0.689365 0.098637 0.891801 -0.461340
Cl2   Cl    Cl    0.310615 0.901391 0.108207 -0.461334
Cl3   Cl    Cl    0.813474 0.395740 0.605448 -0.459378
Cl4   Cl    Cl    0.186523 0.604310 0.394538 -0.459400
Cl5   Cl    Cl    0.488444 0.021530 0.816759 -0.533519
Cl6   Cl    Cl    0.511545 0.978394 0.183249 -0.533535
Cl7   Cl    Cl    0.014548 0.438215 0.685637 -0.535462
Cl8   Cl    Cl    0.985453 0.561799 0.314359 -0.535467
Cl9   Cl    Cl    0.169718 0.017631 0.242577 -0.538522
Cl10  Cl    Cl    0.830281 0.982435 0.757441 -0.538511
Cl11  Cl    Cl    0.328318 0.487279 0.263601 -0.535212
Cl12  Cl    Cl    0.671682 0.512763 0.736390 -0.535242
Cl13  Cl    Cl    0.764041 0.840516 0.538203 -0.541972
Cl14  Cl    Cl    0.235997 0.159630 0.461801 -0.541907
Cl15  Cl    Cl    0.733336 0.657695 0.953511 -0.545488
Cl16  Cl    Cl    0.266661 0.342330 0.046490 -0.545496

loop_
_geom_bond_atom_site_label_1
_geom_bond_atom_site_label_2
_ccdc_geom_bond_type
O17   V3    S    
C14   Cl6   S    
O1    C5    A    
C16   C36   A    
C31   C35   A    
O19   V1    S    
O13   V1    S    
O3    C7    A    
C11   C12   T    
C17   Cl1   S    
O15   V3    S    
O4    V2    S    
C33   C38   A    
O7    C3    A    
C35   C40   A    
C26   C30   A    
C36   C39   A    
O9    V1    S    
C23   Cl12  S    
C14   C18   A    
C24   C28   A    
C13   Cl5   S    
C30   C34   A    
O4    C8    A    
O1    V3    S    
O2    V4    S    
C18   C22   A    
O3    V1    S    
C14   C34   A    
C29   C37   A    
C1    O15   A    
C2    O16   A    
C7    C9    S    
C31   C39   A    
O2    C6    A    
C32   C40   A    
O14   V2    S    
C34   C37   A    
O11   C7    A    
O12   C8    A    
C24   Cl11  S    
O10   V2    S    
C26   Cl14  S    
O5    V1    S    
O7    V3    S    
O8    V4    S    
C29   C33   A    
O18   V4    S    
C23   C27   A    
C30   C38   A    
C8    C10   S    
C32   C36   A    
C21   Cl10  S    
O5    C1    A    
C4    C38   S    
C21   C25   A    
O8    C4    A    
C15   C35   A    
C9    C10   T    
O9    C5    A    
O6    V2    S    
C20   Cl4   S    
O16   V4    S    
C3    O13   A    
C17   C21   A    
C16   Cl8   S    
C1    C39   S    
C2    C40   S    
C3    C37   S    
O6    C2    A    
C15   C19   A    
O11   V3    S    
C5    C11   S    
O12   V4    S    
C6    C12   S    
C22   C26   A    
O10   C6    A    
O20   V2    S    
C25   C29   A    
C25   Cl13  S    
C27   C31   A    
C13   C17   A    
C27   Cl15  S    
C20   C24   A    
C16   C20   A    
C19   Cl3   S    
C4    O14   A    
C18   Cl2   S    
C15   Cl7   S    
C28   Cl16  S    
C19   C23   A    
C22   Cl9   S    
C13   C33   A    
C28   C32   A    
