data_mof_unit_58470.cif
_audit_creation_date              2012-12-11T17:43:42-0500
_audit_creation_method            fapswitch 2.2
_symmetry_space_group_name_H-M    P1
_symmetry_Int_Tables_number       1
_space_group_crystal_system       triclinic
_cell_length_a                    15.185951
_cell_length_b                    14.947382
_cell_length_c                    17.053017
_cell_angle_alpha                 108.399973
_cell_angle_beta                  105.401927
_cell_angle_gamma                 110.117754
_cell_volume                      3130.04143247

loop_
_atom_site_label
_atom_site_type_symbol
_atom_type_description
_atom_site_fract_x
_atom_site_fract_y
_atom_site_fract_z
_atom_type_partial_charge
C1    C     C_R   0.088166 0.274291 0.031277 -0.075126
C2    C     C_R   0.094330 0.064024 0.934165 0.411703
C3    C     C_R   0.007285 0.877212 0.900190 -0.104553
C4    C     C_R   0.001219 0.069116 0.928106 -0.116076
C5    C     C_R   0.099466 0.969088 0.926564 -0.108604
C6    C     C_R   0.907937 0.970135 0.882767 -0.102568
C7    C     C_R   0.725834 0.920771 0.788162 -0.172779
C8    C     C_R   0.289154 0.035128 0.012823 -0.161864
C9    C     C_R   0.599906 0.899501 0.852347 -0.206732
C10   C     C_R   0.380640 0.952871 0.946112 -0.183930
C11   C     C_R   0.532040 0.731336 0.329858 -0.103284
C12   C     C_R   0.916011 0.710443 0.919542 -0.095578
C13   C     C_R   0.399992 0.289263 0.679260 -0.102855
C14   C     C_R   0.527937 0.696827 0.242002 -0.119743
C15   C     C_R   0.431132 0.332068 0.773422 -0.086433
C16   C     C_R   0.938449 0.504215 0.741161 -0.105015
C17   C     C_R   0.063985 0.542203 0.264391 -0.121419
C18   C     C_R   0.530308 0.600661 0.200027 0.088860
C19   C     C_R   0.484662 0.442936 0.827100 0.094546
C20   C     C_R   0.536991 0.539930 0.247475 -0.056968
C21   C     C_R   0.507551 0.510426 0.785777 -0.121585
C22   C     C_R   0.541805 0.575100 0.335593 -0.082040
C23   C     C_R   0.031714 0.556270 0.736951 0.079637
C24   C     C_R   0.479258 0.467161 0.691934 -0.054782
C25   C     C_R   0.539153 0.670613 0.376691 -0.104502
C26   C     C_R   0.425029 0.356592 0.638609 -0.109432
C27   C     C_R   0.592100 0.533238 0.083938 -0.159947
C28   C     C_R   0.432104 0.516003 0.944631 -0.135467
C29   C     C_R   0.581845 0.495478 0.993953 0.108499
C30   C     C_R   0.440035 0.550141 0.033666 0.106586
C31   C     C_R   0.502511 0.487879 0.923712 -0.006985
C32   C     C_R   0.520666 0.561141 0.105017 0.006010
C33   C     C_R   0.622731 0.886870 0.775585 0.666560
C34   C     C_R   0.974781 0.533732 0.275747 0.080141
C35   C     C_R   0.381921 0.031295 0.020424 0.734803
C36   C     C_R   0.972394 0.582521 0.365084 0.001179
C37   C     C_R   0.046021 0.587786 0.666667 -0.031957
C38   C     C_R   0.148904 0.640716 0.587161 -0.300762
C39   C     C_R   0.881360 0.585189 0.462785 -0.252048
C40   C     C_R   0.718450 0.217492 0.828408 0.409340
C41   C     C_R   0.253957 0.799241 0.185412 0.448509
C42   C     C_R   0.139120 0.611564 0.655013 0.442906
C43   C     C_R   0.881159 0.570503 0.377651 0.470311
C44   C     C_R   0.964047 0.591421 0.608165 -0.254426
C45   C     C_R   0.662351 0.219257 0.750460 -0.030506
C46   C     C_R   0.065277 0.631053 0.442769 -0.278687
C47   C     C_R   0.969677 0.605828 0.532836 0.110640
C48   C     C_R   0.062972 0.631542 0.523133 0.137223
C49   C     C_R   0.555535 0.144361 0.682684 0.143341
C50   C     C_R   0.331604 0.902491 0.358900 0.137028
C51   C     C_R   0.416140 0.094061 0.449010 -0.237932
C52   C     C_R   0.417981 0.962394 0.600026 -0.214590
C53   C     C_R   0.362821 0.005394 0.364591 -0.121414
C54   C     C_R   0.500679 0.044949 0.679657 -0.086300
C55   C     C_R   0.338018 0.889410 0.437678 -0.253905
C56   C     C_R   0.287216 0.807259 0.272431 -0.039594
C57   C     C_R   0.515597 0.163950 0.609427 -0.287555
C58   C     C_R   0.394391 0.977102 0.521940 0.169809
C59   C     C_R   0.438976 0.079730 0.527546 0.168419
C60   C     C_R   0.678554 0.940878 0.938458 -0.091244
C61   C     C_R   0.288777 0.880635 0.868286 -0.145726
C62   C     C_R   0.780195 0.968724 0.949143 -0.145061
C63   C     C_R   0.197134 0.885067 0.862340 -0.159476
C64   C     C_R   0.298219 0.592823 0.999391 0.474530
C65   C     C_R   0.707206 0.424951 0.013329 0.478619
C66   C     C_R   0.804457 0.958314 0.873984 0.073438
C67   C     C_R   0.352212 0.554424 0.043872 -0.086241
C68   C     C_R   0.196706 0.962914 0.934290 0.108120
C69   C     C_R   0.726839 0.310574 0.749364 -0.185020
C70   C     C_R   0.251312 0.703829 0.262743 -0.210815
C71   C     C_R   0.291310 0.492866 0.072702 -0.130555
C72   C     C_R   0.720094 0.527226 0.941278 -0.204038
C73   C     C_R   0.109998 0.593042 0.820251 -0.024867
C74   C     C_R   0.893095 0.464902 0.189810 -0.077433
C75   C     C_R   0.917847 0.193361 0.947079 -0.093499
C76   C     C_R   0.086346 0.792879 0.991016 -0.100634
C77   C     C_R   0.002815 0.174789 0.966773 0.112532
C78   C     C_R   0.662593 0.477759 0.978627 -0.063180
C79   C     C_R   0.003908 0.797818 0.936424 0.073971
C80   C     C_3   0.457264 0.758055 0.668351 -0.237196
C81   C     C_3   0.554692 0.087353 0.112930 -0.079509
C82   C     C_R   0.914358 0.875000 0.856296 0.421803
Cl1   Cl    Cl    0.766094 0.540299 0.292485 -0.737096
Cl2   Cl    Cl    0.240077 0.590819 0.712230 -0.712225
Cl3   Cl    Cl    0.668844 0.151459 0.887588 -0.704531
Cl4   Cl    Cl    0.320866 0.889402 0.150697 -0.720458
Cl5   Cl    Cl    0.354428 0.705295 0.982573 -0.674731
Cl6   Cl    Cl    0.641413 0.321009 0.036651 -0.596265
Cl7   Cl    Cl    0.810353 0.756319 0.762281 -0.735946
Cl8   Cl    Cl    0.199051 0.169169 0.938624 -0.675930
H1    H     H_    0.166725 0.290987 0.065924 0.148686
H2    H     H_    0.410308 0.279187 0.804039 0.157854
H3    H     H_    0.536706 0.464564 0.215650 0.178683
H4    H     H_    0.546276 0.596249 0.826101 0.132022
H5    H     H_    0.546822 0.527871 0.371761 0.130007
H6    H     H_    0.497629 0.519338 0.660345 0.126221
H7    H     H_    0.657290 0.543546 0.137656 0.199862
H8    H     H_    0.366750 0.504441 0.889634 0.173293
H9    H     H_    0.139136 0.654549 0.439394 0.127716
H10   H     H_    0.892823 0.574609 0.616589 0.163460
H11   H     H_    0.219470 0.656844 0.577454 0.148682
H12   H     H_    0.837289 0.682271 0.875161 0.165818
H13   H     H_    0.810315 0.570788 0.471375 0.176282
H14   H     H_    0.861255 0.476970 0.692675 0.108668
H15   H     H_    0.140704 0.578856 0.315762 0.093043
H16   H     H_    0.551262 0.241109 0.611149 0.133857
H17   H     H_    0.306494 0.811240 0.435155 0.114594
H18   H     H_    0.525022 0.025139 0.733842 0.204670
H19   H     H_    0.349605 0.019387 0.305494 0.189381
H20   H     H_    0.446469 0.173061 0.452614 0.136801
H21   H     H_    0.381312 0.884226 0.596811 0.146193
H22   H     H_    0.521988 0.878455 0.846156 0.138887
H23   H     H_    0.744005 0.912028 0.729750 0.173616
H24   H     H_    0.449556 0.946639 0.946813 0.127355
H25   H     H_    0.660320 0.949667 0.996776 0.133470
H26   H     H_    0.288946 0.821471 0.812037 0.171671
H27   H     H_    0.839677 0.996230 0.015499 0.126908
H28   H     H_    0.126736 0.828663 0.801208 0.152007
H29   H     H_    0.707149 0.346624 0.706293 0.124385
H30   H     H_    0.276320 0.678912 0.313560 0.117937
H31   H     H_    0.312707 0.455893 0.114516 0.134740
H32   H     H_    0.705383 0.572448 0.905705 0.136828
H33   H     H_    0.187565 0.654767 0.846414 0.200941
H34   H     H_    0.289040 0.094777 0.068951 0.161011
H35   H     H_    0.813216 0.435831 0.174462 0.212990
H36   H     H_    0.841203 0.138752 0.895886 0.154172
H37   H     H_    0.165683 0.838964 0.006425 0.180492
H38   H     H_    0.407914 0.785024 0.696621 0.158763
H39   H     H_    0.473469 0.702216 0.693031 0.168616
H40   H     H_    0.412724 0.712876 0.593343 0.162742
H41   H     H_    0.588248 0.099781 0.064368 0.168260
H42   H     H_    0.533534 0.006024 0.107898 0.146463
H43   H     H_    0.615620 0.145100 0.182526 0.171415
H44   H     H_    0.542276 0.697393 0.444692 0.135967
H45   H     H_    0.401650 0.323077 0.565741 0.113057
H46   H     H_    0.529417 0.805010 0.361527 0.135557
H47   H     H_    0.355918 0.203790 0.637720 0.135384
H48   H     H_    0.522220 0.744614 0.206448 0.153158
N1    N     N_R   0.055660 0.348550 0.045620 -0.060442
N2    N     N_R   0.185200 0.638170 0.176300 -0.062295
N3    N     N_R   0.201680 0.494570 0.045620 -0.067280
N4    N     N_R   0.798320 0.505430 0.954380 -0.066365
N5    N     N_R   0.068420 0.560530 0.871650 -0.057371
N6    N     N_R   0.931580 0.439470 0.128350 -0.046994
N7    N     N_R   0.948070 0.295860 0.997670 -0.041861
N8    N     N_R   0.051930 0.704140 0.002330 -0.052214
N9    N     N_R   0.944340 0.651450 0.954380 -0.056535
N10   N     N_R   0.960830 0.507850 0.823700 -0.049712
N11   N     N_R   0.039170 0.492150 0.176300 -0.050031
N12   N     N_R   0.811290 0.303410 0.871650 -0.080158
N13   N     N_R   0.188710 0.696590 0.128350 -0.076392
N14   N     N_R   0.205200 0.552990 0.997670 -0.083446
N15   N     N_R   0.794800 0.447010 0.002330 -0.087608
N16   N     N_R   0.814800 0.361830 0.823700 -0.062495
Ni1   Ni    Ni4+2 0.119340 0.493420 0.109960 0.209239
Ni2   Ni    Ni4+2 0.880660 0.506580 0.890040 0.214545
Ni3   Ni    Ni4+2 0.872590 0.372590 0.000000 0.304999
Ni4   Ni    Ni4+2 0.127410 0.627410 0.000000 0.283892
O1    O     O_3   0.548528 0.846519 0.688079 -0.644696
O2    O     O_3   0.469654 0.108447 0.100411 -0.598805

loop_
_geom_bond_atom_site_label_1
_geom_bond_atom_site_label_2
_ccdc_geom_bond_type
C20   H3    S    
C70   N2    A    
C6    C82   A    
N12   Ni3   S    
C27   C29   A    
C43   Cl1   S    
C22   H5    S    
C14   C18   A    
C2    C4    A    
C76   C79   A    
C46   H9    S    
C19   C31   S    
C49   C57   A    
C75   N7    A    
C72   N4    A    
C41   Cl4   S    
C82   Cl7   S    
C64   N14   A    
C12   N9    A    
C19   C21   A    
C24   C26   A    
C38   C42   A    
C38   H11   S    
C17   N11   A    
C24   H6    S    
C11   C14   A    
C81   H41   S    
C74   H35   S    
C21   H4    S    
C11   C25   A    
C28   H8    S    
C49   C54   A    
C12   C79   A    
C1    C77   A    
C60   C62   A    
C37   C42   A    
C2    Cl8   S    
C35   O2    S    
C62   H27   S    
C65   N15   A    
C26   H45   S    
C15   H2    S    
C16   H14   S    
C27   H7    S    
C29   C78   S    
C14   H48   S    
C70   H30   S    
C73   H33   S    
C22   C25   A    
C72   C78   A    
C36   C46   A    
C10   C35   A    
C65   C78   A    
N1    Ni1   S    
C64   Cl5   S    
C18   C20   A    
C30   C67   S    
C1    N1    A    
C44   C47   A    
C71   N3    A    
C9    H22   S    
C57   H16   S    
C76   N8    A    
C1    H1    S    
C81   O2    S    
C9    C33   A    
C7    C33   A    
C40   C45   A    
C23   C73   A    
C5    C68   S    
C52   C54   A    
C46   C48   A    
N5    N10   A    
N14   Ni4   S    
C50   C53   A    
C80   H40   S    
C62   C66   A    
C45   C69   A    
N13   Ni4   S    
C42   Cl2   S    
C4    C6    A    
C63   H28   S    
N3    Ni1   S    
C80   O1    S    
C39   C43   A    
C80   H38   S    
C52   H21   S    
C58   C59   A    
C23   C37   S    
C69   H29   S    
C50   C56   S    
C55   H17   S    
C51   C53   A    
C8    C35   A    
C13   H47   S    
C40   Cl3   S    
C15   C19   A    
C64   C67   A    
C41   C56   A    
C12   H12   S    
N6    N11   A    
C25   H44   S    
C17   H15   S    
N7    Ni3   S    
C47   C48   A    
C45   C49   S    
C3    C82   A    
C61   C63   A    
C36   C43   A    
C40   N12   A    
C81   H42   S    
C39   H13   S    
N9    Ni2   S    
C75   C77   A    
N2    N13   A    
C3    C79   S    
C52   C58   A    
C34   C74   A    
C41   N13   A    
C20   C22   A    
C8    C68   A    
C51   H20   S    
C56   C70   A    
C13   C15   A    
C13   C26   A    
C21   C24   A    
C10   C61   A    
C18   C32   S    
C17   C34   A    
C38   C48   A    
C65   Cl6   S    
C39   C47   A    
N8    N9    A    
C73   N5    A    
C53   H19   S    
N5    Ni4   S    
C74   N6    A    
C63   C68   A    
N1    N7    A    
C80   H39   S    
C72   H32   S    
C27   C32   A    
C61   H26   S    
N16   Ni2   S    
C71   H31   S    
C28   C31   A    
C8    H34   S    
C69   N16   A    
C3    C5    A    
C10   H24   S    
C81   H43   S    
N8    Ni4   S    
C16   C23   A    
C50   C55   A    
C54   H18   S    
C16   N10   A    
C9    C60   A    
C75   H36   S    
C37   C44   A    
C28   C30   A    
N11   Ni1   S    
C4    C77   S    
C29   C31   A    
C11   H46   S    
C7    C66   A    
C30   C32   A    
C44   H10   S    
C7    H23   S    
C34   C36   S    
C67   C71   A    
N4    N15   A    
N15   Ni3   S    
C57   C59   A    
N2    Ni1   S    
C2    C5    A    
C6    C66   S    
C51   C59   A    
N12   N16   A    
C55   C58   A    
C76   H37   S    
C60   H25   S    
N10   Ni2   S    
N4    Ni2   S    
N6    Ni3   S    
C33   O1    S    
N3    N14   A    
