data_mof_unit_46356.cif
_audit_creation_date              2012-12-10T16:38:29-0500
_audit_creation_method            fapswitch 2.2
_symmetry_space_group_name_H-M    P1
_symmetry_Int_Tables_number       1
_space_group_crystal_system       triclinic
_cell_length_a                    10.822177
_cell_length_b                    10.881479
_cell_length_c                    17.724049
_cell_angle_alpha                 98.454721
_cell_angle_beta                  73.071149
_cell_angle_gamma                 98.477637
_cell_volume                      1962.95578996

loop_
_atom_site_label
_atom_site_type_symbol
_atom_type_description
_atom_site_fract_x
_atom_site_fract_y
_atom_site_fract_z
_atom_type_partial_charge
C1    C     C_R   0.157251 0.479511 0.517777 0.487357
C2    C     C_R   0.537991 0.336120 0.923761 0.330816
C3    C     C_R   0.612846 0.288213 0.962300 0.414016
C4    C     C_R   0.843203 0.520612 0.482420 0.508689
C5    C     C_R   0.605490 0.328981 0.042047 -0.000754
C6    C     C_R   0.511695 0.410481 0.085776 -0.094477
C7    C     C_R   0.687660 0.287448 0.079700 0.399390
C8    C     C_R   0.676995 0.325803 0.159634 -0.129129
C9    C     C_R   0.509218 0.453583 0.165120 -0.125256
C10   C     C_2   0.981169 0.528444 0.475299 -0.127756
C11   C     C_2   0.021114 0.472535 0.524683 -0.107184
C12   C     C_R   0.284607 0.638433 0.844485 0.188527
C13   C     C_2   0.537969 0.966365 0.476037 0.255263
C14   C     C_2   0.449533 0.037071 0.526559 0.267564
C15   C     C_R   0.467429 0.168935 0.517950 0.521382
C16   C     C_R   0.529760 0.833092 0.482817 0.533174
C17   C     C_R   0.564014 0.435920 0.287757 0.497079
C18   C     C_R   0.435250 0.562835 0.713120 0.539192
C19   C     C_R   0.393630 0.576654 0.801228 -0.014307
C20   C     C_R   0.587636 0.408294 0.202217 -0.042284
C21   C     C_R   0.247028 0.648084 0.927749 0.239992
C22   C     C_3   0.025076 0.544053 0.087041 0.039174
C23   C     C_R   0.458955 0.520540 0.842468 0.357423
C24   C     C_3   0.908472 0.617913 0.120964 -0.338037
C25   C     C_3   0.615351 0.998903 0.345611 -0.015392
C26   C     C_3   0.718869 0.074908 0.287227 -0.356043
C27   C     C_3   0.242275 0.056131 0.614186 -0.016409
C28   C     C_3   0.130201 0.982268 0.668789 -0.355462
C29   C     C_3   0.218619 0.848781 0.978829 0.030393
C30   C     C_3   0.119579 0.936524 0.026596 -0.357334
C31   C     C_3   0.104203 0.620328 0.801346 0.025383
C32   C     C_3   0.032355 0.682476 0.757942 -0.346387
C33   C     C_3   0.197954 0.367431 0.179448 -0.018604
C34   C     C_R   0.404441 0.505399 0.923840 -0.067300
C35   C     C_3   0.101987 0.363130 0.261324 -0.354428
C36   C     C_3   0.426934 0.194853 0.852655 -0.006199
C37   C     C_3   0.429189 0.132195 0.769811 -0.310345
C38   C     C_R   0.298824 0.573372 0.967603 -0.102277
C39   C     C_R   0.458570 0.432003 0.963861 -0.061470
C40   C     C_R   0.427452 0.450406 0.047783 -0.088205
C41   C     C_R   0.310715 0.503701 0.089846 0.278454
C42   C     C_R   0.247113 0.564414 0.049929 0.300113
F1    F     F_    0.777507 0.208800 0.039923 -0.591996
F2    F     F_    0.692090 0.200871 0.920856 -0.550885
F3    F     F_    0.581387 0.491942 0.804434 -0.570633
H1    H     H_    0.050513 0.579684 0.429701 0.111142
H2    H     H_    0.519005 0.027911 0.349172 0.134458
H3    H     H_    0.617341 0.898295 0.322324 0.151199
H4    H     H_    0.816279 0.046668 0.280760 0.162985
H5    H     H_    0.698864 0.058735 0.228344 0.120578
H6    H     H_    0.718465 0.176039 0.308845 0.149707
H7    H     H_    0.208609 0.074945 0.563696 0.145771
H8    H     H_    0.267904 0.145811 0.648220 0.114314
H9    H     H_    0.160371 0.959480 0.719393 0.171469
H10   H     H_    0.046517 0.038261 0.692166 0.123861
H11   H     H_    0.099462 0.894142 0.635447 0.162386
H12   H     H_    0.953846 0.421182 0.570882 0.140099
H13   H     H_    0.266519 0.884511 0.920305 0.151027
H14   H     H_    0.292750 0.850458 0.011530 0.147456
H15   H     H_    0.073253 0.906288 0.086568 0.168991
H16   H     H_    0.168575 0.033096 0.033005 0.083410
H17   H     H_    0.043534 0.936294 0.995874 0.183009
H18   H     H_    0.038343 0.605786 0.861423 0.166886
H19   H     H_    0.127085 0.527773 0.767629 0.119021
H20   H     H_    0.095353 0.698157 0.697643 0.184602
H21   H     H_    0.942832 0.621559 0.752523 0.139282
H22   H     H_    0.004933 0.773635 0.791277 0.160949
H23   H     H_    0.448067 0.523583 0.199308 0.185221
H24   H     H_    0.275206 0.307857 0.175243 0.147285
H25   H     H_    0.145474 0.326651 0.134386 0.107920
H26   H     H_    0.022821 0.421426 0.267432 0.162342
H27   H     H_    0.058861 0.265323 0.269886 0.102599
H28   H     H_    0.152504 0.398960 0.307791 0.175122
H29   H     H_    0.336498 0.241787 0.876854 0.101038
H30   H     H_    0.425161 0.121035 0.890548 0.127754
H31   H     H_    0.342289 0.062784 0.772746 0.111109
H32   H     H_    0.428833 0.203372 0.730948 0.177173
H33   H     H_    0.517775 0.083389 0.744073 0.192238
H34   H     H_    0.738036 0.290673 0.188477 0.112792
H35   H     H_    0.009582 0.462869 0.121283 0.133028
H36   H     H_    0.028978 0.509108 0.024106 0.145648
H37   H     H_    0.921969 0.701819 0.089378 0.184213
H38   H     H_    0.819158 0.559177 0.113366 0.108385
H39   H     H_    0.896445 0.647662 0.185144 0.166408
O1    O     O_3   0.500000 0.500000 0.500000 -0.453587
O2    O     O_R   0.470800 0.371790 0.332500 -0.533674
O3    O     O_R   0.380610 0.619380 0.674980 -0.510006
O4    O     O_R   0.632640 0.524780 0.317540 -0.548912
O5    O     O_R   0.515950 0.484050 0.674980 -0.480335
O6    O     O_3   0.138752 0.622159 0.094043 -0.496227
O7    O     O_3   0.642022 0.021005 0.420146 -0.577378
O8    O     O_3   0.349556 0.985515 0.587180 -0.568642
O9    O     O_3   0.154771 0.726982 0.969134 -0.523298
O10   O     O_3   0.219203 0.697599 0.806334 -0.524734
O11   O     O_3   0.251533 0.492756 0.169552 -0.547399
O12   O     O_R   0.535460 0.243030 0.556410 -0.532530
O13   O     O_3   0.538523 0.282106 0.847999 -0.442082
O14   O     O_R   0.437420 0.784080 0.535340 -0.497640
O15   O     O_R   0.223560 0.397520 0.472140 -0.539372
O16   O     O_R   0.803560 0.575360 0.436110 -0.537510
O17   O     O_R   0.209690 0.568800 0.556400 -0.547879
O18   O     O_R   0.763190 0.458310 0.535350 -0.520518
O19   O     O_R   0.414000 0.207090 0.472140 -0.575147
O20   O     O_R   0.613120 0.765800 0.436110 -0.536737
Zn1   Zn    Zn3+2 0.577310 0.422690 0.565550 0.983126
Zn2   Zn    Zn3+2 0.403760 0.371330 0.445150 0.915992
Zn3   Zn    Zn3+2 0.634990 0.589920 0.423760 0.938411
Zn4   Zn    Zn3+2 0.383940 0.616050 0.565540 0.958372

loop_
_geom_bond_atom_site_label_1
_geom_bond_atom_site_label_2
_ccdc_geom_bond_type
O12   Zn1   S    
C23   F3    S    
C17   O4    A    
C41   C42   A    
C1    C11   S    
C1    O15   A    
C6    C9    A    
C28   H11   S    
C7    C8    A    
C8    C20   A    
C36   C37   S    
C24   H38   S    
C38   C42   A    
C26   H5    S    
C5    C6    A    
C17   C20   S    
O14   Zn4   S    
O18   Zn1   S    
C18   C19   S    
C24   H37   S    
C2    C39   A    
C16   O20   A    
O3    Zn4   S    
C29   H14   S    
C2    O13   S    
C4    O18   A    
C10   H1    S    
C8    H34   S    
C36   O13   S    
C7    F1    S    
O1    Zn4   S    
C25   H2    S    
C33   H24   S    
O17   Zn4   S    
C35   H26   S    
C13   C14   D    
C13   O7    S    
C12   O10   S    
O2    Zn2   S    
O1    Zn1   S    
C33   O11   S    
C28   H10   S    
C3    F2    S    
C25   O7    S    
C21   C38   A    
C34   C39   A    
C22   H36   S    
C31   H18   S    
C26   H4    S    
C15   O12   A    
C5    C7    A    
O4    Zn3   S    
C28   H9    S    
C25   C26   S    
C37   H32   S    
C12   C21   A    
C17   O2    A    
C30   H15   S    
C42   O6    S    
C19   C23   A    
C29   C30   S    
C36   H30   S    
C9    C20   A    
C31   C32   S    
C23   C34   A    
C22   O6    S    
C27   O8    S    
C25   H3    S    
C14   O8    S    
C36   H29   S    
C33   H25   S    
C32   H22   S    
C40   C41   A    
C37   H31   S    
C35   H27   S    
C4    O16   A    
C22   C24   S    
C30   H16   S    
C4    C10   S    
O1    Zn2   S    
C1    O17   A    
C39   C40   A    
C27   H7    S    
C32   H21   S    
O15   Zn2   S    
C35   H28   S    
O16   Zn3   S    
C34   C38   A    
C18   O5    A    
C31   H19   S    
C3    C5    A    
C27   H8    S    
C31   O10   S    
C37   H33   S    
C18   O3    A    
C30   H17   S    
C2    C3    A    
C24   H39   S    
C9    H23   S    
C22   H35   S    
C11   H12   S    
C26   H6    S    
C29   O9    S    
C16   O14   A    
C41   O11   S    
C21   O9    S    
C12   C19   A    
C33   C35   S    
O19   Zn2   S    
C6    C40   A    
C10   C11   D    
C29   H13   S    
C13   C16   S    
O5    Zn1   S    
C27   C28   S    
C14   C15   S    
C15   O19   A    
O1    Zn3   S    
O20   Zn3   S    
C32   H20   S    
