data_mof_unit_15346.cif
_audit_creation_date              2012-12-11T17:39:31-0500
_audit_creation_method            fapswitch 2.2
_symmetry_space_group_name_H-M    P1
_symmetry_Int_Tables_number       1
_space_group_crystal_system       triclinic
_cell_length_a                    14.891141
_cell_length_b                    15.110905
_cell_length_c                    14.918544
_cell_angle_alpha                 109.342645
_cell_angle_beta                  109.343886
_cell_angle_gamma                 109.726451
_cell_volume                      2584.17417806

loop_
_atom_site_label
_atom_site_type_symbol
_atom_type_description
_atom_site_fract_x
_atom_site_fract_y
_atom_site_fract_z
_atom_type_partial_charge
C1    C     C_R   0.910665 0.908732 0.712777 -0.138072
C2    C     C_R   0.909873 0.685470 0.442960 -0.126921
C3    C     C_R   0.707653 0.784112 0.192404 -0.164986
C4    C     C_R   0.092248 0.296595 0.494086 -0.158344
C5    C     C_R   0.307316 0.013006 0.601918 -0.127974
C6    C     C_R   0.655840 0.683915 0.182791 -0.056445
C7    C     C_R   0.373581 0.080401 0.577682 0.071996
C8    C     C_R   0.003985 0.677960 0.460486 0.048343
C9    C     C_R   0.000505 0.943204 0.176480 0.056176
C10   C     C_R   0.544837 0.768989 0.616237 -0.130451
C11   C     C_R   0.535735 0.850547 0.596776 -0.157675
C12   C     C_R   0.002154 0.300387 0.435846 0.058684
C13   C     C_R   0.615861 0.959821 0.673482 0.106611
C14   C     C_R   0.701516 0.987430 0.772069 -0.165438
C15   C     C_R   0.711307 0.905639 0.790161 -0.157154
C16   C     C_R   0.242065 0.219569 0.811990 -0.050002
C17   C     C_R   0.633505 0.796404 0.712028 -0.118795
C18   C     C_R   0.536778 0.073500 0.671903 -0.207045
C19   C     C_R   0.492516 0.121377 0.619112 0.057348
C20   C     C_R   0.552879 0.180351 0.582404 0.031569
C21   C     C_R   0.635295 0.161083 0.570851 -0.237607
C22   C     C_R   0.654231 0.082851 0.591390 0.065496
C23   C     C_R   0.264350 0.320049 0.821871 0.137730
C24   C     C_R   0.608827 0.044604 0.649974 0.017977
C25   C     C_R   0.534547 0.268143 0.465207 -0.163839
C26   C     C_R   0.515918 0.344622 0.441800 -0.095574
C27   C     C_R   0.493820 0.414052 0.507950 -0.099055
C28   C     C_R   0.744029 0.058966 0.470351 -0.127158
C29   C     C_R   0.491528 0.408074 0.598531 -0.112475
C30   C     C_R   0.513312 0.333964 0.624512 -0.163736
C31   C     C_R   0.533457 0.261849 0.557046 0.109770
C32   C     C_R   0.805419 0.115304 0.083541 -0.118409
C33   C     C_R   0.881931 0.212808 0.182074 -0.130319
C34   C     C_R   0.713559 0.039063 0.544411 0.060203
C35   C     C_R   0.848898 0.284033 0.229482 0.098361
C36   C     C_R   0.738084 0.256520 0.174606 -0.127060
C37   C     C_R   0.662131 0.159442 0.075208 -0.091725
C38   C     C_R   0.695647 0.088675 0.030077 -0.117557
C39   C     C_R   0.932399 0.483820 0.346953 -0.238732
C40   C     C_R   0.242644 0.310856 0.720422 -0.126008
C41   C     C_R   0.011818 0.582003 0.444671 0.060722
C42   C     C_R   0.095016 0.586424 0.529747 0.020495
C43   C     C_R   0.094011 0.492396 0.516963 -0.240171
C44   C     C_R   0.009787 0.393146 0.424441 0.063501
C45   C     C_R   0.709599 0.691672 0.282373 -0.043904
C46   C     C_R   0.930558 0.387391 0.335026 0.015707
C47   C     C_R   0.289114 0.731558 0.673150 -0.181696
C48   C     C_R   0.365543 0.824599 0.775643 -0.123945
C49   C     C_R   0.329920 0.869197 0.845183 -0.105368
C50   C     C_R   0.217860 0.820107 0.812485 -0.116204
C51   C     C_R   0.141330 0.727188 0.710388 -0.122461
C52   C     C_R   0.746228 0.967200 0.561329 -0.142056
C53   C     C_R   0.176319 0.683506 0.639302 0.108031
C54   C     C_2   0.373211 0.514461 0.933452 -0.079491
C55   C     C_2   0.316856 0.419548 0.924907 -0.093831
C56   C     C_R   0.305536 0.099514 0.507612 -0.153351
C57   C     C_2   0.473044 0.601604 0.035279 -0.372652
C58   C     C_2   0.557042 0.588944 0.087682 0.518546
C59   C     C_R   0.415980 0.128906 0.122572 -0.175522
C60   C     C_R   0.310162 0.040032 0.067289 -0.178904
C61   C     C_R   0.217479 0.052777 0.032945 0.118656
C62   C     C_R   0.232775 0.156620 0.057753 -0.204407
C63   C     C_R   0.338953 0.245718 0.114749 -0.070172
C64   C     C_R   0.909469 0.209900 0.407001 -0.129207
C65   C     C_R   0.430438 0.231708 0.146751 0.000382
C66   C     C_R   0.102891 0.943190 0.078799 -0.226063
C67   C     C_R   0.093445 0.781134 0.524520 -0.111709
C68   C     C_R   0.001979 0.895803 0.073419 0.059131
C69   C     C_R   0.906100 0.830408 0.969341 0.012324
C70   C     C_R   0.912225 0.838527 0.880598 -0.249095
C71   C     C_R   0.009910 0.915355 0.896095 0.054880
C72   C     C_R   0.108719 0.964335 0.996670 0.017493
C73   C     C_R   0.791175 0.645307 0.932115 -0.163416
C74   C     C_R   0.688460 0.558711 0.893713 -0.087176
C75   C     C_R   0.596673 0.572327 0.870671 -0.057922
C76   C     C_R   0.092557 0.998378 0.799799 -0.161468
C77   C     C_R   0.607565 0.672727 0.888289 -0.165546
C78   C     C_R   0.909829 0.934739 0.187865 -0.132750
C79   C     C_R   0.709738 0.758975 0.925742 -0.203076
C80   C     C_R   0.802211 0.745794 0.946994 0.136613
C81   C     C_R   0.004460 0.943468 0.808949 0.059191
C82   C     C_R   0.092644 0.022151 0.279628 -0.123426
H1    H     H_    0.827308 0.849279 0.683085 0.105713
H2    H     H_    0.484367 0.684640 0.556340 0.105244
H3    H     H_    0.468001 0.828866 0.521265 0.117002
H4    H     H_    0.176752 0.347465 0.517736 0.095251
H5    H     H_    0.762871 0.071573 0.832201 0.130803
H6    H     H_    0.781164 0.927967 0.863689 0.122849
H7    H     H_    0.501631 0.040497 0.714082 0.126366
H8    H     H_    0.680542 0.203311 0.540564 0.123060
H9    H     H_    0.548293 0.213122 0.410665 0.106788
H10   H     H_    0.517918 0.349758 0.371941 0.105474
H11   H     H_    0.477969 0.472199 0.488736 0.096201
H12   H     H_    0.328233 0.154445 0.477849 0.119681
H13   H     H_    0.472054 0.460625 0.647914 0.106562
H14   H     H_    0.511341 0.330589 0.695252 0.138996
H15   H     H_    0.636694 0.013381 0.953562 0.109827
H16   H     H_    0.251589 0.199612 0.876390 0.116587
H17   H     H_    0.831515 0.060647 0.048590 0.106388
H18   H     H_    0.966986 0.232664 0.221309 0.114516
H19   H     H_    0.710093 0.309476 0.209062 0.129087
H20   H     H_    0.577152 0.138914 0.033216 0.124249
H21   H     H_    0.871927 0.482867 0.280933 0.169455
H22   H     H_    0.154010 0.496546 0.586273 0.129073
H23   H     H_    0.178980 0.805462 0.551935 0.115196
H24   H     H_    0.317332 0.698016 0.619440 0.120180
H25   H     H_    0.452160 0.862182 0.800795 0.119277
H26   H     H_    0.389172 0.941476 0.924308 0.108564
H27   H     H_    0.189353 0.853572 0.865409 0.114135
H28   H     H_    0.731547 0.110329 0.437596 0.091348
H29   H     H_    0.054761 0.690281 0.685858 0.115282
H30   H     H_    0.358309 0.524679 0.862327 0.110055
H31   H     H_    0.330906 0.413458 0.998309 0.157501
H32   H     H_    0.482494 0.682020 0.062785 0.131780
H33   H     H_    0.512911 0.300739 0.192935 0.135863
H34   H     H_    0.825640 0.887380 0.125810 0.113881
H35   H     H_    0.486839 0.118655 0.150018 0.108808
H36   H     H_    0.300641 0.962139 0.055735 0.114324
H37   H     H_    0.162826 0.169075 0.037084 0.121506
H38   H     H_    0.350097 0.325920 0.136368 0.129922
H39   H     H_    0.250494 0.373296 0.698661 0.085711
H40   H     H_    0.178630 0.981777 0.154721 0.128397
H41   H     H_    0.838733 0.788289 0.800909 0.129545
H42   H     H_    0.861058 0.632988 0.946361 0.119404
H43   H     H_    0.679700 0.480584 0.879968 0.147498
H44   H     H_    0.516366 0.504829 0.837316 0.146845
H45   H     H_    0.178064 0.052112 0.303133 0.099119
H46   H     H_    0.536537 0.683299 0.871328 0.119403
H47   H     H_    0.716770 0.836344 0.939598 0.111880
H48   H     H_    0.741057 0.934084 0.613426 0.138144
H49   H     H_    0.824757 0.182713 0.352736 0.101111
H50   H     H_    0.176243 0.017685 0.845017 0.122740
H51   H     H_    0.681088 0.632545 0.306566 0.114340
H52   H     H_    0.729694 0.541601 0.085978 0.334101
H53   H     H_    0.826305 0.619409 0.399901 0.114578
H54   H     H_    0.677091 0.808996 0.134379 0.106462
H55   H     H_    0.333727 0.991448 0.664042 0.101292
H56   H     H_    0.642024 0.732543 0.724347 0.126787
N1    N     N_R   0.941940 0.944580 0.650780 -0.041906
N2    N     N_R   0.204460 0.150250 0.707090 -0.050908
N3    N     N_R   0.794270 0.003240 0.446420 -0.041307
N4    N     N_R   0.204920 0.207570 0.650770 -0.044786
N5    N     N_R   0.793810 0.945920 0.502740 -0.046238
N6    N     N_R   0.943620 0.152590 0.446420 -0.040166
N7    N     N_R   0.055110 0.000900 0.707100 -0.044308
N8    N     N_R   0.795080 0.792430 0.349230 -0.048165
N9    N     N_R   0.206190 0.054080 0.497260 -0.040456
N10   N     N_R   0.056380 0.847410 0.553580 -0.042201
N11   N     N_R   0.944890 0.999100 0.292900 -0.040485
N12   N     N_R   0.058060 0.055420 0.349220 -0.041549
N13   N     N_R   0.943200 0.791100 0.497260 -0.045235
N14   N     N_R   0.795540 0.849750 0.292910 -0.033539
N15   N     N_R   0.205730 0.996760 0.553580 -0.042604
N16   N     N_R   0.056800 0.208900 0.502740 -0.038533
Ni1   Ni    Ni4+2 0.869690 0.869690 0.500000 0.207837
Ni2   Ni    Ni4+2 0.130310 0.130310 0.500000 0.213173
Ni3   Ni    Ni4+2 0.129250 0.998840 0.629170 0.223888
Ni4   Ni    Ni4+2 0.870750 0.001160 0.370830 0.212665
O1    O     O_2   0.501501 0.404252 0.091512 -0.344086
O2    O     O_2   0.506448 0.395648 0.927391 -0.322145
O3    O     O_3   0.691248 0.492277 0.107548 -0.530778
S1    S     S_3+6 0.560372 0.465641 0.049196 -0.074712

loop_
_geom_bond_atom_site_label_1
_geom_bond_atom_site_label_2
_ccdc_geom_bond_type
C25   C31   A    
C66   C68   A    
C63   C65   A    
C6    C45   A    
C40   N4    A    
C27   C29   A    
C76   H50   S    
C41   C42   A    
C6    C58   S    
C4    N16   A    
C35   C36   A    
N10   N13   A    
C3    C6    A    
O3    S1    S    
C39   C41   A    
C56   H12   S    
C40   H39   S    
C3    N14   A    
C37   C38   A    
C18   C24   A    
C36   C37   A    
N2    N4    A    
C14   H5    S    
C18   C19   A    
N3    N5    A    
C42   C53   S    
C37   H20   S    
C12   C64   A    
C48   H25   S    
C4    H4    S    
C10   C17   A    
C1    C81   A    
C23   C40   A    
C79   H47   S    
C3    H54   S    
C73   C74   A    
C43   H22   S    
C30   H14   S    
C70   H41   S    
C66   C72   A    
N8    Ni1   S    
C19   C20   A    
C68   C69   A    
C66   H40   S    
C60   H36   S    
C17   H56   S    
C32   C38   A    
C4    C12   A    
C29   C30   A    
N11   Ni4   S    
N16   Ni2   S    
C61   C62   A    
C1    N1    A    
C9    C82   A    
C47   C53   A    
C73   H42   S    
C28   C34   A    
C59   C60   A    
C59   H35   S    
N12   Ni2   S    
C13   C14   A    
N15   Ni3   S    
C65   H33   S    
C16   N2    A    
C7    C56   A    
C38   H15   S    
C44   C46   A    
C49   H26   S    
C21   H8    S    
C77   C79   A    
C22   C34   S    
N14   Ni4   S    
C25   H9    S    
C52   N5    A    
C74   C75   A    
C45   N8    A    
C8    C41   S    
C29   H13   S    
C67   H23   S    
C64   N6    A    
C28   H28   S    
C25   C26   A    
C50   H27   S    
C13   C24   S    
C36   H19   S    
C51   C53   A    
O2    S1    D    
C43   C44   A    
C62   C63   A    
N2    Ni3   S    
N7    Ni3   S    
N5    Ni1   S    
C47   C48   A    
C64   H49   S    
N1    Ni1   S    
C47   H24   S    
C50   C51   A    
C26   C27   A    
O1    S1    D    
C54   H30   S    
C5    H55   S    
N9    Ni2   S    
C75   C77   A    
C62   H37   S    
C82   N12   A    
C77   H46   S    
C39   C46   A    
N8    N14   A    
C61   C72   S    
C48   C49   A    
C76   N7    A    
C16   C23   A    
N13   Ni1   S    
C22   C24   A    
C27   H11   S    
C42   C43   A    
N6    Ni4   S    
C58   S1    S    
C70   C71   A    
C5    C7    A    
C2    N13   A    
C15   C17   A    
C54   C55   D    
N1    N7    A    
C51   H29   S    
C18   H7    S    
C34   C52   A    
C78   H34   S    
C76   C81   A    
H52   O3    S    
C39   H21   S    
C57   H32   S    
C23   C55   S    
C45   H51   S    
C1    H1    S    
C55   H31   S    
C7    C19   S    
C2    H53   S    
C32   H17   S    
C33   H18   S    
C52   H48   S    
C32   C33   A    
C75   H44   S    
C56   N9    A    
C9    C68   S    
C71   C72   A    
C12   C44   S    
N11   N12   A    
C59   C65   A    
C63   H38   S    
C11   C13   A    
C16   H16   S    
C57   C58   D    
C30   C31   A    
C11   H3    S    
C5    N15   A    
C10   H2    S    
C33   C35   A    
C73   C80   A    
N10   Ni3   S    
N6    N16   A    
C69   C70   A    
N9    N15   A    
C82   H45   S    
C10   C11   A    
C79   C80   A    
C74   H43   S    
N3    Ni4   S    
C20   C21   A    
C8    C67   A    
C49   C50   A    
C9    C78   A    
C2    C8    A    
C67   N10   A    
C14   C15   A    
C60   C61   A    
C69   C80   S    
C28   N3    A    
N4    Ni2   S    
C21   C22   A    
C35   C46   S    
C26   H10   S    
C54   C57   S    
C78   N11   A    
C15   H6    S    
C71   C81   S    
C20   C31   S    
