data_mof_unit_57115.cif
_audit_creation_date              2013-03-05T15:39:57-0500
_audit_creation_method            fapswitch 2.2
_symmetry_space_group_name_H-M    P1
_symmetry_Int_Tables_number       1
_space_group_crystal_system       triclinic
_cell_length_a                    10.870722
_cell_length_b                    8.690335
_cell_length_c                    7.496105
_cell_angle_alpha                 103.19986
_cell_angle_beta                  94.687977
_cell_angle_gamma                 92.790054
_cell_volume                      685.485514132

loop_
_atom_site_label
_atom_site_type_symbol
_atom_site_description
_atom_site_fract_x
_atom_site_fract_y
_atom_site_fract_z
_atom_type_partial_charge
O1    O     O_R   0.508930 0.286130 0.619780 -0.549977
O2    O     O_R   0.485720 0.256780 0.308360 -0.572420
C1    C     C_R   0.496220 0.199771 0.453111 0.894375
O3    O     O_R   0.333540 0.514670 0.655670 -0.534632
O4    O     O_R   0.310330 0.485320 0.344250 -0.556986
C2    C     C_R   0.265681 0.504750 0.502050 0.852575
Cu1   Cu    Cu3+1 0.513740 0.517380 0.684380 1.066384
Cu2   Cu    Cu3+1 0.486260 0.482620 0.315620 1.054102
O5    O     O_R   0.514280 0.743220 0.691640 -0.586886
O6    O     O_R   0.491070 0.713870 0.380220 -0.597631
O7    O     O_R   0.689670 0.514680 0.655750 -0.548533
O8    O     O_R   0.666460 0.485330 0.344330 -0.623869
C3    C     C_R   0.504205 0.800232 0.546855 0.849371
C4    C     C_R   0.733987 0.491664 0.497518 0.740530
C5    C     C_2   0.924892 0.501042 0.358639 -0.246622
C6    C     C_2   0.863124 0.458674 0.490069 0.189846
H1    H     H_    0.877480 0.552325 0.255088 0.173662
C7    C     C_2   0.057894 0.489930 0.352654 -0.081804
C8    C     C_2   0.134344 0.519667 0.507766 -0.219566
H2    H     H_    0.092833 0.463533 0.218279 0.231251
H3    H     H_    0.100185 0.556843 0.641998 0.197325
C9    C     C_2   0.494214 0.031567 0.427107 -0.331356
H4    H     H_    0.481918 0.959334 0.286994 0.185020
C10   C     C_2   0.507006 0.968443 0.572757 -0.294064
H5    H     H_    0.519733 0.040621 0.712821 0.207296
N1    N     N_2   0.465540 0.456420 0.038510 0.015767
N2    N     N_2   0.534460 0.543580 0.961490 -0.199506
H6    H     H_    0.609447 0.603671 0.045641 0.201206
N3    N     N_R   0.916674 0.366726 0.610799 0.125138
O9    O     O_R   0.892604 0.393164 0.781945 -0.338124
O10   O     O_R   0.976843 0.243896 0.544146 -0.316659
N4    N     N_R   0.354854 0.390284 0.940030 0.297761
O11   O     O_R   0.342662 0.238227 0.871290 -0.343972
O12   O     O_R   0.255425 0.466310 0.968050 -0.339003

loop_
_geom_bond_atom_site_label_1
_geom_bond_atom_site_label_2
_geom_bond_distance
_ccdc_geom_bond_type
O4    Cu2   1.942517 S    
N1    N4    1.384481 S    
N3    O9    1.301260 A    
C4    C6    1.449377 S    
C5    C7    1.457391 S    
Cu2   N1    2.029792 S    
Cu2   O8    1.951527 S    
N4    O11   1.300025 A    
O2    C1    1.290971 A    
Cu1   Cu2   2.701208 S    
N3    O10   1.301800 A    
Cu1   O7    1.942517 S    
C2    C8    1.443089 S    
N1    N2    1.297519 D    
O3    Cu1   1.951526 S    
Cu2   O6    1.953732 S    
C8    H3    1.085833 S    
O8    C4    1.299968 A    
C7    H2    1.084895 S    
O4    C2    1.293806 A    
O7    C4    1.293609 A    
C9    C10   1.329833 D    
C5    C6    1.344169 D    
Cu1   O5    1.950626 S    
Cu1   N2    2.029792 S    
C10   H5    1.087189 S    
O3    C2    1.298955 A    
C7    C8    1.339148 D    
N2    H6    1.029162 S    
C5    H1    1.087084 S    
O5    C3    1.291058 A    
C9    H4    1.087575 S    
C1    C9    1.428728 S    
C6    N3    1.444236 S    
O1    Cu1   1.953732 S    
O2    Cu2   1.950626 S    
C3    C10   1.428498 S    
O1    C1    1.294882 A    
O6    C3    1.294684 A    
N4    O12   1.300822 A    
