data_mof_unit_24376.cif
_audit_creation_date              2012-12-11T14:35:51-0500
_audit_creation_method            fapswitch 2.2
_symmetry_space_group_name_H-M    P1
_symmetry_Int_Tables_number       1
_space_group_crystal_system       monoclinic
_cell_length_a                    14.541651
_cell_length_b                    16.040145
_cell_length_c                    6.970574
_cell_angle_alpha                 90.0
_cell_angle_beta                  80.543108
_cell_angle_gamma                 90.0
_cell_volume                      1603.79108749

loop_
_atom_site_label
_atom_site_type_symbol
_atom_type_description
_atom_site_fract_x
_atom_site_fract_y
_atom_site_fract_z
_atom_type_partial_charge
O1    O     O_R   0.337460 0.413110 0.524760 -0.555536
O2    O     O_R   0.662540 0.913110 0.475240 -0.555536
O3    O     O_R   0.348690 0.587910 0.191230 -0.550317
O4    O     O_R   0.651310 0.087910 0.808770 -0.550317
O5    O     O_R   0.166530 0.586890 0.082470 -0.556316
O6    O     O_R   0.833470 0.086890 0.917530 -0.556316
C1    C     C_R   0.372951 0.614709 0.353410 0.750192
C2    C     C_R   0.627049 0.114709 0.646590 0.750192
O7    O     O_R   0.348700 0.413830 0.191250 -0.541918
O8    O     O_R   0.651300 0.913830 0.808750 -0.541918
O9    O     O_R   0.166530 0.411570 0.082490 -0.545452
O10   O     O_R   0.833470 0.911570 0.917510 -0.545452
C3    C     C_R   0.370613 0.384595 0.353330 0.709418
C4    C     C_R   0.629387 0.884595 0.646670 0.709419
O11   O     O_R   0.337460 0.588430 0.524740 -0.535138
O12   O     O_R   0.662540 0.088430 0.475260 -0.535138
O13   O     O_3   0.192230 0.499460 0.407330 -0.368775
O14   O     O_3   0.807770 0.999460 0.592670 -0.368776
V1    V     V_3+5 0.263080 0.500100 0.108540 1.405916
V2    V     V_3+5 0.736920 0.000100 0.891460 1.405916
O15   O     O_R   0.155290 0.412090 0.756570 -0.546232
O16   O     O_R   0.844710 0.912090 0.243430 -0.546232
C5    C     C_R   0.133867 0.382302 0.934784 0.783707
C6    C     C_R   0.866133 0.882302 0.065216 0.783707
O17   O     O_R   0.155290 0.586170 0.756550 -0.501244
O18   O     O_R   0.844710 0.086170 0.243450 -0.501244
C7    C     C_R   0.135761 0.617226 0.932732 0.846919
C8    C     C_R   0.864239 0.117226 0.067268 0.846919
V3    V     V_3+5 0.240910 0.499900 0.616030 1.459901
V4    V     V_3+5 0.759090 0.999900 0.383970 1.459901
O19   O     O_3   0.311760 0.500540 0.867100 -0.386605
O20   O     O_3   0.688240 0.000540 0.132900 -0.386605
C9    C     C_3   0.102918 0.765060 0.078444 0.513300
C10   C     C_3   0.897082 0.265060 0.921556 0.513300
C11   C     C_3   0.021019 0.828795 0.132003 -0.412683
C12   C     C_3   0.978981 0.328795 0.867997 -0.412683
H1    H     H_    0.047510 0.893439 0.104764 0.234488
H2    H     H_    0.952490 0.393439 0.895236 0.234488
H3    H     H_    0.994436 0.826813 0.289139 0.138230
H4    H     H_    0.005564 0.326813 0.710861 0.138230
H5    H     H_    0.981286 0.648536 0.248337 0.107928
H6    H     H_    0.018714 0.148536 0.751663 0.107928
C13   C     C_3   0.972381 0.657960 0.095016 0.449796
C14   C     C_3   0.027619 0.157959 0.904984 0.449797
C15   C     C_3   0.044498 0.722628 0.771528 0.467419
C16   C     C_3   0.955502 0.222628 0.228472 0.467418
C17   C     C_3   0.065838 0.688918 0.970548 -0.213171
C18   C     C_3   0.934161 0.188918 0.029452 -0.213171
H7    H     H_    0.111634 0.738100 0.677419 0.101576
H8    H     H_    0.888366 0.238100 0.322581 0.101576
C19   C     C_3   0.937362 0.811226 0.021292 -0.110664
C20   C     C_3   0.062638 0.311226 0.978708 -0.110664
C21   C     C_3   0.893577 0.722726 0.085691 -0.120396
C22   C     C_3   0.106423 0.222725 0.914308 -0.120395
C23   C     C_3   0.979696 0.802738 0.795112 0.165265
C24   C     C_3   0.020304 0.302738 0.204887 0.165265
H9    H     H_    0.857751 0.698088 0.969857 0.231819
H10   H     H_    0.142249 0.198088 0.030142 0.231819
H11   H     H_    0.584904 0.795928 0.349940 0.111669
H12   H     H_    0.415097 0.295928 0.650060 0.111669
C25   C     C_2   0.440996 0.683941 0.348458 -0.324800
C26   C     C_2   0.559004 0.183941 0.651542 -0.324799
C27   C     C_2   0.497315 0.693418 0.484823 0.180001
C28   C     C_2   0.502685 0.193418 0.515177 0.180001
C29   C     C_2   0.563527 0.812806 0.656339 0.001562
C30   C     C_2   0.436472 0.312806 0.343660 0.001562
C31   C     C_2   0.552089 0.771753 0.490191 -0.139330
C32   C     C_2   0.447911 0.271754 0.509809 -0.139331
H13   H     H_    0.439180 0.732266 0.240248 0.116610
H14   H     H_    0.560821 0.232266 0.759752 0.116610
C33   C     C_3   0.145080 0.743331 0.261016 -0.660768
H15   H     H_    0.099763 0.701301 0.359947 0.188214
H16   H     H_    0.214691 0.714169 0.220581 0.220057
H17   H     H_    0.157443 0.801100 0.340228 0.200406
C34   C     C_3   0.854920 0.243331 0.738984 -0.660768
H18   H     H_    0.900236 0.201301 0.640053 0.188214
H19   H     H_    0.785309 0.214169 0.779419 0.220057
H20   H     H_    0.842557 0.301100 0.659772 0.200406
C35   C     C_3   0.903648 0.793526 0.661672 -0.623015
H21   H     H_    0.929172 0.753447 0.535880 0.224975
H22   H     H_    0.836059 0.768112 0.733236 0.173568
H23   H     H_    0.886823 0.853914 0.598073 0.213172
C36   C     C_3   0.096352 0.293526 0.338327 -0.623014
H24   H     H_    0.070829 0.253447 0.464119 0.224975
H25   H     H_    0.163942 0.268111 0.266763 0.173567
H26   H     H_    0.113178 0.353914 0.401927 0.213171
F1    F     F_    0.946638 0.581242 0.028163 -0.653120
F2    F     F_    0.053362 0.081242 0.971838 -0.653120
C37   C     C_3   0.515031 0.622039 0.616320 -0.656823
H27   H     H_    0.582017 0.630971 0.670438 0.196810
H28   H     H_    0.457948 0.617645 0.742834 0.217691
H29   H     H_    0.521010 0.562186 0.534988 0.185687
C38   C     C_3   0.484969 0.122039 0.383680 -0.656822
H30   H     H_    0.417983 0.130971 0.329562 0.196811
H31   H     H_    0.542052 0.117645 0.257166 0.217691
H32   H     H_    0.478989 0.062186 0.465012 0.185687
C39   C     C_3   0.510773 0.787287 0.852809 -0.747709
H33   H     H_    0.506351 0.839539 0.958335 0.208494
H34   H     H_    0.438008 0.769503 0.841759 0.239761
H35   H     H_    0.546773 0.734575 0.911962 0.199899
C40   C     C_3   0.489227 0.287287 0.147191 -0.747707
H36   H     H_    0.493650 0.339539 0.041666 0.208494
H37   H     H_    0.561991 0.269502 0.158241 0.239760
H38   H     H_    0.453226 0.234576 0.088037 0.199899
F3    F     F_    0.175507 0.802392 0.954206 -0.703600
F4    F     F_    0.824493 0.302392 0.045794 -0.703600
C41   C     C_3   0.814899 0.720413 0.263264 -0.805695
H39   H     H_    0.819692 0.771350 0.365696 0.214919
H40   H     H_    0.746283 0.728300 0.214850 0.200605
H41   H     H_    0.813376 0.659863 0.341039 0.257082
C42   C     C_3   0.185101 0.220413 0.736734 -0.805697
H42   H     H_    0.180309 0.271350 0.634305 0.214919
H43   H     H_    0.253716 0.228298 0.785147 0.200607
H44   H     H_    0.186622 0.159864 0.658956 0.257082
F5    F     F_    0.004979 0.657462 0.681247 -0.670621
F6    F     F_    0.995022 0.157462 0.318753 -0.670621
C43   C     C_3   0.036971 0.881829 0.717342 -0.695381
H45   H     H_    0.058121 0.878525 0.557567 0.188008
H46   H     H_    0.995208 0.939550 0.748564 0.243658
H47   H     H_    0.101600 0.890913 0.777429 0.276585
C44   C     C_3   0.963029 0.381829 0.282658 -0.695381
H48   H     H_    0.941879 0.378525 0.442433 0.188008
H49   H     H_    0.004792 0.439549 0.251436 0.243658
H50   H     H_    0.898400 0.390913 0.222571 0.276584

loop_
_geom_bond_atom_site_label_1
_geom_bond_atom_site_label_2
_ccdc_geom_bond_type
C30   C32   D    
C40   H36   S    
O13   V3    S    
C42   H42   S    
O4    C2    A    
V1    O19   S    
C39   H33   S    
O9    V1    S    
C38   H30   S    
C28   C32   S    
C11   H1    S    
O7    V1    S    
C28   C38   S    
O3    C1    A    
C43   H46   S    
V2    O20   S    
C9    C11   S    
C25   H13   S    
C26   H14   S    
C25   C27   D    
O7    C3    A    
C1    C25   S    
C44   H50   S    
C26   C28   D    
H11   C31   S    
O5    C7    A    
C13   C21   S    
O6    C8    A    
O8    V2    S    
C29   C31   D    
C41   H39   S    
O3    V1    S    
O14   V4    S    
C37   H28   S    
H5    C13   S    
C19   C23   S    
C12   C20   S    
C10   C34   S    
C6    C19   S    
C1    O11   A    
C2    O12   A    
C41   H40   S    
C30   C40   S    
O10   V2    S    
H6    C14   S    
C10   C12   S    
C39   H34   S    
C20   C22   S    
O11   V3    S    
C16   C18   S    
C3    C30   S    
C15   C17   S    
O17   V3    S    
C27   C31   S    
C10   F4    S    
C12   H4    S    
C9    F3    S    
O8    C4    A    
C43   H47   S    
C33   H16   S    
C21   H9    S    
O15   V3    S    
C19   C21   S    
O1    C3    A    
C11   H3    S    
C34   H18   S    
C35   H23   S    
C23   C35   S    
C21   C41   S    
C36   H24   S    
C15   H7    S    
C27   C37   S    
O1    V3    S    
C42   H43   S    
C37   H29   S    
C34   H19   S    
C15   C23   S    
C44   H48   S    
C36   H25   S    
O18   V4    S    
C38   H32   S    
O15   C5    A    
C11   C19   S    
O17   C7    A    
C9    C17   S    
C41   H41   S    
O16   C6    A    
C10   C18   S    
O12   V4    S    
C39   H35   S    
C24   C36   S    
C35   H22   S    
C23   C43   S    
C7    C17   S    
C16   H8    S    
C8    C18   S    
O16   V4    S    
C15   F5    S    
C33   H17   S    
O5    V1    S    
C40   H38   S    
O6    V2    S    
O10   C6    A    
O18   C8    A    
C40   H37   S    
C16   F6    S    
O2    V4    S    
C13   F1    S    
C24   C44   S    
C12   H2    S    
C29   C39   S    
C33   H15   S    
V3    O19   S    
C14   C18   S    
C43   H45   S    
V4    O20   S    
C5    C20   S    
O9    C5    A    
O13   V1    S    
C4    C29   S    
C22   C42   S    
C42   H44   S    
O14   V2    S    
O2    C4    A    
C34   H20   S    
C44   H49   S    
C9    C33   S    
C35   H21   S    
O4    V2    S    
C14   C22   S    
C36   H26   S    
C22   H10   S    
H12   C32   S    
C38   H31   S    
C16   C24   S    
C37   H27   S    
C14   F2    S    
C13   C17   S    
C20   C24   S    
C2    C26   S    
