data_mof_unit_14392.cif
_audit_creation_date              2013-03-05T15:53:04-0500
_audit_creation_method            fapswitch 2.2
_symmetry_space_group_name_H-M    P1
_symmetry_Int_Tables_number       1
_space_group_crystal_system       triclinic
_cell_length_a                    19.849539
_cell_length_b                    17.170123
_cell_length_c                    15.329171
_cell_angle_alpha                 90.000281
_cell_angle_beta                  52.709857
_cell_angle_gamma                 90.000472
_cell_volume                      4156.47443023

loop_
_atom_site_label
_atom_site_type_symbol
_atom_site_description
_atom_site_fract_x
_atom_site_fract_y
_atom_site_fract_z
_atom_type_partial_charge
C1    C     C_R   0.847178 0.679573 0.030917 -0.117742
C2    C     C_R   0.126339 0.693482 0.006058 -0.119303
C3    C     C_R   0.373664 0.193483 0.993942 -0.119309
C4    C     C_R   0.652824 0.179571 0.969079 -0.117739
H1    H     H_    0.844091 0.736565 0.062456 0.100496
H2    H     H_    0.120258 0.748934 0.978291 0.101076
H3    H     H_    0.379751 0.248933 0.021707 0.101078
H4    H     H_    0.655913 0.236563 0.937540 0.100495
N1    N     N_R   0.908660 0.628630 0.995840 -0.046350
N2    N     N_R   0.091340 0.628630 0.004160 -0.050570
N3    N     N_R   0.408660 0.128630 0.995840 -0.050568
N4    N     N_R   0.591340 0.128630 0.004160 -0.046350
C5    C     C_R   0.901180 0.301802 0.205863 -0.140493
C6    C     C_R   0.098143 0.301775 0.793843 -0.164400
C7    C     C_R   0.401859 0.801774 0.206156 -0.164410
C8    C     C_R   0.598820 0.801802 0.794136 -0.140491
H5    H     H_    0.909491 0.246326 0.167612 0.146182
H6    H     H_    0.089078 0.246051 0.831917 0.149720
H7    H     H_    0.410925 0.746051 0.168082 0.149726
H8    H     H_    0.590509 0.746326 0.832387 0.146184
N5    N     N_R   0.922310 0.368460 0.151950 -0.046705
N6    N     N_R   0.077690 0.368460 0.848050 -0.045878
N7    N     N_R   0.422310 0.868460 0.151950 -0.045881
N8    N     N_R   0.577690 0.868460 0.848050 -0.046708
C9    C     C_R   0.866405 0.387682 0.896457 0.029578
C10   C     C_R   0.168321 0.407819 0.051309 0.053052
C11   C     C_R   0.331668 0.907824 0.948712 0.053116
C12   C     C_R   0.633597 0.887683 0.103541 0.029575
N9    N     N_R   0.903470 0.421430 0.936420 -0.056179
N10   N     N_R   0.096530 0.421430 0.063580 -0.045886
N11   N     N_R   0.403470 0.921430 0.936420 -0.045885
N12   N     N_R   0.596530 0.921430 0.063580 -0.056180
C13   C     C_R   0.861653 0.580480 0.316151 -0.132776
C14   C     C_R   0.139715 0.579364 0.684508 -0.133629
C15   C     C_R   0.360285 0.079364 0.315492 -0.133629
C16   C     C_R   0.638346 0.080480 0.683849 -0.132772
H9    H     H_    0.848047 0.539722 0.378159 0.117231
H10   H     H_    0.153197 0.538845 0.622331 0.119060
H11   H     H_    0.346802 0.038845 0.377669 0.119060
H12   H     H_    0.651952 0.039723 0.621841 0.117230
N13   N     N_R   0.927500 0.575670 0.211370 -0.047126
N14   N     N_R   0.072500 0.575670 0.788630 -0.047411
N15   N     N_R   0.427500 0.075670 0.211370 -0.047411
N16   N     N_R   0.572500 0.075670 0.788630 -0.047123
C17   C     C_R   0.875417 0.299507 0.994799 -0.141224
C18   C     C_R   0.158950 0.319912 0.952237 -0.108942
C19   C     C_R   0.341042 0.819920 0.047782 -0.108922
C20   C     C_R   0.624584 0.799507 0.005199 -0.141225
H13   H     H_    0.882377 0.245266 0.024221 0.149065
H14   H     H_    0.168376 0.271217 0.901528 0.137034
H15   H     H_    0.331613 0.771231 0.098499 0.137020
H16   H     H_    0.617625 0.745267 0.975776 0.149067
N17   N     N_R   0.908660 0.365680 0.995820 -0.053731
N18   N     N_R   0.091340 0.365680 0.004180 -0.055058
N19   N     N_R   0.408660 0.865680 0.995820 -0.055060
N20   N     N_R   0.591340 0.865680 0.004180 -0.053731
C21   C     C_R   0.855177 0.676370 0.223658 -0.120810
C22   C     C_R   0.148321 0.672971 0.778415 -0.113242
C23   C     C_R   0.351679 0.172970 0.221586 -0.113246
C24   C     C_R   0.644823 0.176371 0.776342 -0.120810
H17   H     H_    0.837817 0.729629 0.205044 0.104572
H18   H     H_    0.169153 0.721926 0.800612 0.108157
H19   H     H_    0.330847 0.221925 0.199388 0.108153
H20   H     H_    0.662182 0.229631 0.794955 0.104573
N21   N     N_R   0.922310 0.631420 0.151980 -0.044553
N22   N     N_R   0.077690 0.631420 0.848020 -0.045154
N23   N     N_R   0.422310 0.131420 0.151980 -0.045154
N24   N     N_R   0.577690 0.131420 0.848020 -0.044552
C25   C     C_R   0.905569 0.393547 0.304503 -0.085621
C26   C     C_R   0.094194 0.393694 0.695382 -0.114514
C27   C     C_R   0.405807 0.893694 0.304618 -0.114514
C28   C     C_R   0.594431 0.893547 0.695497 -0.085602
H21   H     H_    0.911624 0.422957 0.361469 0.151789
H22   H     H_    0.087675 0.423041 0.638764 0.143826
H23   H     H_    0.412326 0.923043 0.361236 0.143825
H24   H     H_    0.588377 0.922956 0.638531 0.151790
N25   N     N_R   0.927500 0.426330 0.211360 -0.055116
N26   N     N_R   0.072500 0.426330 0.788640 -0.053359
N27   N     N_R   0.427500 0.926330 0.211360 -0.053359
N28   N     N_R   0.572500 0.926330 0.788640 -0.055118
C29   C     C_R   0.834163 0.583666 0.942931 -0.124895
C30   C     C_R   0.133870 0.603267 0.104059 -0.120446
C31   C     C_R   0.366136 0.103271 0.895935 -0.120548
C32   C     C_R   0.665840 0.083665 0.057065 -0.124895
H25   H     H_    0.813813 0.550682 0.902985 0.143153
H26   H     H_    0.134665 0.578731 0.168282 0.137458
H27   H     H_    0.365347 0.078739 0.831705 0.137470
H28   H     H_    0.686191 0.050680 0.097008 0.143154
N29   N     N_R   0.903470 0.570760 0.936440 -0.050465
N30   N     N_R   0.096530 0.570760 0.063560 -0.049018
N31   N     N_R   0.403470 0.070760 0.936440 -0.049019
N32   N     N_R   0.596530 0.070760 0.063560 -0.050465
C33   C     C_R   0.796476 0.649976 0.005428 0.136413
C34   C     C_R   0.153915 0.679385 0.067805 0.138954
C35   C     C_R   0.346089 0.179387 0.932195 0.138987
C36   C     C_R   0.703528 0.149974 0.994565 0.136411
C37   C     C_R   0.890603 0.314699 0.302009 0.084019
C38   C     C_R   0.109236 0.314891 0.697354 0.101924
C39   C     C_R   0.390766 0.814891 0.302645 0.101927
C40   C     C_R   0.609397 0.814699 0.697990 0.084015
C41   C     C_R   0.847963 0.310896 0.932317 0.130121
C42   C     C_R   0.209894 0.345489 0.979570 0.087813
C43   C     C_R   0.290089 0.845500 0.020465 0.087769
C44   C     C_R   0.652040 0.810898 0.067678 0.130124
C45   C     C_R   0.814014 0.643087 0.326827 0.104751
C46   C     C_R   0.188958 0.640306 0.674634 0.104449
C47   C     C_R   0.311042 0.140305 0.325366 0.104448
C48   C     C_R   0.685985 0.143088 0.673173 0.104748
Ni1   Ni    Ni4+2 0.000000 0.630300 0.000000 0.227151
Ni2   Ni    Ni4+2 0.500000 0.130300 0.000000 0.227150
Ni3   Ni    Ni4+2 0.000000 0.369700 0.000000 0.238436
Ni4   Ni    Ni4+2 0.500000 0.869700 0.000000 0.238438
Ni5   Ni    Ni4+2 0.988090 0.497570 0.863760 0.223438
Ni6   Ni    Ni4+2 0.011910 0.497570 0.136240 0.246672
Ni7   Ni    Ni4+2 0.488090 0.997570 0.863760 0.246690
Ni8   Ni    Ni4+2 0.511910 0.997570 0.136240 0.223436
C49   C     C_R   0.713237 0.640212 0.529065 0.128583
C50   C     C_R   0.287517 0.639461 0.471752 0.132548
C51   C     C_R   0.212484 0.139460 0.528248 0.132543
C52   C     C_R   0.786762 0.140213 0.470935 0.128579
C53   C     C_R   0.735889 0.668556 0.429191 0.000684
C54   C     C_R   0.266498 0.666182 0.571649 -0.003631
C55   C     C_R   0.233502 0.166181 0.428351 -0.003626
C56   C     C_R   0.764111 0.168557 0.570809 0.000684
C57   C     C_R   0.183413 0.224942 0.430722 -0.293879
C58   C     C_R   0.814878 0.226626 0.568671 -0.297600
C59   C     C_R   0.685122 0.726624 0.431328 -0.297597
C60   C     C_R   0.316587 0.724944 0.569279 -0.293870
H29   H     H_    0.191219 0.241131 0.356822 0.179144
H30   H     H_    0.806065 0.243387 0.643072 0.172045
H31   H     H_    0.693935 0.743385 0.356927 0.172045
H32   H     H_    0.308780 0.741134 0.643179 0.179154
C61   C     C_R   0.128311 0.268185 0.527022 0.363538
C62   C     C_R   0.872310 0.268216 0.471370 0.356551
C63   C     C_R   0.627692 0.768215 0.528628 0.356539
C64   C     C_R   0.371690 0.768187 0.472977 0.363531
C65   C     C_R   0.126785 0.253552 0.619304 -0.153623
C66   C     C_R   0.874112 0.253156 0.379015 -0.144438
C67   C     C_R   0.625888 0.753155 0.620984 -0.144434
C68   C     C_R   0.373217 0.753553 0.380695 -0.153623
C69   C     C_R   0.658359 0.681522 0.624316 0.062815
C70   C     C_R   0.340869 0.681981 0.377100 0.065182
C71   C     C_R   0.159133 0.181981 0.622899 0.065179
C72   C     C_R   0.841641 0.181522 0.375683 0.062809
C73   C     C_3   0.706597 0.658638 0.667342 0.185067
C74   C     C_3   0.291349 0.660108 0.335636 0.182004
C75   C     C_3   0.208653 0.160109 0.664363 0.182006
C76   C     C_3   0.793402 0.158638 0.332658 0.185071
C77   C     C_3   0.766664 0.614008 0.562232 -0.595792
C78   C     C_3   0.232743 0.614311 0.440078 -0.596198
C79   C     C_3   0.267259 0.114312 0.559921 -0.596189
C80   C     C_3   0.733335 0.114008 0.437768 -0.595787
H33   H     H_    0.737805 0.707723 0.677734 0.077740
H34   H     H_    0.259406 0.709687 0.327423 0.071288
H35   H     H_    0.240597 0.209690 0.672575 0.071289
H36   H     H_    0.762194 0.207723 0.322267 0.077742
H37   H     H_    0.831336 0.639667 0.510626 0.186682
H38   H     H_    0.167999 0.639712 0.493509 0.186357
H39   H     H_    0.332003 0.139714 0.506489 0.186356
H40   H     H_    0.668664 0.139667 0.489374 0.186683
H41   H     H_    0.764592 0.549793 0.573219 0.237571
H42   H     H_    0.234870 0.550270 0.427652 0.237615
H43   H     H_    0.265132 0.050272 0.572347 0.237615
H44   H     H_    0.735406 0.049793 0.426782 0.237571
C81   C     C_2   0.775315 0.189016 0.975355 -0.168241
C82   C     C_2   0.304856 0.235073 0.907906 -0.165754
C83   C     C_2   0.195144 0.735070 0.092105 -0.165758
C84   C     C_2   0.724691 0.689020 0.024634 -0.168240
H45   H     H_    0.792883 0.171573 0.026963 0.176259
H46   H     H_    0.280249 0.212962 0.866067 0.159910
H47   H     H_    0.219772 0.712947 0.133913 0.159925
H48   H     H_    0.707126 0.671578 0.973023 0.176259
C85   C     C_2   0.216646 0.805238 0.044344 -0.182687
C86   C     C_2   0.693315 0.752477 0.087999 -0.165355
C87   C     C_2   0.806691 0.252474 0.911993 -0.165350
C88   C     C_2   0.283328 0.305227 0.955709 -0.182683
H49   H     H_    0.189922 0.828043 0.005555 0.132619
H50   H     H_    0.710125 0.767096 0.141310 0.131300
H51   H     H_    0.789879 0.267094 0.858683 0.131299
H52   H     H_    0.310026 0.328020 0.994536 0.132607
N33   N     N_R   0.077539 0.327699 0.528264 0.240175
O1    O     O_R   0.108749 0.373118 0.443924 -0.362067
O2    O     O_R   0.997511 0.331678 0.610084 -0.401209
N34   N     N_R   0.923671 0.327547 0.469752 0.243159
O3    O     O_R   0.892512 0.373251 0.553805 -0.376403
O4    O     O_R   0.002535 0.334983 0.384725 -0.364169
N35   N     N_R   0.576331 0.827546 0.530246 0.243156
O5    O     O_R   0.607491 0.873250 0.446193 -0.376405
O6    O     O_R   0.497467 0.834981 0.615271 -0.364105
N36   N     N_R   0.422462 0.827703 0.471736 0.240175
O7    O     O_R   0.391251 0.873121 0.556077 -0.362033
O8    O     O_R   0.502490 0.831682 0.389917 -0.401209
N37   N     N_R   0.657806 0.607201 0.762941 0.260157
O9    O     O_R   0.609470 0.552781 0.768885 -0.357175
O10   O     O_R   0.665003 0.614016 0.841444 -0.427290
N38   N     N_R   0.339254 0.609761 0.238736 0.257221
O11   O     O_R   0.388612 0.555188 0.229936 -0.357541
O12   O     O_R   0.330417 0.617852 0.161809 -0.423665
N39   N     N_R   0.160749 0.109763 0.761262 0.257221
O13   O     O_R   0.111389 0.055190 0.770065 -0.357541
O14   O     O_R   0.169591 0.117852 0.838186 -0.423672
N40   N     N_R   0.842192 0.107200 0.237059 0.260156
O15   O     O_R   0.890528 0.052780 0.231115 -0.357182
O16   O     O_R   0.834995 0.114016 0.158556 -0.427291
N41   N     N_3   0.862868 0.422611 0.814476 -0.205023
H53   H     H_    0.923651 0.442286 0.751455 0.162309
H54   H     H_    0.846199 0.381367 0.780694 0.177564
N42   N     N_3   0.190487 0.443910 0.114582 -0.202356
H55   H     H_    0.191790 0.400723 0.161610 0.160319
H56   H     H_    0.251866 0.465989 0.060056 0.132688
N43   N     N_3   0.309471 0.943940 0.885487 -0.202305
H57   H     H_    0.307989 0.900753 0.838615 0.160194
H58   H     H_    0.248161 0.966139 0.940054 0.132683
N44   N     N_3   0.637134 0.922612 0.185522 -0.205023
H59   H     H_    0.576352 0.942286 0.248542 0.162311
H60   H     H_    0.653802 0.881367 0.219303 0.177565

loop_
_geom_bond_atom_site_label_1
_geom_bond_atom_site_label_2
_geom_bond_distance
_ccdc_geom_bond_type
C22   H18   1.078803 S    
C31   H27   1.079707 S    
C80   H40   1.112333 S    
C7    H7    1.077588 S    
C61   C65   1.418878 A    
N36   O7    1.301130 A    
C30   C34   1.381065 A    
C2    C34   1.371819 A    
N19   Ni4   1.853866 S    
C26   N26   1.340595 A    
C51   C71   1.377630 A    
C70   C74   1.506078 S    
C25   N25   1.338588 A    
C52   C72   1.376376 A    
C3    N3    1.322057 A    
C47   C55   1.454080 S    
N13   Ni6   1.895730 S    
C72   C76   1.507136 S    
C9    C41   1.389455 A    
C27   N27   1.340595 A    
C76   N40   1.464853 S    
N33   O1    1.301129 A    
C84   C86   1.336231 D    
N7    Ni4   1.857853 S    
N10   N18   1.367360 A    
N40   O16   1.300216 A    
C1    H1    1.076649 S    
C56   C58   1.403784 A    
C68   C70   1.402983 A    
C53   C59   1.403782 A    
C3    H3    1.079133 S    
C60   C64   1.403699 A    
C32   C36   1.380337 A    
C15   H11   1.074717 S    
N4    Ni2   1.852608 S    
N44   H60   1.042477 S    
C55   C57   1.401434 A    
C16   C48   1.374419 A    
C58   H30   1.082797 S    
C42   C88   1.445805 S    
C20   C44   1.372970 A    
C43   C85   1.445847 S    
C29   C33   1.380337 A    
N34   O3    1.301100 A    
N2    Ni1   1.852608 S    
C50   C54   1.398374 A    
N11   Ni7   1.871915 S    
C50   C78   1.497973 S    
C49   C53   1.396007 A    
N13   N21   1.367256 A    
C16   H12   1.074770 S    
N9    Ni5   1.871915 S    
N14   Ni5   1.895716 S    
C23   N23   1.341795 A    
C4    C36   1.378502 A    
C75   N39   1.465059 S    
C64   C68   1.418881 A    
N8    N28   1.393199 A    
C88   H52   1.081864 S    
C33   C84   1.434608 S    
N34   O4    1.301290 A    
N42   H55   1.045381 S    
N37   O10   1.300216 A    
C14   N14   1.323366 A    
C26   H22   1.077033 S    
N6    Ni3   1.857854 S    
C25   H21   1.076641 S    
C85   H49   1.081868 S    
C4    N4    1.322288 A    
C75   H35   1.113243 S    
C86   H50   1.082869 S    
C73   N37   1.464852 S    
C24   C48   1.389096 A    
C16   N16   1.323348 A    
C4    H4    1.076647 S    
C83   C85   1.338327 D    
C73   H33   1.113085 S    
C49   C77   1.496313 S    
N17   Ni3   1.853866 S    
C7    N7    1.325727 A    
C65   C71   1.402983 A    
C17   N17   1.318751 A    
N39   O13   1.302294 A    
C8    N8    1.322445 A    
C74   C78   1.509334 S    
N27   Ni8   1.814298 S    
N3    Ni2   1.852609 S    
C81   H45   1.082327 S    
C18   N18   1.325818 A    
C2    H2    1.079134 S    
N7    N27   1.393192 A    
C48   C56   1.452514 S    
C9    N41   1.432071 S    
C60   H32   1.082535 S    
C63   N35   1.430781 S    
N5    Ni3   1.857853 S    
C22   N22   1.341797 A    
C6    C38   1.375602 A    
C23   C47   1.393255 A    
N41   H54   1.042477 S    
C12   N44   1.432071 S    
C49   C69   1.376376 A    
C78   H42   1.112387 S    
N29   Ni5   1.836926 S    
C52   C80   1.496313 S    
C19   C43   1.379986 A    
N40   O15   1.302311 A    
C38   C65   1.468688 S    
C11   N11   1.340140 A    
C14   C46   1.376216 A    
C76   C80   1.509020 S    
C12   N12   1.341068 A    
C1    N1    1.322289 A    
N16   Ni7   1.895716 S    
N38   O12   1.300506 A    
N33   O2    1.298841 A    
N1    N29   1.393083 A    
N44   H59   1.044383 S    
C8    C40   1.374911 A    
C19   H15   1.077980 S    
C30   H26   1.079704 S    
C27   C39   1.389879 A    
C13   H9    1.074769 S    
C64   N36   1.427245 S    
C22   C46   1.393254 A    
N1    Ni1   1.852609 S    
C79   H39   1.112303 S    
C71   C75   1.506078 S    
C62   C66   1.418117 A    
C40   C67   1.465953 S    
N3    N31   1.393083 A    
N15   Ni8   1.895730 S    
C18   C42   1.379989 A    
C12   C44   1.389456 A    
N23   Ni2   1.858177 S    
N43   H57   1.045261 S    
C74   H34   1.113243 S    
N28   Ni7   1.814307 S    
C17   H13   1.079508 S    
C8    H8    1.077551 S    
C31   C35   1.381061 A    
C46   C54   1.454081 S    
C11   N43   1.426692 S    
C5    N5    1.322447 A    
C28   H24   1.076643 S    
N24   Ni2   1.858177 S    
N12   Ni8   1.871925 S    
C32   N32   1.336323 A    
N32   Ni8   1.836913 S    
N2    N30   1.393091 A    
C80   H44   1.112365 S    
C17   C41   1.372972 A    
C44   C86   1.443500 S    
N15   N23   1.367256 A    
N43   H58   1.045240 S    
C82   H46   1.083336 S    
C79   H43   1.112388 S    
C39   C68   1.468688 S    
N16   N24   1.367248 A    
N26   Ni5   1.814307 S    
C77   H41   1.112364 S    
C74   N38   1.465060 S    
N25   Ni6   1.814298 S    
C2    N2    1.322080 A    
C35   C82   1.446356 S    
C37   C66   1.465952 S    
C15   N15   1.323365 A    
C19   N19   1.325822 A    
N10   Ni6   1.871925 S    
C84   H48   1.082326 S    
C61   N33   1.427246 S    
C23   H19   1.078803 S    
C20   N20   1.318751 A    
N41   H53   1.044382 S    
N36   O8    1.298841 A    
C78   H38   1.112302 S    
C14   H10   1.074716 S    
C82   C88   1.338320 D    
C6    H6    1.077587 S    
N4    N32   1.393091 A    
C10   N42   1.426695 S    
C32   H28   1.076366 S    
C62   N34   1.430780 S    
N38   O11   1.302296 A    
C50   C70   1.377631 A    
N5    N25   1.393192 A    
C34   C83   1.446377 S    
C28   C40   1.391517 A    
C87   H51   1.082867 S    
C54   C60   1.401434 A    
C21   H17   1.074942 S    
C51   C55   1.398375 A    
C81   C87   1.336229 D    
C31   N31   1.343088 A    
C18   H14   1.077983 S    
C57   C61   1.403699 A    
C30   N30   1.343082 A    
C13   C45   1.374421 A    
C83   H47   1.083335 S    
C24   H20   1.074944 S    
C63   C67   1.418117 A    
C13   N13   1.323348 A    
C6    N6    1.325724 A    
C29   N29   1.336325 A    
N35   O5    1.301098 A    
C28   N28   1.338589 A    
N42   H56   1.045355 S    
C66   C72   1.403824 A    
C10   C42   1.391429 A    
C27   H23   1.077034 S    
C67   C69   1.403825 A    
C9    N9    1.341068 A    
N21   Ni1   1.858177 S    
N6    N26   1.393199 A    
N9    N17   1.367367 A    
C21   C45   1.389096 A    
C75   C79   1.509333 S    
C11   C43   1.391447 A    
C69   C73   1.507137 S    
N14   N22   1.367248 A    
N31   Ni7   1.836926 S    
N18   Ni3   1.853863 S    
N30   Ni6   1.836913 S    
N22   Ni1   1.858177 S    
C5    C37   1.374911 A    
C52   C56   1.396007 A    
C59   C63   1.404956 A    
C59   H31   1.082797 S    
N8    Ni4   1.857854 S    
N35   O6    1.301289 A    
C51   C79   1.497973 S    
C15   C47   1.376214 A    
C24   N24   1.343339 A    
C5    H5    1.077550 S    
C57   H29   1.082535 S    
C20   H16   1.079507 S    
C73   C77   1.509020 S    
C58   C62   1.404956 A    
C1    C33   1.378500 A    
N37   O9    1.302312 A    
C7    C39   1.375600 A    
C45   C53   1.452514 S    
N39   O14   1.300508 A    
C41   C87   1.443504 S    
N12   N20   1.367360 A    
C36   C81   1.434609 S    
C3    C35   1.371804 A    
C76   H36   1.113086 S    
N11   N19   1.367367 A    
C77   H37   1.112334 S    
N20   Ni4   1.853863 S    
C29   H25   1.076368 S    
C26   C38   1.389883 A    
C21   N21   1.343337 A    
C10   N10   1.340111 A    
C25   C37   1.391517 A    
