data_mof_unit_21674.cif
_audit_creation_date              2012-12-10T17:02:15-0500
_audit_creation_method            fapswitch 2.2
_symmetry_space_group_name_H-M    P1
_symmetry_Int_Tables_number       1
_space_group_crystal_system       triclinic
_cell_length_a                    10.698497
_cell_length_b                    10.717868
_cell_length_c                    9.998729
_cell_angle_alpha                 89.87476
_cell_angle_beta                  89.021485
_cell_angle_gamma                 90.085022
_cell_volume                      1146.33378605

loop_
_atom_site_label
_atom_site_type_symbol
_atom_type_description
_atom_site_fract_x
_atom_site_fract_y
_atom_site_fract_z
_atom_type_partial_charge
C1    C     C_R   0.494385 0.262661 0.500168 0.932385
C2    C     C_R   0.058310 0.513122 0.629890 -0.098821
C3    C     C_R   0.126528 0.527870 0.507706 -0.112731
C4    C     C_R   0.065047 0.532808 0.385700 -0.210970
C5    C     C_R   0.938549 0.514221 0.382458 -0.205293
C6    C     C_R   0.873992 0.481030 0.499711 -0.092620
C7    C     C_2   0.470840 0.932691 0.390401 -0.158572
C8    C     C_2   0.505652 0.869531 0.498798 -0.335876
C9    C     C_2   0.477649 0.066948 0.387690 -0.162785
C10   C     C_2   0.475032 0.131642 0.501486 -0.336966
C11   C     C_2   0.499528 0.600852 0.924813 -0.077991
C12   C     C_R   0.260230 0.512636 0.501996 0.897183
C13   C     C_2   0.492003 0.600458 0.074898 -0.164517
C14   C     C_R   0.500643 0.737509 0.499756 0.931558
C15   C     C_R   0.739998 0.489402 0.499410 0.872256
C16   C     C_R   0.104224 0.541777 0.759849 0.381182
C17   C     C_R   0.047119 0.486760 0.873358 0.475464
C18   C     C_R   0.938695 0.416253 0.859450 -0.324343
C19   C     C_R   0.883583 0.405813 0.735075 -0.236915
C20   C     C_R   0.937577 0.464714 0.621352 0.057694
H1    H     H_    0.114757 0.550381 0.292339 0.194407
H2    H     H_    0.455750 0.089317 0.598276 0.153529
H3    H     H_    0.501181 0.690855 0.875309 0.155374
H4    H     H_    0.493423 0.415996 0.898160 0.144215
H5    H     H_    0.479088 0.689583 0.124208 0.163668
H6    H     H_    0.520029 0.417698 0.102095 0.160400
H7    H     H_    0.894255 0.373651 0.946332 0.173920
H8    H     H_    0.798986 0.350857 0.728752 0.184539
H9    H     H_    0.891644 0.526017 0.288067 0.187706
H10   H     H_    0.441254 0.885545 0.300129 0.160718
H11   H     H_    0.541322 0.913384 0.587984 0.143311
H12   H     H_    0.487464 0.112104 0.290669 0.174009
N1    N     N_2   0.501340 0.501330 0.852150 -0.188339
N2    N     N_2   0.501380 0.501360 0.147810 -0.207094
O1    O     O_R   0.499980 0.319060 0.613040 -0.635173
O2    O     O_R   0.500020 0.319100 0.386900 -0.626085
O3    O     O_R   0.316750 0.499980 0.613090 -0.568013
O4    O     O_R   0.316790 0.500020 0.386950 -0.634826
O5    O     O_R   0.499980 0.680900 0.613100 -0.622339
O6    O     O_R   0.500020 0.680940 0.386960 -0.615417
O7    O     O_R   0.683210 0.499980 0.613050 -0.612010
O8    O     O_R   0.683250 0.500020 0.386910 -0.611377
Zn1   Zn    Zn3+2 0.499970 0.499970 0.650990 0.952853
Zn2   Zn    Zn3+2 0.500030 0.500030 0.349010 0.923398
O9    O     O_3   0.198927 0.627773 0.780508 -0.614205
C21   C     C_3   0.158297 0.747980 0.742537 0.114753
H13   H     H_    0.063024 0.768453 0.784134 0.131875
H14   H     H_    0.157295 0.756033 0.631612 0.132095
C22   C     C_3   0.248997 0.845104 0.796813 -0.325970
H15   H     H_    0.250267 0.838645 0.907772 0.223095
H16   H     H_    0.344697 0.825889 0.757646 0.228176
C23   C     C_3   0.211980 0.977174 0.756198 -0.982849
H17   H     H_    0.213612 0.986508 0.645487 0.272534
H18   H     H_    0.279244 0.045114 0.798075 0.263440
H19   H     H_    0.116912 0.999580 0.795491 0.268589
O10   O     O_3   0.090398 0.510718 0.000171 -0.646969
C24   C     C_3   0.195101 0.434391 0.025715 0.102321
H20   H     H_    0.251456 0.482665 0.101946 0.190099
H21   H     H_    0.257568 0.421413 0.936369 0.147350
C25   C     C_3   0.153951 0.307519 0.082430 -0.397663
H22   H     H_    0.089446 0.321892 0.169341 0.241790
H23   H     H_    0.103666 0.254215 0.004772 0.217798
C26   C     C_3   0.266030 0.231172 0.127195 -0.955312
H24   H     H_    0.331880 0.215497 0.041780 0.247895
H25   H     H_    0.233707 0.139227 0.165859 0.268260
H26   H     H_    0.315444 0.280533 0.208226 0.292202

loop_
_geom_bond_atom_site_label_1
_geom_bond_atom_site_label_2
_ccdc_geom_bond_type
C16   O9    S    
O3    Zn1   S    
O5    Zn1   S    
C26   H25   S    
O4    Zn2   S    
C4    H1    S    
C11   N1    D    
C2    C16   A    
C9    C10   D    
C15   O8    A    
C19   C20   A    
C21   C22   S    
C23   H19   S    
O6    Zn2   S    
C22   C23   S    
O1    Zn1   S    
C17   C18   A    
C14   O5    A    
C26   H26   S    
C7    C8    D    
C7    H10   S    
O9    C21   S    
C10   H2    S    
C19   H8    S    
O7    Zn1   S    
C17   O10   S    
C13   H5    S    
C24   H20   S    
C16   C17   A    
O8    Zn2   S    
C6    C20   A    
C25   C26   S    
C4    C5    A    
C11   H3    S    
C23   H18   S    
H4    N1    S    
C2    C3    A    
C5    H9    S    
C12   O4    A    
C5    C6    A    
C21   H14   S    
C24   H21   S    
C11   C13   S    
O2    Zn2   S    
C1    C10   S    
C14   O6    A    
C3    C4    A    
N1    Zn1   S    
C13   N2    D    
N2    Zn2   S    
O10   C24   S    
C15   O7    A    
C25   H23   S    
C22   H15   S    
C12   O3    A    
C7    C9    S    
C1    O1    A    
C21   H13   S    
C18   C19   A    
C24   C25   S    
C8    C14   S    
C3    C12   S    
C9    H12   S    
C6    C15   S    
C8    H11   S    
C2    C20   A    
H6    N2    S    
C18   H7    S    
C26   H24   S    
C1    O2    A    
C23   H17   S    
C25   H22   S    
C22   H16   S    
