data_mof_unit_24579.cif
_audit_creation_date              2013-03-05T15:42:19-0500
_audit_creation_method            fapswitch 2.2
_symmetry_space_group_name_H-M    P1
_symmetry_Int_Tables_number       1
_space_group_crystal_system       triclinic
_cell_length_a                    7.727173
_cell_length_b                    8.488211
_cell_length_c                    19.158245
_cell_angle_alpha                 90.696299
_cell_angle_beta                  85.995257
_cell_angle_gamma                 93.719732
_cell_volume                      1250.84124181

loop_
_atom_site_label
_atom_site_type_symbol
_atom_site_description
_atom_site_fract_x
_atom_site_fract_y
_atom_site_fract_z
_atom_type_partial_charge
O1    O     O_R   0.389250 0.738570 0.504600 -0.617359
O2    O     O_R   0.610750 0.261430 0.495400 -0.620663
O3    O     O_R   0.678400 0.711620 0.492580 -0.615202
O4    O     O_R   0.321600 0.288380 0.507420 -0.620190
C1    C     C_R   0.546032 0.793690 0.508601 0.957998
C2    C     C_R   0.455638 0.206833 0.512127 0.960777
O5    O     O_R   0.355380 0.513500 0.607880 -0.628084
O6    O     O_R   0.644620 0.486500 0.392120 -0.609177
O7    O     O_R   0.644530 0.486550 0.595850 -0.641266
O8    O     O_R   0.355470 0.513450 0.404150 -0.620561
C3    C     C_R   0.502975 0.502024 0.634535 0.863263
C4    C     C_R   0.497072 0.498151 0.365467 0.916062
Zn1   Zn    Zn3+2 0.306930 0.517990 0.508030 0.941281
Zn2   Zn    Zn3+2 0.693070 0.482010 0.491970 0.943494
C5    C     C_R   0.365681 0.553244 0.752039 -0.140752
C6    C     C_R   0.635228 0.449242 0.247859 -0.135004
H1    H     H_    0.244840 0.575718 0.729629 0.186878
H2    H     H_    0.756134 0.427036 0.270275 0.189258
C7    C     C_R   0.373666 0.563916 0.823804 -0.128714
C8    C     C_R   0.627740 0.439641 0.176054 -0.126703
H3    H     H_    0.257492 0.590305 0.855613 0.225285
H4    H     H_    0.744242 0.414145 0.144258 0.225393
C9    C     C_R   0.526980 0.533104 0.854538 -0.064542
C10   C     C_R   0.474431 0.470237 0.145284 -0.065232
C11   C     C_R   0.677529 0.498390 0.812520 0.342266
C12   C     C_R   0.323448 0.503807 0.187274 0.343473
C13   C     C_R   0.667235 0.486545 0.740244 -0.261029
C14   C     C_R   0.333181 0.514436 0.259618 -0.254359
H5    H     H_    0.781773 0.459220 0.707606 0.190832
H6    H     H_    0.218270 0.540756 0.292242 0.193242
C15   C     C_R   0.511464 0.512232 0.710028 -0.102737
C16   C     C_R   0.488904 0.488844 0.289905 -0.122005
N1    N     N_R   0.594065 0.401346 0.960351 -0.091054
N2    N     N_R   0.407599 0.602345 0.039493 -0.090924
N3    N     N_R   0.577389 0.383508 0.029208 -0.129175
N4    N     N_R   0.424282 0.620186 0.970630 -0.129529
C17   C     C_R   0.482555 0.482886 0.069691 0.358311
C18   C     C_R   0.519109 0.520790 0.930145 0.358342
C19   C     C_2   0.572057 0.955592 0.530245 -0.040259
C20   C     C_2   0.433068 0.046486 0.535828 -0.031395
N5    N     N_2   0.950330 0.457950 0.481240 -0.169836
N6    N     N_2   0.049670 0.542050 0.518760 -0.171643
H7    H     H_    0.013912 0.381908 0.447632 0.195945
H8    H     H_    0.986102 0.618079 0.552388 0.188791
N7    N     N_R   0.841161 0.479056 0.841909 0.202455
O9    O     O_R   0.951632 0.386231 0.811583 -0.404541
O10   O     O_R   0.889903 0.569098 0.893363 -0.369480
N8    N     N_R   0.159939 0.523132 0.157786 0.202399
O11   O     O_R   0.049016 0.615354 0.188239 -0.401403
O12   O     O_R   0.111794 0.433655 0.106057 -0.368916
C21   C     C_3   0.756675 0.015258 0.543676 -0.850207
H9    H     H_    0.822409 0.923471 0.570868 0.228070
H10   H     H_    0.832355 0.043287 0.493442 0.253119
H11   H     H_    0.758463 0.119730 0.579180 0.261638
C22   C     C_3   0.251215 0.987945 0.563441 -0.857944
H12   H     H_    0.188473 0.081849 0.595052 0.245780
H13   H     H_    0.169763 0.955543 0.519282 0.252941
H14   H     H_    0.254600 0.886591 0.599370 0.252591

loop_
_geom_bond_atom_site_label_1
_geom_bond_atom_site_label_2
_geom_bond_distance
_ccdc_geom_bond_type
C7    C9    1.399976 A    
O7    Zn2   1.999659 S    
C5    C15   1.398349 A    
C11   C13   1.394541 A    
N2    C17   1.354855 A    
N5    H7    1.029283 S    
N5    N6    1.268476 D    
C12   C14   1.394779 A    
N1    C18   1.354818 A    
C12   N8    1.439179 S    
O6    C4    1.291354 A    
C21   H11   1.110987 S    
C20   C22   1.520969 S    
C22   H12   1.111099 S    
C14   H6    1.083432 S    
C10   C17   1.450184 S    
C3    C15   1.453649 S    
C6    H2    1.083352 S    
N7    O9    1.301506 A    
C4    C16   1.454374 S    
C5    C7    1.382193 A    
N8    O12   1.301515 A    
O7    C3    1.290749 A    
N1    N3    1.326026 A    
O2    C2    1.277471 A    
O3    Zn2   1.959446 S    
N6    H8    1.029390 S    
Zn2   N5    2.007551 S    
O1    C1    1.277118 A    
O8    C4    1.290802 A    
C14   C16   1.402248 A    
N4    C18   1.354713 A    
C6    C8    1.382106 A    
C7    H3    1.083402 S    
C10   C12   1.412778 A    
Zn1   N6    2.007552 S    
O5    C3    1.291499 A    
N2    N4    1.326138 A    
C22   H13   1.110751 S    
O2    Zn2   1.938344 S    
C2    C20   1.436048 S    
C22   H14   1.111064 S    
O1    Zn1   1.938343 S    
C21   H10   1.110716 S    
C13   C15   1.402110 A    
C21   H9    1.111110 S    
C9    C18   1.450288 S    
C11   N7    1.439202 S    
O5    Zn1   1.976017 S    
C9    C11   1.412823 A    
C13   H5    1.083475 S    
O4    C2    1.291353 A    
N7    O10   1.301517 A    
C19   C20   1.360008 D    
C5    H1    1.083389 S    
C1    C19   1.436279 S    
C6    C16   1.398496 A    
N8    O11   1.301506 A    
O6    Zn2   1.976019 S    
N3    C17   1.354621 A    
C19   C21   1.520584 S    
C8    C10   1.399826 A    
O4    Zn1   1.959446 S    
C8    H4    1.083421 S    
O3    C1    1.291930 A    
O8    Zn1   1.999663 S    
