data_mof_unit_9752.cif
_audit_creation_date              2012-12-10T16:41:54-0500
_audit_creation_method            fapswitch 2.2
_symmetry_space_group_name_H-M    P1
_symmetry_Int_Tables_number       1
_space_group_crystal_system       triclinic
_cell_length_a                    10.902408
_cell_length_b                    8.683734
_cell_length_c                    7.51715
_cell_angle_alpha                 102.854358
_cell_angle_beta                  95.890773
_cell_angle_gamma                 93.909293
_cell_volume                      687.130433618

loop_
_atom_site_label
_atom_site_type_symbol
_atom_type_description
_atom_site_fract_x
_atom_site_fract_y
_atom_site_fract_z
_atom_type_partial_charge
C1    C     C_R   0.498428 0.199987 0.453222 0.865865
C2    C     C_2   0.524852 0.968871 0.570363 -0.382209
C3    C     C_R   0.265206 0.504787 0.499933 0.861197
C4    C     C_R   0.510158 0.800321 0.546401 0.859593
C5    C     C_R   0.734609 0.504078 0.501605 0.859532
C6    C     C_2   0.925162 0.556806 0.381830 -0.310050
C7    C     C_2   0.866739 0.502771 0.505562 -0.364114
C8    C     C_2   0.052157 0.515811 0.353498 0.496028
C9    C     C_2   0.135116 0.532775 0.504479 -0.405615
C10   C     C_2   0.498859 0.031863 0.426685 -0.366272
Cu1   Cu    Cu3+1 0.513740 0.517380 0.684380 0.992704
Cu2   Cu    Cu3+1 0.486260 0.482620 0.315620 0.978024
H1    H     H_    0.874037 0.610743 0.283489 0.154252
H2    H     H_    0.915129 0.448459 0.605073 0.150567
H3    H     H_    0.473680 0.959246 0.288152 0.177093
N1    N     N_2   0.465540 0.456420 0.038510 0.070145
N2    N     N_2   0.534460 0.543580 0.961490 -0.148833
O1    O     O_R   0.508930 0.286130 0.619780 -0.537646
O2    O     O_R   0.485720 0.256780 0.308360 -0.647634
O3    O     O_R   0.333540 0.514670 0.655670 -0.527290
O4    O     O_R   0.310330 0.485320 0.344250 -0.533654
O5    O     O_R   0.514280 0.743220 0.691640 -0.595809
O6    O     O_R   0.491070 0.713870 0.380220 -0.591249
O7    O     O_R   0.689670 0.514680 0.655750 -0.601385
O8    O     O_R   0.666460 0.485330 0.344330 -0.608946
O9    O     O_3   0.085925 0.457584 0.177924 -0.546559
C11   C     C_3   0.981369 0.405897 0.043400 0.079739
H4    H     H_    0.943559 0.509517 0.000291 0.146772
H5    H     H_    0.907733 0.336452 0.093183 0.152399
C12   C     C_3   0.018540 0.295853 0.876456 -0.817394
H6    H     H_    0.053586 0.190760 0.917807 0.253971
H7    H     H_    0.936658 0.254247 0.771808 0.194598
H8    H     H_    0.090205 0.359277 0.817599 0.269831
H9    H     H_    0.107838 0.577572 0.640185 0.130013
H10   H     H_    0.551310 0.041759 0.708442 0.172247
O10   O     O_3   0.371398 0.369481 0.919880 -0.435210
C13   C     C_3   0.350302 0.221784 0.964096 0.252890
H11   H     H_    0.298971 0.235947 0.085943 0.180262
H12   H     H_    0.438885 0.168572 0.987071 0.135097
C14   C     C_3   0.271420 0.105120 0.804250 -0.897676
H13   H     H_    0.329772 0.032136 0.715275 0.239209
H14   H     H_    0.210596 0.022157 0.857122 0.208428
H15   H     H_    0.215015 0.167144 0.716266 0.264699
H16   H     H_    0.603682 0.616648 0.050094 0.172391

loop_
_geom_bond_atom_site_label_1
_geom_bond_atom_site_label_2
_ccdc_geom_bond_type
C2    H10   S    
C8    C9    D    
C2    C4    S    
Cu1   Cu2   S    
Cu1   O1    S    
C6    C7    D    
C3    C9    S    
C11   H5    S    
C4    O5    A    
Cu1   O5    S    
Cu2   O8    S    
C14   H14   S    
C1    O1    A    
N2    H16   S    
C3    O3    A    
C13   H12   S    
N1    O10   S    
C11   C12   S    
C12   H7    S    
Cu2   O6    S    
O9    C11   S    
C13   H11   S    
C5    O7    A    
C5    O8    A    
Cu2   O2    S    
C14   H13   S    
C13   C14   S    
C10   H3    S    
C7    H2    S    
C9    H9    S    
Cu1   O3    S    
C1    O2    A    
C3    O4    A    
C2    C10   D    
Cu1   O7    S    
C8    O9    S    
C11   H4    S    
C5    C7    S    
C4    O6    A    
C12   H6    S    
O10   C13   S    
C6    C8    S    
C12   H8    S    
Cu2   O4    S    
C14   H15   S    
Cu1   N2    S    
C1    C10   S    
Cu2   N1    S    
N1    N2    D    
C6    H1    S    
