data_mof_unit_42615.cif
_audit_creation_date              2013-03-05T16:18:33-0500
_audit_creation_method            fapswitch 2.2
_symmetry_space_group_name_H-M    P1
_symmetry_Int_Tables_number       1
_space_group_crystal_system       triclinic
_cell_length_a                    8.288775
_cell_length_b                    18.97241
_cell_length_c                    22.90323
_cell_angle_alpha                 99.245822
_cell_angle_beta                  90.698276
_cell_angle_gamma                 91.779208
_cell_volume                      3552.67141581

loop_
_atom_site_label
_atom_site_type_symbol
_atom_site_description
_atom_site_fract_x
_atom_site_fract_y
_atom_site_fract_z
_atom_type_partial_charge
P1    P     P_3+3 0.935930 0.665430 0.555670 0.518975
O1    O     O_2   0.110690 0.676100 0.539200 -0.335417
O2    O     O_3   0.863220 0.586720 0.534720 -0.391868
O3    O     O_3   0.368310 0.629070 0.432760 -0.353885
O4    O     O_2   0.278265 0.750529 0.490753 -0.375611
O5    O     O_3   0.934925 0.682416 0.632873 -0.533031
O6    O     O_3   0.277824 0.755654 0.382572 -0.593967
H1    H     H_    0.273854 0.766358 0.295598 0.081314
C1    C     C_3   0.456807 0.835409 0.337567 0.075580
H2    H     H_    0.377885 0.876780 0.361075 0.045617
H3    H     H_    0.569804 0.831447 0.362809 0.078012
P2    P     P_3+3 0.382700 0.439650 0.365620 0.542223
P3    P     P_3+3 0.941311 0.588718 0.324936 0.441789
O7    O     O_2   0.210480 0.460990 0.358130 -0.348853
O8    O     O_3   0.959520 0.592090 0.401630 -0.352075
O9    O     O_2   0.073049 0.537984 0.299491 -0.409011
O10   O     O_3   0.374244 0.346460 0.346550 -0.505550
O11   O     O_3   0.013778 0.669935 0.306239 -0.602940
C2    C     C_3   0.891899 0.720043 0.305437 0.930425
H4    H     H_    0.791128 0.711897 0.336074 -0.080624
C3    C     C_3   0.820880 0.713082 0.242431 0.185922
H5    H     H_    0.915993 0.693948 0.210255 0.105539
C4    C     C_3   0.825004 0.373474 0.342594 0.398661
H6    H     H_    0.705529 0.391242 0.358736 0.082913
H7    H     H_    0.916415 0.417713 0.353681 0.127330
C5    C     C_3   0.816328 0.351548 0.275773 -0.865524
H8    H     H_    0.715027 0.312087 0.263285 0.282417
H9    H     H_    0.797336 0.398540 0.254105 0.181213
H10   H     H_    0.931150 0.327359 0.259662 0.280767
Ba1   Ba    Ba6+2 0.157800 0.534120 0.474430 1.628477
C6    C     C_3   0.004322 0.627433 0.656825 0.230181
H11   H     H_    0.119821 0.613389 0.635323 0.079825
H12   H     H_    0.920916 0.579824 0.650698 0.106738
C7    C     C_3   0.036217 0.654376 0.722721 -0.071338
H13   H     H_    0.111411 0.704653 0.727701 0.195187
H14   H     H_    0.105143 0.615569 0.743221 0.075714
C8    C     C_3   0.317758 0.314931 0.393630 0.253155
H15   H     H_    0.193129 0.331490 0.403409 0.073612
H16   H     H_    0.396983 0.330370 0.433342 0.089580
C9    C     C_3   0.319406 0.233697 0.376000 -0.134906
H17   H     H_    0.298954 0.207863 0.415548 0.061623
H18   H     H_    0.439762 0.217660 0.358614 0.132166
P4    P     P_3+3 0.874370 0.334570 0.444280 0.495044
O12   O     O_2   0.699610 0.323860 0.460780 -0.389958
O13   O     O_3   0.947090 0.413280 0.465240 -0.368130
O14   O     O_3   0.442000 0.370930 0.567190 -0.334244
O15   O     O_3   0.868150 0.313914 0.367112 -0.540885
P5    P     P_3+3 0.849209 0.413506 0.676038 0.552507
O16   O     O_3   0.359410 0.538600 0.570730 -0.348348
O17   O     O_3   0.850780 0.407910 0.598320 -0.261282
O18   O     O_2   0.685057 0.444726 0.695464 -0.379392
O19   O     O_3   0.822340 0.324933 0.688740 -0.555043
Ba2   Ba    Ba6+2 0.652390 0.465870 0.525520 1.675023
P6    P     P_3+3 0.387140 0.723556 0.438819 0.456960
C10   C     C_3   0.365464 0.763521 0.331161 0.875117
O20   O     O_3   0.450900 0.461390 0.429220 -0.398575
C11   C     C_3   0.504310 0.685281 0.623609 0.373758
H19   H     H_    0.606030 0.654080 0.603144 0.088079
H20   H     H_    0.416078 0.691635 0.588169 0.134603
C12   C     C_3   0.573284 0.758296 0.651942 -0.675262
H21   H     H_    0.678397 0.751755 0.680774 0.282180
H22   H     H_    0.612645 0.789377 0.617245 0.199788
H23   H     H_    0.481628 0.788605 0.679588 0.288488
P7    P     P_3+3 0.418055 0.560190 0.645472 0.502604
O21   O     O_2   0.599830 0.538970 0.641850 -0.336852
O22   O     O_3   0.426128 0.653004 0.667193 -0.550967
H24   H     H_    0.718655 0.673457 0.238204 0.114050
C13   C     C_3   0.958445 0.298688 0.715162 1.027745
H25   H     H_    0.063604 0.336566 0.719646 0.019580
C14   C     C_3   0.919001 0.286703 0.777999 -0.963553
H26   H     H_    0.816246 0.248006 0.778129 0.243393
H27   H     H_    0.025478 0.265540 0.798472 0.278126
H28   H     H_    0.886745 0.337784 0.805422 0.220893
P8    P     P_3+3 0.431678 0.278925 0.565845 0.546527
C15   C     C_3   0.415718 0.298357 0.679686 0.507582
H29   H     H_    0.293928 0.272548 0.673678 0.118292
O23   O     O_2   0.560858 0.248601 0.521971 -0.377991
O24   O     O_3   0.515307 0.267377 0.634209 -0.460297
H30   H     H_    0.409489 0.356880 0.680472 0.099284
H31   H     H_    0.382856 0.282189 0.770209 0.258913
C16   C     C_3   0.482938 0.285817 0.739246 -0.846991
H32   H     H_    0.567529 0.330311 0.758290 0.249972
H33   H     H_    0.546591 0.234797 0.734857 0.279089
C17   C     C_R   0.989779 0.952519 0.531226 0.031946
C18   C     C_R   0.088198 0.900043 0.547820 -0.254131
C19   C     C_R   0.176556 0.052635 0.573829 0.185269
C20   C     C_R   0.042383 0.025585 0.537585 -0.123941
C21   C     C_R   0.248880 0.119049 0.568990 0.230628
C22   C     C_R   0.169769 0.167668 0.537613 -0.224516
C23   C     C_R   0.018483 0.144731 0.508383 -0.021976
C24   C     C_R   0.955725 0.073317 0.508524 0.004693
C25   C     C_R   0.228831 0.239149 0.536495 0.229065
C26   C     C_R   0.134295 0.284969 0.508333 -0.363919
C27   C     C_R   0.985116 0.264808 0.480402 0.212819
C28   C     C_R   0.929743 0.192361 0.478399 0.027405
C29   C     C_R   0.834247 0.931018 0.508700 0.049842
C30   C     C_R   0.778479 0.858495 0.507085 -0.011191
C31   C     C_R   0.875471 0.809080 0.531224 -0.236985
C32   C     C_R   0.022643 0.835572 0.558915 0.450603
H34   H     H_    0.181551 0.337913 0.506292 0.184557
C33   C     C_R   0.789016 0.165446 0.446574 0.010099
C34   C     C_R   0.725740 0.096872 0.448888 -0.163562
C35   C     C_R   0.803764 0.050275 0.481262 0.107970
C36   C     C_R   0.736829 0.980784 0.486168 0.084518
C37   C     C_R   0.574980 0.959338 0.470841 -0.158933
C38   C     C_R   0.624686 0.836075 0.482571 0.014411
C39   C     C_R   0.519048 0.888864 0.471067 -0.201486
C40   C     C_R   0.583455 0.761845 0.470478 0.177744
C41   C     C_R   0.686093 0.713028 0.490158 -0.472054
C42   C     C_R   0.826224 0.735180 0.523167 0.227637
H35   H     H_    0.724582 0.197196 0.419485 0.146959
H36   H     H_    0.393687 0.875473 0.459792 0.145930
H37   H     H_    0.650812 0.656864 0.482951 0.168241
H38   H     H_    0.214672 0.910107 0.557688 0.200830
H39   H     H_    0.616397 0.080562 0.423524 0.103857
H40   H     H_    0.488703 0.996561 0.459303 0.132087
H41   H     H_    0.339932 0.306191 0.925361 0.195463
C43   C     C_R   0.637654 0.524751 0.332327 -0.609650
C44   C     C_R   0.352355 0.551561 0.950250 -0.056277
C45   C     C_R   0.303802 0.550823 0.890914 0.545170
O25   O     O_2   0.289415 0.607140 0.872149 -0.551290
N1    N     N_R   0.270860 0.486771 0.854024 -0.168245
C46   C     C_R   0.283916 0.422680 0.874928 0.553576
O26   O     O_2   0.247158 0.366752 0.842694 -0.634383
C47   C     C_R   0.339405 0.421390 0.933239 -0.101334
C48   C     C_R   0.372400 0.486252 0.971254 -0.011331
C49   C     C_R   0.381470 0.616080 0.988990 -0.094149
C50   C     C_R   0.428931 0.615944 0.047502 -0.137604
C51   C     C_R   0.451733 0.551288 0.068765 -0.015870
C52   C     C_R   0.425347 0.485994 0.030468 -0.077622
C53   C     C_R   0.362718 0.356732 0.954229 -0.274929
C54   C     C_R   0.416981 0.355740 0.012423 0.638169
C55   C     C_R   0.451796 0.420797 0.051129 -0.288068
C56   C     C_R   0.510478 0.422959 0.110006 0.603846
N2    N     N_R   0.528816 0.487444 0.147965 -0.154030
C57   C     C_R   0.499499 0.550926 0.127721 0.527407
C58   C     C_2   0.069694 0.469581 0.774130 -0.267322
C59   C     C_3   0.020371 0.475505 0.711303 0.047064
C60   C     C_1   0.301733 0.510144 0.694442 0.085408
C61   C     C_2   0.344966 0.508770 0.750205 -0.229305
C62   C     C_2   0.223795 0.487040 0.792920 0.167529
C63   C     C_R   0.723808 0.528286 0.231459 0.462615
C64   C     C_R   0.749410 0.546540 0.293143 0.065860
C65   C     C_R   0.504009 0.480966 0.311657 0.154118
C66   C     C_R   0.474576 0.462304 0.250074 0.428709
C67   C     C_R   0.578824 0.490023 0.209477 -0.180428
O27   O     O_2   0.545325 0.367816 0.127590 -0.500980
O28   O     O_2   0.515457 0.607560 0.161276 -0.646846
C68   C     C_2   0.166692 0.476841 0.672027 0.007252
H42   H     H_    0.448906 0.666918 0.076013 0.150619
H43   H     H_    0.366609 0.667024 0.974293 0.178201
H44   H     H_    0.467768 0.523576 0.765350 0.201690
H45   H     H_    0.979138 0.457295 0.805095 0.152335
H46   H     H_    0.661380 0.537613 0.379474 0.211313
N3    N     N_R   0.884773 0.667171 0.753892 0.277673
O29   O     O_R   0.784696 0.614148 0.758260 -0.379925
O30   O     O_R   0.853453 0.731012 0.780490 -0.310430
N4    N     N_R   0.195031 0.208723 0.331126 0.281668
O31   O     O_R   0.204298 0.226417 0.278661 -0.315761
O32   O     O_R   0.078552 0.165628 0.342382 -0.397575
O33   O     O_3   0.470819 0.707218 0.314174 -0.696635
C69   C     C_3   0.380532 0.646335 0.287556 -0.093303
H47   H     H_    0.301983 0.656646 0.250286 0.152449
H48   H     H_    0.310542 0.623093 0.321038 0.222187
H49   H     H_    0.465319 0.606787 0.268405 0.136593
O34   O     O_3   0.492829 0.852230 0.281260 -0.585176
C70   C     C_3   0.577162 0.918917 0.288293 -0.007717
H50   H     H_    0.694625 0.916977 0.311965 0.141969
H51   H     H_    0.503394 0.962329 0.311802 0.093019
H52   H     H_    0.603455 0.932143 0.243869 0.153985
O35   O     O_3   0.010457 0.234102 0.681311 -0.683325
C71   C     C_3   0.880961 0.189620 0.654643 0.105150
H53   H     H_    0.782620 0.183054 0.685937 0.144166
H54   H     H_    0.926708 0.135724 0.639107 0.137468
H55   H     H_    0.833084 0.210389 0.615408 0.175383
O36   O     O_3   0.966494 0.789012 0.319644 -0.607899
C72   C     C_3   0.953517 0.815868 0.380275 -0.143987
H56   H     H_    0.974422 0.774570 0.408782 0.162298
H57   H     H_    0.833785 0.839021 0.388496 0.102646
H58   H     H_    0.045538 0.859622 0.392611 0.157934
N5    N     N_R   0.401623 0.135236 0.598229 0.263134
O37   O     O_R   0.531428 0.119352 0.568279 -0.392103
O38   O     O_R   0.409619 0.140587 0.655563 -0.351201
N6    N     N_R   0.085670 0.809809 0.609504 0.267475
O39   O     O_R   0.001761 0.819591 0.657607 -0.324152
O40   O     O_R   0.240501 0.803324 0.614476 -0.396683
N7    N     N_R   0.226105 0.018154 0.622457 0.262539
O41   O     O_R   0.121241 0.005008 0.661481 -0.317685
O42   O     O_R   0.373794 0.997785 0.626908 -0.309069
O43   O     O_3   0.441628 0.290597 0.030267 -0.580610
C73   C     C_3   0.291401 0.262043 0.045219 -0.052093
H59   H     H_    0.209890 0.248824 0.005759 0.101965
H60   H     H_    0.232078 0.299024 0.080642 0.120007
H61   H     H_    0.312195 0.211696 0.062560 0.183961
O44   O     O_3   0.835706 0.553810 0.194491 -0.619401
C74   C     C_3   0.884916 0.499544 0.149211 -0.172731
H62   H     H_    0.812849 0.499930 0.108210 0.142674
H63   H     H_    0.880445 0.445266 0.161922 0.121553
H64   H     H_    0.011290 0.511966 0.138139 0.138140
O45   O     O_3   0.356028 0.410599 0.230431 -0.549741
C75   C     C_3   0.225070 0.440187 0.204084 -0.031703
H65   H     H_    0.212524 0.415030 0.157051 0.088068
H66   H     H_    0.233710 0.499364 0.206275 0.094636
H67   H     H_    0.113054 0.426088 0.226079 0.169620
O46   O     O_3   0.767227 0.779730 0.231417 -0.566549
C76   C     C_3   0.690986 0.771204 0.175204 0.005626
H68   H     H_    0.570350 0.744315 0.176396 0.175419
H69   H     H_    0.765835 0.741574 0.139919 0.096673
H70   H     H_    0.671957 0.824884 0.163521 0.140050
N8    N     N_R   0.171401 0.427301 0.618734 0.235804
O47   O     O_R   0.150735 0.360195 0.622129 -0.523421
O48   O     O_R   0.132812 0.448812 0.569631 -0.344337

loop_
_geom_bond_atom_site_label_1
_geom_bond_atom_site_label_2
_geom_bond_distance
_ccdc_geom_bond_type
O35   C71   1.414045 S    
C26   C27   1.399008 A    
C31   C42   1.430375 A    
C55   C56   1.421853 A    
C20   C24   1.414735 A    
N3    O30   1.300704 A    
C39   H36   1.080243 S    
C63   C67   1.427681 A    
C37   H40   1.080134 S    
C2    H4    1.120281 S    
C17   C20   1.424434 A    
O6    C10   1.416709 S    
C11   O22   1.406756 S    
C15   H29   1.105456 S    
C50   C51   1.407741 A    
C66   C67   1.426980 A    
C21   N5    1.426444 S    
N2    C57   1.385471 Am   
C70   H51   1.113083 S    
C7    N3    1.459259 S    
C40   C41   1.399447 A    
C56   O27   1.221262 D    
C37   C39   1.402317 A    
C5    H8    1.110694 S    
C33   C34   1.396759 A    
C47   C48   1.405791 A    
P3    O11   1.754800 S    
C12   H23   1.109318 S    
C9    N4    1.459781 S    
C1    O34   1.410612 S    
C2    C3    1.536097 S    
O11   C2    1.410478 S    
C8    C9    1.529695 S    
C43   C65   1.394634 A    
C71   H53   1.109181 S    
C7    H13   1.112531 S    
C13   O35   1.422718 S    
C76   H69   1.114410 S    
C11   H20   1.109371 S    
C38   C39   1.404563 A    
C48   C52   1.421135 A    
P8    C25   1.891811 S    
C51   C57   1.403636 A    
N5    O37   1.300252 A    
P4    C27   1.920321 S    
N6    O39   1.301122 A    
C12   H22   1.109323 S    
P1    O1    1.516973 D    
C17   C29   1.406430 A    
C4    C5    1.520289 S    
C3    O46   1.412441 S    
C2    O36   1.417178 S    
P1    Ba1   3.453817 S    
C34   H39   1.080099 S    
Ba1   O13   2.817468 S    
C46   C47   1.411360 A    
C49   H43   1.083314 S    
O12   Ba2   2.899436 S    
P4    Ba2   3.454205 S    
P5    O18   1.542788 D    
C45   N1    1.381673 Am   
O45   C75   1.410055 S    
C72   H57   1.103796 S    
P8    O23   1.538149 D    
P2    O10   1.750719 S    
C63   O44   1.390904 S    
C6    H12   1.109791 S    
C43   H46   1.082319 S    
C14   H26   1.107418 S    
C1    C10   1.524411 S    
Ba2   O21   2.844348 S    
C1    H2    1.112916 S    
C61   H44   1.085190 S    
O19   C13   1.414900 S    
C71   H55   1.111323 S    
C41   H37   1.082191 S    
P2    Ba1   3.432699 S    
C72   H58   1.109403 S    
C9    H18   1.111728 S    
O5    C6    1.390476 S    
O13   Ba2   2.942664 S    
C19   N7    1.441094 S    
O16   P7    1.753988 S    
C3    H5    1.114598 S    
C3    H24   1.107945 S    
N4    O32   1.300715 A    
C75   H66   1.115793 S    
C34   C35   1.408576 A    
O7    Ba1   2.844135 S    
C74   H64   1.107897 S    
H1    C10   1.115544 S    
C36   C37   1.413231 A    
C16   H33   1.107783 S    
C71   H54   1.107435 S    
C30   C31   1.425997 A    
C70   H52   1.108919 S    
C69   H48   1.105745 S    
N5    O38   1.301409 A    
C59   C68   1.520786 S    
Ba1   Ba2   4.533402 S    
O17   Ba2   2.707028 S    
C4    O15   1.394362 S    
C19   C21   1.399615 A    
C73   H59   1.112600 S    
O4    P6    1.533075 D    
C46   O26   1.219212 D    
C61   C62   1.504536 S    
C10   O33   1.409851 S    
C66   O45   1.384851 S    
C74   H63   1.113905 S    
C43   C64   1.396436 A    
C44   C45   1.410391 A    
C70   H50   1.113104 S    
C76   H68   1.111006 S    
C13   H25   1.105414 S    
C11   C12   1.523100 S    
O46   C76   1.410668 S    
Ba1   O20   2.947663 S    
C60   C68   1.324199 D    
C16   H32   1.109940 S    
P2    C65   1.856258 S    
C12   H21   1.108864 S    
P1    O2    1.590682 S    
P7    O22   1.750181 S    
O2    Ba1   2.941977 S    
P4    O12   1.517277 D    
C73   H60   1.113789 S    
O43   C73   1.410464 S    
C8    H15   1.104167 S    
C18   C32   1.384886 A    
P1    C42   1.872689 S    
C69   H49   1.088012 S    
C1    H3    1.105556 S    
C47   C53   1.405441 A    
C6    H11   1.102363 S    
C4    H6    1.104813 S    
N2    C67   1.456482 S    
C29   C30   1.432459 A    
C14   H28   1.108935 S    
C6    C7    1.530681 S    
C58   H45   1.084387 S    
O10   C8    1.393531 S    
C17   C18   1.402009 A    
C22   C25   1.431694 A    
P4    O13   1.590743 S    
C26   H34   1.075038 S    
C32   N6    1.427380 S    
C57   O28   1.219010 D    
C72   H56   1.113680 S    
C30   C38   1.411842 A    
C50   H42   1.083318 S    
C9    H17   1.109355 S    
Ba1   O16   2.739615 S    
P2    O7    1.511067 D    
N8    O47   1.294191 A    
P4    O15   1.747532 S    
N8    O48   1.296318 A    
C29   C36   1.415487 A    
O34   C70   1.411455 S    
C75   H67   1.107557 S    
H31   C16   1.105569 S    
C52   C55   1.415779 A    
O1    Ba1   2.899050 S    
C23   C24   1.436670 A    
C49   C50   1.392481 A    
C54   O43   1.382823 S    
O14   P8    1.740295 S    
C45   O25   1.222605 D    
O8    Ba1   2.706571 S    
C69   H47   1.113034 S    
Ba2   O20   2.739020 S    
C58   C62   1.356828 D    
O36   C72   1.406846 S    
P1    O5    1.745811 S    
O3    P6    1.777446 S    
C19   C20   1.412249 A    
C15   C16   1.523757 S    
C24   C35   1.423516 A    
C74   H62   1.107937 S    
C53   C54   1.404637 A    
C23   C28   1.434442 A    
C60   C61   1.326764 D    
C56   N2    1.385325 Am   
P5    C59   1.900503 S    
C33   H35   1.079377 S    
C58   C59   1.513550 S    
C5    H9    1.102241 S    
C68   N8    1.417577 S    
O6    P6    1.763320 S    
C75   H65   1.108129 S    
P6    C40   1.851992 S    
C65   C66   1.414202 A    
P7    O21   1.571326 D    
P3    O8    1.751902 S    
C51   C52   1.407516 A    
C73   H61   1.109197 S    
N7    O41   1.301393 A    
C8    H16   1.110022 S    
O33   C69   1.405296 S    
C41   C42   1.394097 A    
O2    Ba2   2.818193 S    
C76   H70   1.109138 S    
C11   H19   1.110153 S    
N4    O31   1.301045 A    
C38   C40   1.421033 A    
O16   Ba2   2.946825 S    
O14   Ba2   2.755778 S    
P5    O17   1.766286 S    
C25   C26   1.412754 A    
P2    O20   1.543985 S    
N6    O40   1.298410 A    
C54   C55   1.418678 A    
C7    H14   1.104352 S    
P3    C64   1.845569 S    
C27   C28   1.429005 A    
H41   C53   1.083643 S    
C15   O24   1.402177 S    
N7    O42   1.302797 A    
C18   H38   1.074447 S    
O44   C74   1.412494 S    
C44   C48   1.413034 A    
P5    O19   1.758839 S    
C4    H7    1.109212 S    
C35   C36   1.436081 A    
C21   C22   1.427023 A    
C5    H10   1.110777 S    
C13   C14   1.530292 S    
C31   C32   1.408391 A    
P8    O24   1.753086 S    
P3    O9    1.535897 D    
N3    O29   1.301001 A    
N1    C46   1.383291 Am   
C63   C64   1.411312 A    
C14   H27   1.110142 S    
N1    C62   1.449097 S    
C22   C23   1.435986 A    
C15   H30   1.110401 S    
O3    Ba1   2.756526 S    
C28   C33   1.405469 A    
P7    C60   1.844128 S    
C44   C49   1.404040 A    
