data_mof_unit_59046.cif
_audit_creation_date              2012-10-26T19:22:36-0400
_audit_creation_method            fapswitch 2.2
_symmetry_space_group_name_H-M    P1
_symmetry_Int_Tables_number       1
_space_group_crystal_system       triclinic
_cell_length_a                    11.798947
_cell_length_b                    13.070624
_cell_length_c                    13.925375
_cell_angle_alpha                 86.157665
_cell_angle_beta                  90.148913
_cell_angle_gamma                 97.513725
_cell_volume                      2124.2987973

loop_
_atom_site_label
_atom_site_type_symbol
_atom_type_description
_atom_site_fract_x
_atom_site_fract_y
_atom_site_fract_z
_atom_type_partial_charge
C1    C     C_R   0.480466 0.300503 0.493962 0.568866
C2    C     C_R   0.848953 0.461678 0.545201 0.082968
C3    C     C_R   0.028877 0.531115 0.462107 -0.100462
C4    C     C_R   0.970993 0.465886 0.536940 -0.093376
C5    C     C_R   0.517413 0.501908 0.681306 0.552092
C6    C     C_R   0.482460 0.499565 0.318557 0.551908
C7    C     C_1   0.472994 0.499469 0.216602 -0.010238
C8    C     C_1   0.525283 0.504686 0.783090 -0.037825
C9    C     C_2   0.448970 0.497273 0.027297 0.288660
C10   C     C_2   0.544295 0.509723 0.972405 0.294332
C11   C     C_1   0.532064 0.506850 0.868874 -0.026457
C12   C     C_R   0.519059 0.699537 0.505591 0.562183
C13   C     C_1   0.462757 0.498872 0.130879 -0.010143
C14   C     C_R   0.524951 0.811105 0.518399 -0.009293
C15   C     C_R   0.472137 0.188764 0.481024 -0.006481
C16   C     C_R   0.363202 0.028275 0.436519 -0.015152
C17   C     C_R   0.625699 0.971574 0.568877 -0.015573
C18   C     C_R   0.371526 0.135740 0.443588 0.224298
C19   C     C_R   0.622046 0.864131 0.561262 0.228617
C20   C     C_R   0.565355 0.134338 0.503138 -0.051636
C21   C     C_R   0.429890 0.863923 0.495473 -0.060632
C22   C     C_3   0.743227 0.537950 0.951076 -0.004176
C23   C     C_R   0.547249 0.026322 0.516822 -0.058137
C24   C     C_3   0.854261 0.557626 0.005535 -0.374681
C25   C     C_3   0.250036 0.464430 0.049377 -0.021896
C26   C     C_3   0.137927 0.444278 0.995478 -0.383578
C27   C     C_1   0.314141 0.812520 0.511094 0.250093
C28   C     C_1   0.681839 0.184225 0.489366 0.241546
C29   C     C_3   0.812573 0.845443 0.595764 -0.007560
C30   C     C_3   0.885351 0.758252 0.613378 -0.360675
C31   C     C_3   0.190941 0.180082 0.452102 0.002714
C32   C     C_3   0.106408 0.243623 0.401529 -0.355294
C33   C     C_1   0.276303 0.979019 0.374655 0.238418
C34   C     C_R   0.445860 0.972176 0.482092 -0.063856
C35   C     C_1   0.688359 0.020794 0.646360 0.212276
C36   C     C_1   0.785541 0.394398 0.618340 0.360116
C37   C     C_1   0.215557 0.609057 0.385548 0.363498
C38   C     C_3   0.794117 0.733909 0.339487 0.005564
C39   C     C_3   0.701631 0.777729 0.279304 -0.360828
C40   C     C_3   0.223607 0.381146 0.745501 0.013616
C41   C     C_3   0.295561 0.308955 0.801291 -0.369384
C42   C     C_3   0.984138 0.238526 0.662430 -0.001131
C43   C     C_3   0.971010 0.177199 0.759509 -0.345962
C44   C     C_3   0.009044 0.592620 0.236042 -0.011628
C45   C     C_R   0.036714 0.406297 0.600046 0.214397
C46   C     C_3   0.063096 0.664366 0.153224 -0.366454
C47   C     C_R   0.962480 0.585418 0.395481 0.220825
C48   C     C_R   0.157968 0.418748 0.591276 0.397160
C49   C     C_R   0.842741 0.580303 0.408447 0.400898
C50   C     C_R   0.151100 0.538303 0.455424 0.076539
Cu1   Cu    Cu3+1 0.615220 0.507680 0.492970 1.036288
Cu2   Cu    Cu3+1 0.384780 0.492320 0.507030 1.019078
H1    H     H_    0.737521 0.606357 0.899918 0.143592
H2    H     H_    0.128710 0.510073 0.942569 0.159842
H3    H     H_    0.841986 0.903503 0.647898 0.153363
H4    H     H_    0.828967 0.881179 0.521377 0.103946
H5    H     H_    0.856278 0.694372 0.567447 0.165721
H6    H     H_    0.976324 0.787057 0.596487 0.123326
H7    H     H_    0.878036 0.728026 0.689892 0.153972
H8    H     H_    0.208315 0.207973 0.524883 0.170450
H9    H     H_    0.150424 0.098265 0.460117 0.121385
H10   H     H_    0.084007 0.213624 0.330217 0.162050
H11   H     H_    0.027240 0.238733 0.445364 0.102703
H12   H     H_    0.745241 0.467322 0.910904 0.151925
H13   H     H_    0.144585 0.325802 0.390813 0.167378
H14   H     H_    0.877799 0.767392 0.307416 0.180102
H15   H     H_    0.788640 0.759284 0.413358 0.142009
H16   H     H_    0.708277 0.757479 0.203493 0.164856
H17   H     H_    0.615629 0.745622 0.307851 0.170213
H18   H     H_    0.711999 0.863239 0.281308 0.097460
H19   H     H_    0.137936 0.369879 0.779159 0.165283
H20   H     H_    0.259801 0.462820 0.753971 0.168428
H21   H     H_    0.382197 0.315174 0.768954 0.172123
H22   H     H_    0.303622 0.328228 0.877425 0.154134
H23   H     H_    0.864142 0.490236 0.056357 0.155454
H24   H     H_    0.254850 0.227653 0.798938 0.135246
H25   H     H_    0.063082 0.220487 0.628156 0.133111
H26   H     H_    0.910838 0.211537 0.616787 0.180901
H27   H     H_    0.892594 0.192897 0.796711 0.200527
H28   H     H_    0.965391 0.093217 0.749033 0.115337
H29   H     H_    0.045575 0.198994 0.805836 0.130058
H30   H     H_    0.919169 0.565082 0.216735 0.168216
H31   H     H_    0.057379 0.524969 0.245859 0.112399
H32   H     H_    0.152009 0.695753 0.170860 0.194384
H33   H     H_    0.065457 0.621675 0.087398 0.084314
H34   H     H_    0.927196 0.570081 0.954018 0.094137
H35   H     H_    0.012801 0.729820 0.138847 0.158121
H36   H     H_    0.853831 0.627734 0.046260 0.163246
H37   H     H_    0.246470 0.532599 0.092558 0.142615
H38   H     H_    0.258479 0.394632 0.097988 0.143220
H39   H     H_    0.135102 0.372211 0.957303 0.142634
H40   H     H_    0.065415 0.434762 0.047331 0.093927
N1    N     N_R   0.788370 0.519230 0.482390 -0.282196
N2    N     N_R   0.211630 0.480770 0.517610 -0.277974
N3    N     N_1   0.221436 0.773394 0.525583 -0.304750
N4    N     N_1   0.774691 0.223090 0.475579 -0.345834
N5    N     N_1   0.207031 0.939895 0.325144 -0.272826
N6    N     N_1   0.736271 0.060124 0.709367 -0.331848
N7    N     N_1   0.735205 0.340033 0.677129 -0.280165
N8    N     N_1   0.267641 0.666211 0.329898 -0.291378
O1    O     O_R   0.581500 0.354430 0.495010 -0.505906
O2    O     O_3   0.341847 0.484083 0.982742 -0.600544
O3    O     O_3   0.696120 0.805930 0.612470 -0.541817
O4    O     O_3   0.292786 0.191533 0.397188 -0.542822
O5    O     O_3   0.777346 0.624986 0.338558 -0.518429
O6    O     O_3   0.222430 0.357014 0.647839 -0.544338
O7    O     O_3   0.984470 0.344724 0.676599 -0.588044
O8    O     O_3   0.013977 0.648119 0.319766 -0.564890
O9    O     O_R   0.418500 0.645570 0.504990 -0.507517
O10   O     O_R   0.386890 0.341450 0.506880 -0.442819
O11   O     O_R   0.613110 0.658550 0.493120 -0.466614
O12   O     O_R   0.611060 0.507430 0.631070 -0.499595
O13   O     O_R   0.388940 0.492570 0.368930 -0.515928
O14   O     O_R   0.416450 0.494450 0.642940 -0.482901
O15   O     O_R   0.583550 0.505550 0.357060 -0.441348
O16   O     O_3   0.651042 0.523883 0.017310 -0.576070

loop_
_geom_bond_atom_site_label_1
_geom_bond_atom_site_label_2
_ccdc_geom_bond_type
C15   C18   A    
Cu1   O12   S    
C40   H19   S    
C5    O14   A    
C39   H16   S    
C31   H9    S    
C27   N3    T    
C44   H31   S    
C47   C49   A    
Cu2   O13   S    
C25   H38   S    
C17   C23   A    
C48   N2    A    
C14   C21   A    
C26   H40   S    
C44   H30   S    
C38   C39   S    
C16   C33   S    
C25   O2    S    
C43   H27   S    
C30   H5    S    
C29   O3    S    
C9    C13   S    
C16   C34   A    
C41   H22   S    
C19   O3    S    
C48   O6    S    
C38   H14   S    
C9    O2    S    
Cu2   N2    S    
C1    C15   S    
C35   N6    T    
C9    C10   D    
C46   H33   S    
C22   O16   S    
C21   C27   S    
C26   H2    S    
C12   O9    A    
C3    C50   A    
C44   C46   S    
C22   H1    S    
C4    C45   A    
C44   O8    S    
C15   C20   A    
Cu1   Cu2   S    
C50   N2    A    
C49   O5    S    
C21   C34   A    
C29   H3    S    
C26   H39   S    
C41   H21   S    
Cu1   O15   S    
C31   H8    S    
C2    C4    A    
C6    O13   A    
C29   C30   S    
C1    O10   A    
C31   C32   S    
C20   C23   A    
Cu2   O10   S    
C23   C34   A    
C30   H7    S    
C39   H17   S    
C18   O4    S    
C24   H36   S    
Cu1   N1    S    
C46   H32   S    
C40   C41   S    
C5    O12   A    
C12   C14   S    
C42   H26   S    
C43   H29   S    
C22   C24   S    
C42   C43   S    
C17   C19   A    
C3    C4    A    
C1    O1    A    
C10   O16   S    
C40   O6    S    
C46   H35   S    
C42   O7    S    
C45   C48   A    
C2    C36   S    
Cu1   O11   S    
C40   H20   S    
C14   C19   A    
C2    N1    A    
C32   H11   S    
C5    C8    S    
C24   H23   S    
C6    C7    S    
C29   H4    S    
Cu2   O14   S    
Cu1   O1    S    
C20   C28   S    
C25   H37   S    
C28   N4    T    
C31   O4    S    
C38   O5    S    
C25   C26   S    
C32   H10   S    
C41   H24   S    
C37   C50   S    
Cu2   O9    S    
C8    C11   T    
C30   H6    S    
C3    C47   A    
C43   H28   S    
C39   H18   S    
C36   N7    T    
C33   N5    T    
C37   N8    T    
C6    O15   A    
C10   C11   S    
C22   H12   S    
C7    C13   T    
C38   H15   S    
C42   H25   S    
C16   C18   A    
C47   O8    S    
C17   C35   S    
C49   N1    A    
C24   H34   S    
C12   O11   A    
C45   O7    S    
C32   H13   S    
