data_mof_unit_56813.cif
_audit_creation_date              2012-12-10T20:28:42-0500
_audit_creation_method            fapswitch 2.2
_symmetry_space_group_name_H-M    P1
_symmetry_Int_Tables_number       1
_space_group_crystal_system       triclinic
_cell_length_a                    10.68205
_cell_length_b                    10.587581
_cell_length_c                    9.895093
_cell_angle_alpha                 89.082347
_cell_angle_beta                  88.975463
_cell_angle_gamma                 91.560419
_cell_volume                      1118.35970097

loop_
_atom_site_label
_atom_site_type_symbol
_atom_type_description
_atom_site_fract_x
_atom_site_fract_y
_atom_site_fract_z
_atom_type_partial_charge
Br1   Br    Br    0.147765 0.137719 0.420403 -0.569160
Br2   Br    Br    0.687498 0.697246 0.828934 -0.521717
Br3   Br    Br    0.804611 0.155382 0.910817 -0.545068
C1    C     C_R   0.499995 0.260568 0.500781 0.873834
C2    C     C_R   0.618932 0.938321 0.495199 -0.185489
C3    C     C_R   0.504557 0.870994 0.495186 -0.098043
C4    C     C_R   0.259995 0.491818 0.502052 0.898524
C5    C     C_R   0.392667 0.932647 0.483431 -0.020297
C6    C     C_3   0.269508 0.921948 0.559674 0.332609
C7    C     C_3   0.265791 0.067538 0.547554 -0.018453
C8    C     C_R   0.428491 0.413294 0.073748 0.162725
C9    C     C_R   0.565174 0.590597 0.069891 0.173920
C10   C     C_R   0.569773 0.587063 0.925595 0.259014
C11   C     C_R   0.428401 0.413587 0.931212 0.119062
C12   C     C_R   0.057904 0.406543 0.605438 0.109284
C13   C     C_3   0.444033 0.274225 0.927774 -0.495545
C14   C     C_3   0.441883 0.273445 0.080884 -0.431530
C15   C     C_R   0.502223 0.739347 0.498927 0.930449
C16   C     C_R   0.739052 0.492777 0.498880 0.867020
C17   C     C_R   0.113342 0.339817 0.713933 -0.297353
C18   C     C_R   0.039733 0.268499 0.808173 0.206115
C19   C     C_R   0.910992 0.253568 0.788458 0.323979
C20   C     C_R   0.856254 0.315548 0.680931 -0.259211
C21   C     C_R   0.927111 0.398914 0.594469 0.072717
C22   C     C_3   0.378010 0.914822 0.786604 -0.761231
C23   C     C_R   0.126515 0.480127 0.505717 -0.051209
C24   C     C_3   0.580456 0.809856 0.133741 -0.674368
C25   C     C_3   0.106016 0.082562 0.935468 -0.688077
C26   C     C_3   0.049482 0.841979 0.538348 -0.714236
C27   C     C_R   0.066688 0.543738 0.401661 -0.175045
C28   C     C_R   0.939322 0.542817 0.398076 -0.206355
C29   C     C_R   0.870210 0.475066 0.496156 -0.066244
C30   C     C_R   0.391702 0.061314 0.479503 0.036550
C31   C     C_R   0.502472 0.128921 0.500223 -0.085898
C32   C     C_R   0.617838 0.069262 0.498536 -0.173657
H1    H     H_    0.118641 0.599895 0.325885 0.166160
H2    H     H_    0.705282 0.123190 0.503097 0.154237
H3    H     H_    0.707039 0.890006 0.497960 0.161996
H4    H     H_    0.192907 0.869333 0.750077 0.235212
H5    H     H_    0.361602 0.874229 0.889798 0.231217
H6    H     H_    0.382481 0.018829 0.793986 0.218912
H7    H     H_    0.469939 0.882077 0.751625 0.296227
H8    H     H_    0.728303 0.687007 0.117980 0.240013
H9    H     H_    0.591461 0.852512 0.031029 0.259959
H10   H     H_    0.629593 0.872609 0.205560 0.243689
H11   H     H_    0.479172 0.805075 0.161616 0.235335
H12   H     H_    0.267982 0.118787 0.644358 0.128834
H13   H     H_    0.168224 0.270192 0.964878 0.226322
H14   H     H_    0.056612 0.046067 0.028249 0.285308
H15   H     H_    0.206027 0.058648 0.942524 0.207224
H16   H     H_    0.065525 0.034688 0.846402 0.243712
H17   H     H_    0.179091 0.870484 0.378852 0.247805
H18   H     H_    0.982905 0.814578 0.458302 0.234002
H19   H     H_    0.019755 0.932887 0.581408 0.266999
H20   H     H_    0.044633 0.767019 0.618142 0.246767
H21   H     H_    0.362701 0.224542 0.883035 0.182492
H22   H     H_    0.535950 0.248299 0.883475 0.259034
H23   H     H_    0.357371 0.224505 0.126047 0.222040
H24   H     H_    0.532196 0.245153 0.124899 0.241409
H25   H     H_    0.212880 0.340363 0.728494 0.178821
H26   H     H_    0.757280 0.298001 0.667158 0.178964
H27   H     H_    0.894648 0.599649 0.321586 0.160568
N1    N     N_R   0.499160 0.499140 0.142800 -0.133471
N2    N     N_R   0.499160 0.499180 0.857150 -0.130341
N3    N     N_2   0.277754 0.872490 0.698957 -0.290045
N4    N     N_2   0.633542 0.685280 0.139867 -0.257483
N5    N     N_2   0.094213 0.218392 0.926919 -0.281368
N6    N     N_2   0.175605 0.853189 0.481850 -0.305314
O1    O     O_R   0.500020 0.316790 0.614690 -0.641396
O2    O     O_R   0.500000 0.316760 0.385350 -0.604864
O3    O     O_R   0.316770 0.500020 0.614690 -0.629242
O4    O     O_R   0.316760 0.499980 0.385350 -0.608626
O5    O     O_R   0.500000 0.683240 0.614650 -0.566272
O6    O     O_R   0.499980 0.683210 0.385310 -0.608936
O7    O     O_R   0.683240 0.500020 0.614650 -0.579323
O8    O     O_R   0.683230 0.499980 0.385310 -0.611103
Zn1   Zn    Zn3+2 0.500010 0.500020 0.653130 0.987195
Zn2   Zn    Zn3+2 0.499990 0.499980 0.346870 0.979718

loop_
_geom_bond_atom_site_label_1
_geom_bond_atom_site_label_2
_ccdc_geom_bond_type
O2    Zn2   S    
N2    Zn1   S    
O1    Zn1   S    
C1    O2    A    
C4    C23   S    
C16   O8    A    
C32   H2    S    
O8    Zn2   S    
C8    N1    A    
C22   H5    S    
C4    O3    A    
C2    C3    A    
C8    C11   A    
C26   H19   S    
C31   C32   A    
C21   C29   A    
Br2   C10   S    
O4    Zn2   S    
C25   H15   S    
C24   H9    S    
C13   C14   S    
C20   C21   A    
C17   H25   S    
C6    C7    S    
H17   N6    S    
C14   H23   S    
C5    C30   A    
C24   H10   S    
C15   O6    A    
C2    H3    S    
C18   N5    S    
H4    N3    S    
C28   H27   S    
C16   C29   S    
C1    O1    A    
C12   C17   A    
C3    C15   S    
C1    C31   S    
C25   N5    S    
C22   N3    S    
C22   H6    S    
C4    O4    A    
C9    N1    A    
C5    C6    S    
C12   C23   A    
C3    C5    A    
C26   H20   S    
C9    N4    S    
C13   H21   S    
C26   N6    S    
C25   H14   S    
C28   C29   A    
C11   N2    A    
C30   C31   A    
C17   C18   A    
O7    Zn1   S    
C14   H24   S    
C24   H11   S    
C12   C21   A    
C23   C27   A    
C15   O5    A    
C11   C13   S    
O3    Zn1   S    
C8    C14   S    
Br1   C7    S    
C22   H7    S    
C27   H1    S    
C16   O7    A    
C6    N6    S    
C24   N4    S    
C27   C28   A    
C10   N2    A    
C26   H18   S    
H8    N4    S    
C2    C32   A    
C25   H16   S    
C7    C30   S    
C13   H22   S    
H13   N5    S    
C6    N3    S    
C20   H26   S    
C9    C10   A    
O6    Zn2   S    
C7    H12   S    
O5    Zn1   S    
C19   C20   A    
Br3   C19   S    
C18   C19   A    
N1    Zn2   S    
