data_mof_unit_31826.cif
_audit_creation_date              2012-12-10T17:03:57-0500
_audit_creation_method            fapswitch 2.2
_symmetry_space_group_name_H-M    P1
_symmetry_Int_Tables_number       1
_space_group_crystal_system       triclinic
_cell_length_a                    9.906371
_cell_length_b                    11.035734
_cell_length_c                    15.772919
_cell_angle_alpha                 96.245163
_cell_angle_beta                  78.686314
_cell_angle_gamma                 111.306448
_cell_volume                      1573.9548738

loop_
_atom_site_label
_atom_site_type_symbol
_atom_type_description
_atom_site_fract_x
_atom_site_fract_y
_atom_site_fract_z
_atom_type_partial_charge
C1    C     C_R   0.556185 0.745282 0.506241 0.872048
C2    C     C_R   0.443815 0.254718 0.493759 0.872048
C3    C     C_R   0.325626 0.453244 0.078277 -0.213627
C4    C     C_R   0.674374 0.546756 0.921723 -0.213627
C5    C     C_R   0.219133 0.416612 0.025258 0.320894
C6    C     C_R   0.780866 0.583388 0.974742 0.320894
C7    C     C_2   0.587421 0.884902 0.509903 -0.316447
C8    C     C_2   0.412579 0.115098 0.490097 -0.316447
C9    C     C_2   0.485144 0.930461 0.497937 -0.112427
C10   C     C_2   0.514856 0.069539 0.502063 -0.112427
C11   C     C_2   0.925044 0.490479 0.491189 0.282915
C12   C     C_2   0.074956 0.509521 0.508811 0.282914
C13   C     C_R   0.411264 0.485947 0.662703 0.830876
C14   C     C_R   0.588736 0.514053 0.337296 0.830875
C15   C     C_R   0.356345 0.469327 0.755849 -0.100792
C16   C     C_R   0.643655 0.530672 0.244151 -0.100792
C17   C     C_R   0.160077 0.377218 0.874829 0.339082
C18   C     C_R   0.839922 0.622782 0.125171 0.339082
C19   C     C_R   0.208843 0.401953 0.786994 -0.167906
C20   C     C_R   0.791157 0.598047 0.213006 -0.167906
C21   C     C_R   0.456682 0.510632 0.812733 -0.192602
C22   C     C_R   0.543318 0.489368 0.187266 -0.192602
C23   C     C_R   0.414789 0.480460 0.900518 0.032332
C24   C     C_R   0.585211 0.519540 0.099482 0.032332
C25   C     C_R   0.261652 0.422687 0.934255 0.007208
C26   C     C_R   0.738347 0.577313 0.065745 0.007208
C27   C     C_R   0.522596 0.508258 0.955101 0.039081
C28   C     C_R   0.477404 0.491742 0.044899 0.039081
Cu1   Cu    Cu3+1 0.362980 0.479380 0.485080 1.012800
Cu2   Cu    Cu3+1 0.637020 0.520620 0.514920 1.012800
H1    H     H_    0.432112 0.431212 0.213245 0.165253
H2    H     H_    0.567888 0.568788 0.786755 0.165253
H3    H     H_    0.868470 0.635622 0.257753 0.193268
H4    H     H_    0.131530 0.364378 0.742247 0.193268
H5    H     H_    0.285303 0.454866 0.146815 0.177108
H6    H     H_    0.714697 0.545134 0.853185 0.177108
H7    H     H_    0.621770 0.135060 0.515057 0.205494
H8    H     H_    0.378230 0.864940 0.484943 0.205494
H9    H     H_    0.305680 0.049182 0.477403 0.162083
H10   H     H_    0.694320 0.950818 0.522597 0.162083
H11   H     H_    0.119530 0.385553 0.412504 0.225294
H12   H     H_    0.880470 0.614447 0.587495 0.225294
N1    N     N_2   0.842890 0.551600 0.537350 -0.297014
N2    N     N_2   0.157110 0.448400 0.462650 -0.297014
O1    O     O_R   0.426810 0.668300 0.492040 -0.540816
O2    O     O_R   0.573190 0.331700 0.507960 -0.540816
O3    O     O_R   0.658240 0.703130 0.517240 -0.577524
O4    O     O_R   0.341760 0.296870 0.482760 -0.577525
O5    O     O_R   0.319390 0.472820 0.610170 -0.535230
O6    O     O_R   0.680610 0.527180 0.389830 -0.535230
O7    O     O_R   0.550820 0.507640 0.635370 -0.585011
O8    O     O_R   0.449180 0.492360 0.364630 -0.585010
Br1   Br    Br    0.021880 0.380257 0.087666 -0.367286
Br2   Br    Br    0.978120 0.619742 0.912333 -0.367286
Br3   Br    Br    0.959055 0.261925 0.900530 -0.377208
Br4   Br    Br    0.040945 0.738075 0.099470 -0.377208
Br5   Br    Br    0.143277 0.628471 0.603388 -0.481844
Br6   Br    Br    0.856723 0.371529 0.396612 -0.481844

loop_
_geom_bond_atom_site_label_1
_geom_bond_atom_site_label_2
_ccdc_geom_bond_type
C5    C25   A    
C16   C22   A    
Cu2   O7    S    
C4    H6    S    
C14   O8    A    
C11   N1    D    
Cu1   Cu2   S    
C8    H9    S    
C23   C27   A    
C11   Br6   S    
C9    C10   S    
C17   Br3   S    
C18   C20   A    
C18   C26   A    
C18   Br4   S    
C16   C20   A    
C17   C25   A    
H11   N2    S    
C13   C15   S    
Cu2   O6    S    
C12   N2    D    
Cu1   O5    S    
C2    O2    A    
C15   C19   A    
C19   H4    S    
C1    O1    A    
C14   O6    A    
C6    Br2   S    
C10   H7    S    
C13   O5    A    
C20   H3    S    
C5    Br1   S    
C3    C28   A    
C17   C19   A    
C24   C26   A    
C22   C24   A    
C23   C25   A    
Cu1   N2    S    
C21   H2    S    
C14   C16   S    
Cu2   N1    S    
C22   H1    S    
C12   Br5   S    
Cu1   O4    S    
C3    H5    S    
Cu2   O3    S    
C15   C21   A    
C4    C27   A    
C4    C6    A    
H12   N1    S    
C27   C28   A    
C7    C9    D    
C6    C26   A    
C1    O3    A    
C1    C7    S    
C9    H8    S    
C2    O4    A    
C13   O7    A    
C7    H10   S    
C21   C23   A    
Cu2   O2    S    
C8    C10   D    
C2    C8    S    
C24   C28   A    
C11   C12   S    
Cu1   O1    S    
C3    C5    A    
Cu1   O8    S    
