data_mof_unit_32258.cif
_audit_creation_date              2012-12-10T18:16:12-0500
_audit_creation_method            fapswitch 2.2
_symmetry_space_group_name_H-M    P1
_symmetry_Int_Tables_number       1
_space_group_crystal_system       triclinic
_cell_length_a                    15.936122
_cell_length_b                    14.706639
_cell_length_c                    10.711569
_cell_angle_alpha                 91.851929
_cell_angle_beta                  89.932634
_cell_angle_gamma                 88.527314
_cell_volume                      2508.29098529

loop_
_atom_site_label
_atom_site_type_symbol
_atom_type_description
_atom_site_fract_x
_atom_site_fract_y
_atom_site_fract_z
_atom_type_partial_charge
C1    C     C_R   0.339944 0.501176 0.499007 0.814079
C2    C     C_3   0.499920 0.496506 0.123283 -0.002949
C3    C     C_3   0.048897 0.571208 0.602781 0.571927
C4    C     C_3   0.057017 0.403453 0.517264 0.576895
C5    C     C_3   0.956679 0.395337 0.510730 0.198521
C6    C     C_3   0.947724 0.563696 0.609286 0.200013
C7    C     C_1   0.749548 0.495442 0.498031 -0.184534
C8    C     C_3   0.082935 0.504857 0.493972 -0.006020
C9    C     C_3   0.917458 0.496422 0.495509 -0.049475
C10   C     C_3   0.946838 0.533614 0.365976 0.601286
C11   C     C_3   0.046487 0.537148 0.363879 0.502085
C12   C     C_1   0.824939 0.493854 0.496781 0.208163
C13   C     C_1   0.175482 0.506316 0.494097 0.196910
C14   C     C_R   0.500084 0.498674 0.259014 0.802703
C15   C     C_1   0.250718 0.504326 0.496201 -0.156076
C16   C     C_3   0.584981 0.052667 0.552115 0.082591
C17   C     C_3   0.579550 0.948203 0.572847 0.072503
C18   C     C_3   0.493485 0.049529 0.352278 0.163653
C19   C     C_3   0.516848 0.939369 0.351822 0.279787
C20   C     C_3   0.501934 0.091941 0.492731 -0.133272
C21   C     C_3   0.505492 0.907609 0.493733 -0.104598
C22   C     C_3   0.419965 0.949833 0.552834 0.652044
C23   C     C_3   0.426172 0.057784 0.573186 0.792973
C24   C     C_1   0.503402 0.804473 0.499819 0.233327
C25   C     C_1   0.501329 0.195351 0.498314 0.314161
C26   C     C_R   0.660064 0.498756 0.499540 0.813203
C27   C     C_R   0.499273 0.501217 0.741156 0.795502
C28   C     C_3   0.425870 0.533303 0.047636 -0.224851
C29   C     C_3   0.510135 0.412147 0.035849 -0.207368
C30   C     C_3   0.436864 0.450119 0.956807 0.017195
C31   C     C_3   0.499027 0.502669 0.877998 -0.101691
C32   C     C_3   0.488502 0.585418 0.968521 0.043289
C33   C     C_3   0.572312 0.465876 0.957328 0.014288
C34   C     C_3   0.562617 0.549736 0.047695 -0.218284
Cu1   Cu    Cu3+1 0.499910 0.589920 0.499840 0.993396
Cu2   Cu    Cu3+1 0.499910 0.410080 0.499840 0.998360
H1    H     H_    0.640895 0.918882 0.543940 0.090103
H2    H     H_    0.637467 0.059594 0.485575 0.064472
H3    H     H_    0.366586 0.560385 0.090809 0.124298
H4    H     H_    0.518094 0.341362 0.066988 0.166177
H5    H     H_    0.612473 0.591927 0.090236 0.133151
N1    N     N_1   0.501390 0.724970 0.502570 -0.164459
N2    N     N_1   0.501390 0.275030 0.502570 -0.165734
O1    O     O_R   0.379360 0.575970 0.499860 -0.577617
O2    O     O_R   0.379360 0.424030 0.499860 -0.548065
O3    O     O_R   0.499910 0.575920 0.316720 -0.569148
O4    O     O_R   0.499910 0.424080 0.316720 -0.584316
O5    O     O_R   0.620490 0.575900 0.499870 -0.572463
O6    O     O_R   0.620490 0.424100 0.499870 -0.575475
O7    O     O_R   0.499950 0.575950 0.683010 -0.573747
O8    O     O_R   0.499950 0.424050 0.683010 -0.584221
C35   C     C_R   0.364800 0.395086 0.908607 0.089844
C36   C     C_R   0.282732 0.432512 0.909638 -0.159650
C37   C     C_R   0.215160 0.379104 0.873421 -0.040457
C38   C     C_R   0.228987 0.288309 0.835124 -0.115473
C39   C     C_R   0.310480 0.251186 0.831475 -0.102618
C40   C     C_R   0.378401 0.304426 0.867163 -0.092957
H6    H     H_    0.270589 0.502601 0.939414 0.126530
H7    H     H_    0.151984 0.407874 0.876375 0.186845
H8    H     H_    0.176590 0.246500 0.808800 0.122631
H9    H     H_    0.320523 0.180748 0.802682 0.185850
H10   H     H_    0.441204 0.274675 0.864519 0.140432
O9    O     O_3   0.909509 0.620276 0.349896 -0.757943
H11   H     H_    0.924142 0.641356 0.265663 0.346154
O10   O     O_3   0.916547 0.476824 0.268382 -0.747331
H12   H     H_    0.932990 0.501995 0.187264 0.342884
O11   O     O_3   0.407394 0.057065 0.320301 -0.633236
H13   H     H_    0.390852 0.122686 0.317403 0.353681
O12   O     O_3   0.456321 0.892661 0.280025 -0.659151
H14   H     H_    0.456014 0.916867 0.194744 0.342357
C41   C     C_R   0.539170 0.103357 0.250092 0.054365
C42   C     C_R   0.612462 0.153735 0.271413 -0.160798
C43   C     C_R   0.653251 0.194774 0.173273 -0.110037
C44   C     C_R   0.622341 0.186592 0.052361 -0.131861
C45   C     C_R   0.546439 0.144710 0.030119 -0.183811
C46   C     C_R   0.503781 0.106185 0.128244 -0.153425
H15   H     H_    0.638179 0.164991 0.362647 0.107358
H16   H     H_    0.709086 0.233277 0.190647 0.154694
H17   H     H_    0.656622 0.214038 0.976448 0.153642
H18   H     H_    0.521322 0.140502 0.936400 0.174939
H19   H     H_    0.446267 0.071813 0.105631 0.161619
C47   C     C_R   0.604888 0.907948 0.291917 0.033086
C48   C     C_R   0.626240 0.932744 0.169628 -0.109548
C49   C     C_R   0.703592 0.909241 0.114211 -0.148621
C50   C     C_R   0.759999 0.852188 0.174246 -0.126693
C51   C     C_R   0.737206 0.815796 0.286836 -0.125646
C52   C     C_R   0.660265 0.840672 0.342632 -0.152014
H20   H     H_    0.581757 0.965460 0.111213 0.127628
H21   H     H_    0.718213 0.932510 0.022002 0.120133
H22   H     H_    0.819332 0.832569 0.130652 0.133328
H23   H     H_    0.778481 0.766469 0.330155 0.177605
H24   H     H_    0.646686 0.803695 0.424460 0.136713
O13   O     O_3   0.436746 0.086123 0.699796 -0.753726
H25   H     H_    0.471116 0.041774 0.745457 0.392441
O14   O     O_3   0.402991 0.911996 0.669440 -0.741528
H26   H     H_    0.383353 0.849009 0.655961 0.323885
O15   O     O_3   0.350761 0.100561 0.534755 -0.682872
H27   H     H_    0.305735 0.082234 0.592300 0.349127
O16   O     O_3   0.351768 0.931648 0.472059 -0.642290
H28   H     H_    0.347165 0.864792 0.460046 0.332978
O17   O     O_3   0.605138 0.100935 0.663345 -0.708812
H29   H     H_    0.665719 0.089007 0.679455 0.306086
O18   O     O_3   0.570815 0.928236 0.699201 -0.699633
H30   H     H_    0.626151 0.937481 0.739605 0.317856
C53   C     C_R   0.474325 0.683844 0.940797 0.141561
C54   C     C_R   0.392374 0.721300 0.936327 -0.151400
C55   C     C_R   0.379471 0.815447 0.931530 -0.103160
C56   C     C_R   0.448151 0.872420 0.929740 -0.031421
C57   C     C_R   0.529537 0.835002 0.928946 -0.073201
C58   C     C_R   0.542864 0.741236 0.934247 -0.128612
H31   H     H_    0.338484 0.678147 0.940103 0.122213
H32   H     H_    0.316316 0.844272 0.930420 0.146692
H33   H     H_    0.438337 0.945413 0.927558 0.138293
H34   H     H_    0.582653 0.878685 0.925644 0.129725
H35   H     H_    0.606555 0.713902 0.936780 0.111147
C59   C     C_R   0.655069 0.425413 0.911565 0.078386
C60   C     C_R   0.731258 0.457360 0.960026 -0.159189
C61   C     C_R   0.807137 0.412977 0.927735 -0.061416
C62   C     C_R   0.807768 0.337135 0.846006 -0.053725
C63   C     C_R   0.732928 0.307197 0.793242 -0.166726
C64   C     C_R   0.656737 0.350528 0.826783 -0.149339
H36   H     H_    0.732454 0.514564 0.025838 0.129281
H37   H     H_    0.865337 0.436393 0.967900 0.143428
H38   H     H_    0.866114 0.300718 0.825228 0.141171
H39   H     H_    0.733529 0.248188 0.730197 0.135140
H40   H     H_    0.599089 0.322292 0.791726 0.173368
O19   O     O_3   0.924692 0.524656 0.723847 -0.734056
H41   H     H_    0.967167 0.481321 0.755676 0.408315
O20   O     O_3   0.929644 0.365070 0.627453 -0.734693
H42   H     H_    0.951311 0.301846 0.638466 0.304534
O21   O     O_3   0.088359 0.546278 0.715567 -0.704171
H43   H     H_    0.067862 0.588591 0.783726 0.316673
O22   O     O_3   0.086793 0.381329 0.637414 -0.688410
H44   H     H_    0.089624 0.314308 0.644837 0.305705
O23   O     O_3   0.099429 0.345594 0.428868 -0.748469
H45   H     H_    0.089327 0.281461 0.449491 0.312300
O24   O     O_3   0.075656 0.659396 0.578292 -0.741456
H46   H     H_    0.066931 0.698823 0.654436 0.318395
C65   C     C_R   0.922229 0.323074 0.412497 0.132410
C66   C     C_R   0.852076 0.271212 0.445772 -0.137737
C67   C     C_R   0.827953 0.195520 0.373903 -0.178563
C68   C     C_R   0.868336 0.173087 0.261519 -0.116119
C69   C     C_R   0.932948 0.226605 0.220810 -0.158433
C70   C     C_R   0.960026 0.299975 0.295120 -0.067159
H47   H     H_    0.817142 0.286597 0.530833 0.167958
H48   H     H_    0.778069 0.153777 0.406186 0.125216
H49   H     H_    0.848763 0.114955 0.205267 0.136720
H50   H     H_    0.963298 0.210378 0.132102 0.131920
H51   H     H_    0.010563 0.337560 0.257947 0.239648
C71   C     C_R   0.897283 0.657608 0.613145 0.176362
C72   C     C_R   0.822688 0.666352 0.686515 -0.089887
C73   C     C_R   0.777007 0.748539 0.698726 -0.172938
C74   C     C_R   0.803321 0.824691 0.637489 -0.120947
C75   C     C_R   0.873748 0.818105 0.560794 -0.174321
C76   C     C_R   0.919593 0.736063 0.547510 -0.108798
H52   H     H_    0.798390 0.609297 0.735277 0.179305
H53   H     H_    0.721064 0.753107 0.756297 0.136555
H54   H     H_    0.768810 0.888693 0.648440 0.110968
H55   H     H_    0.892699 0.876786 0.510258 0.142278
H56   H     H_    0.970833 0.735931 0.482043 0.243129
O25   O     O_3   0.069664 0.627303 0.340924 -0.707837
H57   H     H_    0.131612 0.629032 0.332989 0.331065
O26   O     O_3   0.077615 0.479978 0.264948 -0.740358
H58   H     H_    0.139020 0.487686 0.257132 0.325433

loop_
_geom_bond_atom_site_label_1
_geom_bond_atom_site_label_2
_ccdc_geom_bond_type
C38   C39   A    
C45   C46   A    
C8    C13   S    
C29   C33   S    
C24   N1    T    
C22   O14   S    
O14   H26   S    
C4    C8    S    
C3    C6    S    
C25   N2    T    
C6    C9    S    
O25   H57   S    
O23   H45   S    
C14   O3    A    
C62   H38   S    
C59   C60   A    
O17   H29   S    
C7    C26   S    
C2    C29   S    
C3    O21   S    
C21   C22   S    
C19   C21   S    
C53   C58   A    
C6    O19   S    
C51   H23   S    
C50   C51   A    
C41   C46   A    
C20   C25   S    
C47   C52   A    
O15   H27   S    
C11   O25   S    
C56   C57   A    
Cu2   O4    S    
C18   C19   S    
C55   H32   S    
C74   H54   S    
Cu1   N1    S    
C61   C62   A    
C42   H15   S    
C73   H53   S    
C10   O9    S    
C16   C17   S    
C72   C73   A    
C31   C33   S    
C1    C15   S    
C19   C47   S    
C9    C10   S    
C27   O7    A    
C26   O5    A    
C32   C53   S    
C54   H31   S    
C2    C34   S    
C5    O20   S    
C48   H20   S    
C38   H8    S    
C69   H50   S    
C34   H5    S    
Cu1   O5    S    
C27   O8    A    
C5    C65   S    
C37   H7    S    
C22   C23   S    
C43   C44   A    
C7    C12   T    
C50   H22   S    
C59   C64   A    
C27   C31   S    
O11   H13   S    
C40   H10   S    
C66   C67   A    
C3    C8    S    
C44   C45   A    
C26   O6    A    
C63   H39   S    
C42   C43   A    
C28   H3    S    
C16   H2    S    
C18   O11   S    
C36   C37   A    
C43   H16   S    
C17   C21   S    
C23   O13   S    
Cu1   Cu2   S    
C32   C34   S    
C56   H33   S    
C46   H19   S    
C60   H36   S    
C5    C9    S    
C70   H51   S    
C65   C70   A    
C1    O1    A    
C48   C49   A    
C20   C23   S    
C28   C32   S    
C16   C20   S    
Cu1   O7    S    
C11   O26   S    
C33   C34   S    
Cu2   O2    S    
O13   H25   S    
C17   H1    S    
C72   H52   S    
C49   C50   A    
C62   C63   A    
Cu1   O1    S    
C75   C76   A    
Cu2   O8    S    
C57   H34   S    
C4    O23   S    
C3    O24   S    
C67   H48   S    
C23   O15   S    
C47   C48   A    
C71   C76   A    
C13   C15   T    
O22   H44   S    
C19   O12   S    
C49   H21   S    
C55   C56   A    
O19   H41   S    
C63   C64   A    
C65   C66   A    
O20   H42   S    
O24   H46   S    
C10   O10   S    
C18   C41   S    
C39   C40   A    
C30   C35   S    
C37   C38   A    
C33   C59   S    
C22   O16   S    
C76   H56   S    
C51   C52   A    
C68   H49   S    
C31   C32   S    
C4    C5    S    
C66   H47   S    
C36   H6    S    
C14   O4    A    
C53   C54   A    
C60   C61   A    
C71   C72   A    
O16   H28   S    
C44   H17   S    
C10   C11   S    
C28   C30   S    
C69   C70   A    
C17   O18   S    
C64   H40   S    
C67   C68   A    
C1    O2    A    
C30   C31   S    
C8    C11   S    
C29   H4    S    
C18   C20   S    
C61   H37   S    
O12   H14   S    
C2    C14   S    
C9    C12   S    
O26   H58   S    
C35   C40   A    
C29   C30   S    
O9    H11   S    
C6    C71   S    
C16   O17   S    
C75   H55   S    
C45   H18   S    
C41   C42   A    
C73   C74   A    
O10   H12   S    
C54   C55   A    
C21   C24   S    
C57   C58   A    
O18   H30   S    
C68   C69   A    
C39   H9    S    
Cu2   N2    S    
C2    C28   S    
C74   C75   A    
C52   H24   S    
Cu1   O3    S    
C58   H35   S    
Cu2   O6    S    
O21   H43   S    
C35   C36   A    
C4    O22   S    
