data_mof_unit_51258.cif
_audit_creation_date              2012-12-10T16:37:33-0500
_audit_creation_method            fapswitch 2.2
_symmetry_space_group_name_H-M    P1
_symmetry_Int_Tables_number       1
_space_group_crystal_system       triclinic
_cell_length_a                    10.84314
_cell_length_b                    10.877509
_cell_length_c                    15.471362
_cell_angle_alpha                 96.526857
_cell_angle_beta                  74.728164
_cell_angle_gamma                 98.730264
_cell_volume                      1734.75243133

loop_
_atom_site_label
_atom_site_type_symbol
_atom_type_description
_atom_site_fract_x
_atom_site_fract_y
_atom_site_fract_z
_atom_type_partial_charge
C1    C     C_R   0.158249 0.478878 0.519816 0.507054
C2    C     C_R   0.520319 0.493338 0.117751 -0.091406
C3    C     C_R   0.649694 0.327221 0.111471 0.241857
C4    C     C_R   0.842447 0.521437 0.479887 0.522865
C5    C     C_R   0.420355 0.577519 0.840882 0.001501
C6    C     C_2   0.980150 0.529912 0.471764 -0.105930
C7    C     C_2   0.022372 0.471094 0.527392 -0.081723
C8    C     C_2   0.538751 0.966312 0.467581 0.181201
C9    C     C_2   0.458465 0.035335 0.527524 -0.075185
C10   C     C_R   0.466556 0.167793 0.521758 0.590942
C11   C     C_R   0.529498 0.833686 0.479304 0.496244
C12   C     C_R   0.405684 0.742992 0.961220 0.233046
C13   C     C_R   0.556395 0.444307 0.258368 0.573371
C14   C     C_R   0.443881 0.552596 0.742250 0.565644
C15   C     C_R   0.639519 0.291054 0.023761 -0.052174
C16   C     C_R   0.579011 0.422146 0.161136 0.029206
C17   C     C_R   0.382935 0.693161 0.879016 -0.139280
C18   C     C_R   0.476001 0.679573 0.003062 0.223477
C19   C     C_R   0.485271 0.550097 0.976346 -0.039761
C20   C     C_R   0.453332 0.497920 0.894899 -0.016613
C21   C     C_R   0.529379 0.470738 0.025439 0.042165
C22   C     C_R   0.573067 0.357976 0.982720 -0.033945
C23   C     C_R   0.538424 0.307761 0.904386 -0.108342
C24   C     C_R   0.461611 0.369290 0.868749 0.236042
H1    H     H_    0.555304 0.213184 0.878758 0.175261
H2    H     H_    0.232073 0.920236 0.919238 0.357080
H3    H     H_    0.304823 0.152157 0.927231 0.364588
H4    H     H_    0.047440 0.584174 0.420395 0.124169
H5    H     H_    0.682421 0.210156 0.987897 0.190836
H6    H     H_    0.841078 0.293634 0.266128 0.386377
H7    H     H_    0.957093 0.416420 0.579256 0.146156
H8    H     H_    0.813969 0.927453 0.336637 0.367294
H9    H     H_    0.390549 0.995805 0.585704 0.125726
H10   H     H_    0.463796 0.563437 0.157023 0.171940
H11   H     H_    0.345997 0.750170 0.841039 0.161565
H12   H     H_    0.567081 0.842202 0.202722 0.420372
O1    O     O_3   0.500000 0.500000 0.500000 -0.479988
O2    O     O_R   0.463530 0.379110 0.309170 -0.507679
O3    O     O_R   0.388210 0.611730 0.699360 -0.536526
O4    O     O_R   0.624720 0.532760 0.292120 -0.489456
O5    O     O_R   0.523540 0.476390 0.699360 -0.512450
O6    O     O_2   0.719714 0.116011 0.144743 -0.137838
O7    O     O_2   0.889697 0.285589 0.094232 -0.237049
O8    O     O_3   0.754900 0.304353 0.259736 -0.482956
O9    O     O_2   0.575809 0.079967 0.317991 -0.177340
O10   O     O_2   0.736787 0.139875 0.404973 -0.296395
O11   O     O_3   0.742477 0.928444 0.308025 -0.446410
O12   O     O_R   0.537910 0.240570 0.564270 -0.471711
O13   O     O_2   0.696829 0.705742 0.058764 -0.248291
O14   O     O_2   0.628718 0.894773 0.026545 -0.161887
O15   O     O_3   0.502207 0.793874 0.173307 -0.493703
O16   O     O_2   0.335806 0.907739 0.104217 -0.138417
O17   O     O_2   0.450253 0.991992 0.960381 -0.302619
O18   O     O_3   0.210521 0.896575 0.981924 -0.454989
O19   O     O_2   0.267886 0.343564 0.781725 -0.247129
O20   O     O_2   0.419989 0.188429 0.742498 -0.286942
O21   O     O_3   0.249121 0.181663 0.894638 -0.437258
O22   O     O_R   0.438950 0.782540 0.540270 -0.567287
O23   O     O_R   0.222350 0.398740 0.468260 -0.526718
O24   O     O_R   0.800790 0.578160 0.427210 -0.520170
O25   O     O_R   0.212140 0.566330 0.564260 -0.522472
O26   O     O_R   0.764730 0.456770 0.540270 -0.532858
O27   O     O_R   0.412790 0.208310 0.468260 -0.496271
O28   O     O_R   0.610350 0.768590 0.427210 -0.506776
S1    S     S_3+6 0.755954 0.254937 0.152548 0.108958
S2    S     S_3+6 0.650860 0.032259 0.373135 0.067516
S3    S     S_3+6 0.581352 0.770344 0.064815 0.093737
S4    S     S_3+6 0.352897 0.889355 0.004258 0.091230
S5    S     S_3+6 0.349263 0.271731 0.817299 0.054165
Zn1   Zn    Zn3+2 0.580150 0.419820 0.574680 1.047887
Zn2   Zn    Zn3+2 0.401380 0.373730 0.437510 1.054863
Zn3   Zn    Zn3+2 0.631680 0.593260 0.413140 1.031069
Zn4   Zn    Zn3+2 0.386790 0.613180 0.574670 0.978541

loop_
_geom_bond_atom_site_label_1
_geom_bond_atom_site_label_2
_ccdc_geom_bond_type
C12   C17   A    
C8    C9    D    
O6    S1    D    
C23   C24   A    
O10   S2    D    
C8    S2    S    
C6    C7    D    
C11   O22   A    
C2    C16   A    
C9    C10   S    
O22   Zn4   S    
O11   S2    S    
C19   C20   A    
O16   S4    D    
C8    C11   S    
O7    S1    D    
O18   S4    S    
H6    O8    S    
C21   C22   A    
C4    O24   A    
C2    C21   A    
O3    Zn4   S    
C13   O2    A    
O25   Zn4   S    
C5    C20   A    
O15   S3    S    
O1    Zn1   S    
C5    C17   A    
C9    H9    S    
C12   S4    S    
C2    H10   S    
C5    C14   S    
C3    S1    S    
H12   O15   S    
O19   S5    D    
C14   O5    A    
C1    C7    S    
H2    O18   S    
C18   S3    S    
O8    S1    S    
C19   C21   A    
C1    O23   A    
O27   Zn2   S    
C24   S5    S    
C15   H5    S    
O4    Zn3   S    
O28   Zn3   S    
C10   O12   A    
H8    O11   S    
O1    Zn3   S    
C7    H7    S    
O24   Zn3   S    
C4    O26   A    
C23   H1    S    
C3    C15   A    
O23   Zn2   S    
O26   Zn1   S    
C4    C6    S    
C11   O28   A    
H3    O21   S    
C13   C16   S    
C12   C18   A    
O9    S2    D    
O20   S5    D    
O17   S4    D    
O1    Zn4   S    
C22   C23   A    
C18   C19   A    
C13   O4    A    
C17   H11   S    
O13   S3    D    
O21   S5    S    
C14   O3    A    
O2    Zn2   S    
C20   C24   A    
C15   C22   A    
C6    H4    S    
C3    C16   A    
C10   O27   A    
O14   S3    D    
O12   Zn1   S    
O1    Zn2   S    
O5    Zn1   S    
C1    O25   A    
