data_mof_unit_16873.cif
_audit_creation_date              2013-03-05T15:46:22-0500
_audit_creation_method            fapswitch 2.2
_symmetry_space_group_name_H-M    P1
_symmetry_Int_Tables_number       1
_space_group_crystal_system       triclinic
_cell_length_a                    10.258473
_cell_length_b                    10.813964
_cell_length_c                    11.048513
_cell_angle_alpha                 91.315108
_cell_angle_beta                  93.396475
_cell_angle_gamma                 82.394051
_cell_volume                      1212.60510697

loop_
_atom_site_label
_atom_site_type_symbol
_atom_site_description
_atom_site_fract_x
_atom_site_fract_y
_atom_site_fract_z
_atom_type_partial_charge
O1    O     O_R   0.568950 0.489660 0.307530 -0.598390
O2    O     O_R   0.348880 0.522640 0.340350 -0.607040
C1    C     C_R   0.447509 0.505897 0.268238 0.927003
O3    O     O_R   0.610060 0.300270 0.483590 -0.642134
O4    O     O_R   0.389990 0.333260 0.516410 -0.615884
C2    C     C_R   0.498559 0.260789 0.500015 0.943944
Zn1   Zn    Zn3+2 0.646940 0.477980 0.478090 1.042474
Zn2   Zn    Zn3+2 0.353060 0.522020 0.521910 1.026232
O5    O     O_R   0.651120 0.477360 0.659650 -0.650168
O6    O     O_R   0.431050 0.510340 0.692470 -0.534899
O7    O     O_R   0.610010 0.666740 0.483590 -0.565077
O8    O     O_R   0.389940 0.699730 0.516410 -0.625186
C3    C     C_R   0.552816 0.491653 0.730185 0.898852
C4    C     C_R   0.501796 0.739178 0.502921 0.994908
C5    C     C_R   0.601498 0.106243 0.298416 -0.062218
C6    C     C_R   0.703402 0.034842 0.237384 -0.116051
C7    C     C_R   0.718817 0.904282 0.249661 -0.054421
C8    C     C_R   0.622750 0.854400 0.311785 0.011669
C9    C     C_R   0.562113 0.925652 0.407201 0.027101
C10   C     C_R   0.554380 0.055111 0.402031 0.040698
C11   C     C_R   0.493273 0.128629 0.495038 -0.046047
C12   C     C_R   0.436356 0.075360 0.590199 -0.026965
C13   C     C_R   0.441840 0.946002 0.595204 -0.068680
C14   C     C_R   0.502982 0.871969 0.502152 -0.094730
C15   C     C_2   0.425685 0.504926 0.136475 -0.055706
C16   C     C_2   0.527156 0.469323 0.063036 -0.061453
C17   C     C_2   0.575359 0.507806 0.857584 -0.260202
C18   C     C_2   0.500100 0.456033 0.934316 -0.035830
N1    N     N_2   0.157290 0.551390 0.551110 -0.181966
C19   C     C_2   0.076687 0.473712 0.507980 0.039379
N2    N     N_2   0.842740 0.448550 0.448960 -0.064773
C20   C     C_2   0.930570 0.495162 0.521969 0.136059
N3    N     N_3   0.381329 0.153891 0.685995 -0.430259
H1    H     H_    0.281477 0.144519 0.688905 0.194687
H2    H     H_    0.430029 0.124419 0.768123 0.187863
N4    N     N_3   0.294378 0.539737 0.084790 -0.385178
H3    H     H_    0.233582 0.479511 0.117986 0.212945
H4    H     H_    0.261198 0.630033 0.115154 0.245931
C21   C     C_2   0.889740 0.559850 0.635159 0.446046
H5    H     H_    0.936377 0.526304 0.721060 0.008078
O9    O     O_2   0.813628 0.656453 0.633219 -0.515439
N5    N     N_3   0.128329 0.353853 0.462039 -0.475226
H6    H     H_    0.173423 0.299841 0.533651 0.237233
H7    H     H_    0.190948 0.364106 0.392936 0.268581
N6    N     N_3   0.881329 0.381761 0.344837 -0.331480
H8    H     H_    0.922591 0.291624 0.369312 0.177602
H9    H     H_    0.947048 0.427920 0.299473 0.245450
C22   C     C_2   0.110958 0.680843 0.566510 0.584002
H10   H     H_    0.158632 0.734540 0.635951 0.050853
O10   O     O_2   0.025569 0.734415 0.497256 -0.548948
C23   C     C_2   0.515814 0.203716 0.228398 0.411768
H11   H     H_    0.549053 0.237377 0.146235 0.015163
O11   O     O_2   0.402020 0.236734 0.253622 -0.611865
C24   C     C_2   0.783579 0.097455 0.156870 0.312142
H12   H     H_    0.819294 0.183349 0.187410 0.085474
O12   O     O_2   0.805549 0.057104 0.054985 -0.565266
C25   C     C_2   0.828350 0.820450 0.196655 0.517853
H13   H     H_    0.893593 0.855061 0.135862 0.124726
O13   O     O_2   0.851232 0.711135 0.225519 -0.519909
C26   C     C_2   0.548117 0.766883 0.241790 0.438020
H14   H     H_    0.598123 0.697698 0.183580 0.190042
O14   O     O_2   0.428067 0.777973 0.242083 -0.602064
C27   C     C_2   0.389419 0.890701 0.701863 0.416310
H15   H     H_    0.303285 0.937939 0.743874 0.066737
O15   O     O_2   0.444891 0.794454 0.746958 -0.537895
C28   C     C_2   0.410997 0.362053 0.897690 0.435117
H16   H     H_    0.431903 0.268994 0.934556 0.042454
O16   O     O_2   0.308591 0.390594 0.836931 -0.528912
C29   C     C_2   0.668411 0.428688 0.100310 0.371603
H17   H     H_    0.715056 0.339656 0.067512 0.043552
O17   O     O_2   0.737256 0.500338 0.150267 -0.504535
C30   C     C_2   0.664380 0.601345 0.894958 0.563344
H18   H     H_    0.759163 0.597601 0.856089 0.069820
O18   O     O_2   0.629277 0.687073 0.964239 -0.526917

loop_
_geom_bond_atom_site_label_1
_geom_bond_atom_site_label_2
_geom_bond_distance
_ccdc_geom_bond_type
C5    C6    1.410552 A    
O4    Zn2   2.026380 S    
C28   O16   1.220503 D    
C13   C14   1.413161 A    
C27   O15   1.220157 D    
C24   O12   1.220582 D    
N1    C19   1.317272 D    
C5    C23   1.481113 S    
C23   O11   1.221275 D    
C24   H12   1.082551 S    
C18   C28   1.488396 S    
N2    C20   1.316050 D    
Zn2   O8    2.010099 S    
Zn1   O5    2.004030 S    
N4    H4    1.045173 S    
C7    C8    1.403981 A    
C26   H14   1.073281 S    
C21   O9    1.218415 D    
O1    Zn1   2.003165 S    
C11   C12   1.402759 A    
C3    C17   1.423402 S    
C26   O14   1.221650 D    
C19   C20   1.502756 S    
C25   H13   1.081804 S    
C29   H17   1.081580 S    
N5    H7    1.043404 S    
N4    H3    1.045590 S    
C19   N5    1.427649 S    
O3    Zn1   2.010099 S    
Zn2   N1    2.035054 S    
C22   O10   1.222690 D    
C16   C18   1.440371 S    
N3    H2    1.044953 S    
O8    C4    1.293694 A    
C28   H16   1.084421 S    
O2    C1    1.315930 A    
N6    H9    1.046664 S    
O4    C2    1.293738 A    
C16   C29   1.493827 S    
O7    C4    1.296842 A    
C6    C24   1.479194 S    
C13   C27   1.492662 S    
C25   O13   1.220341 D    
O3    C2    1.296531 A    
Zn1   N2    2.035204 S    
N5    H6    1.042824 S    
N1    C22   1.427270 S    
C4    C14   1.437886 S    
C23   H11   1.075893 S    
N6    H8    1.044858 S    
C1    C15   1.459736 S    
N3    H1    1.045033 S    
C10   C11   1.409916 A    
C30   H18   1.081548 S    
C30   O18   1.219320 D    
C8    C9    1.416164 A    
N2    N6    1.393523 S    
C20   C21   1.474138 S    
C8    C26   1.472408 S    
C21   H5    1.085030 S    
C29   O17   1.217709 D    
C12   N3    1.436204 S    
O5    C3    1.301734 A    
C12   C13   1.394782 A    
C22   H10   1.084099 S    
Zn1   O7    2.026381 S    
C15   N4    1.437617 S    
O1    C1    1.285618 A    
C15   C16   1.367399 D    
C27   H15   1.084141 S    
C2    C11   1.437034 S    
C9    C14   1.414948 A    
Zn2   O6    2.003166 S    
O2    Zn2   2.004030 S    
C17   C30   1.486046 S    
C9    C10   1.393985 A    
C6    C7    1.408527 A    
C7    C25   1.487051 S    
C5    C10   1.419616 A    
C17   C18   1.357204 D    
O6    C3    1.284594 A    
