data_mof_unit_8209.cif
_audit_creation_date              2012-12-11T15:32:38-0500
_audit_creation_method            fapswitch 2.2
_symmetry_space_group_name_H-M    P1
_symmetry_Int_Tables_number       1
_space_group_crystal_system       triclinic
_cell_length_a                    6.944793
_cell_length_b                    20.507989
_cell_length_c                    24.350273
_cell_angle_alpha                 89.483841
_cell_angle_beta                  90.672022
_cell_angle_gamma                 89.749721
_cell_volume                      3467.64293904

loop_
_atom_site_label
_atom_site_type_symbol
_atom_type_description
_atom_site_fract_x
_atom_site_fract_y
_atom_site_fract_z
_atom_type_partial_charge
O1    O     O_R   0.507320 0.423560 0.460500 -0.541805
O2    O     O_R   0.170760 0.556250 0.437010 -0.539001
O3    O     O_R   0.004030 0.576440 0.539500 -0.550176
C1    C     C_R   0.338809 0.576400 0.420990 0.719285
O4    O     O_R   0.177370 0.422820 0.454110 -0.525066
O5    O     O_R   0.010680 0.442050 0.556720 -0.536688
C2    C     C_R   0.345786 0.399267 0.443047 0.754170
O6    O     O_R   0.500680 0.557950 0.443280 -0.535739
O7    O     O_3   0.340380 0.506470 0.533650 -0.377478
V1    V     V_3+5 0.064130 0.498800 0.493760 1.428819
O8    O     O_R   0.681160 0.443750 0.562990 -0.540806
C3    C     C_R   0.850968 0.423833 0.579041 0.746690
O9    O     O_R   0.674560 0.577180 0.545890 -0.540700
C4    C     C_R   0.844198 0.600105 0.557655 0.746336
V2    V     V_3+5 0.564560 0.501200 0.506240 1.410149
O10   O     O_3   0.838180 0.493530 0.466350 -0.366586
C5    C     C_R   0.965722 0.837009 0.913796 -0.143556
C6    C     C_R   0.857516 0.659787 0.590915 -0.102873
C7    C     C_R   0.864475 0.724531 0.912824 -0.200074
C8    C     C_R   0.917355 0.779678 0.942243 0.389575
C9    C     C_R   0.975550 0.836915 0.856256 -0.261030
C10   C     C_R   0.926807 0.780528 0.825427 0.060099
C11   C     C_R   0.866450 0.724323 0.855032 -0.004273
C12   C     C_R   0.929932 0.778643 0.766456 0.012557
C13   C     C_R   0.879120 0.720064 0.738389 -0.013068
C14   C     C_R   0.803576 0.668291 0.769567 -0.252937
C15   C     C_R   0.803173 0.668895 0.826944 0.386682
C16   C     C_R   0.977210 0.833860 0.734588 -0.243643
C17   C     C_R   0.973258 0.832781 0.677452 0.402855
C18   C     C_R   0.922039 0.775466 0.649667 -0.011471
C19   C     C_R   0.892211 0.716618 0.679544 -0.044671
C20   C     C_R   0.902001 0.776424 0.592163 -0.172505
C21   C     C_R   0.864716 0.719596 0.563465 -0.262448
C22   C     C_R   0.881730 0.657011 0.648697 0.362583
H1    H     H_    0.850350 0.721886 0.519122 0.126606
H2    H     H_    0.819724 0.681841 0.935813 0.167411
H3    H     H_    0.014992 0.882364 0.837092 0.112931
H4    H     H_    0.735728 0.627436 0.750104 0.179468
H5    H     H_    0.013802 0.879950 0.752571 0.134192
H6    H     H_    0.915420 0.821409 0.568915 0.155959
C23   C     C_3   0.741093 0.278167 0.751582 -0.138474
C24   C     C_3   0.896085 0.279996 0.797897 -0.137110
H7    H     H_    0.881086 0.304057 0.838261 0.115302
H8    H     H_    0.597220 0.301874 0.752898 0.103694
H9    H     H_    0.166079 0.332713 0.758763 0.107155
C25   C     C_1   0.961432 0.121180 0.874863 -0.193294
C26   C     C_1   0.864277 0.378609 0.625103 -0.185296
C27   C     C_3   0.777495 0.204100 0.744725 -0.133440
C28   C     C_3   0.932133 0.206606 0.790423 0.168485
C29   C     C_3   0.934254 0.218960 0.701606 -0.138221
C30   C     C_3   0.898019 0.292467 0.709059 0.173135
C31   C     C_3   0.089202 0.220813 0.747961 -0.139016
C32   C     C_3   0.052822 0.294946 0.754785 -0.133897
C33   C     C_1   0.949263 0.159370 0.836585 -0.066223
C34   C     C_1   0.878789 0.340169 0.663195 -0.073790
H10   H     H_    0.232626 0.196776 0.746850 0.108846
H11   H     H_    0.663952 0.166446 0.740711 0.112293
C35   C     C_3   0.552530 0.729018 0.217001 -0.138686
C36   C     C_3   0.364129 0.691538 0.229329 -0.141141
H12   H     H_    0.669173 0.711957 0.189770 0.114596
C37   C     C_1   0.348674 0.621966 0.374905 -0.193314
C38   C     C_1   0.475256 0.878083 0.124974 -0.189878
C39   C     C_3   0.576069 0.744558 0.278925 -0.137378
C40   C     C_3   0.387904 0.707673 0.290681 0.169849
C41   C     C_3   0.458762 0.808431 0.270277 -0.134608
C42   C     C_3   0.435019 0.792288 0.208956 0.164033
C43   C     C_3   0.270343 0.770957 0.282600 -0.134308
C44   C     C_3   0.246844 0.755423 0.220672 -0.147188
C45   C     C_1   0.363869 0.660418 0.336798 -0.066297
C46   C     C_1   0.459590 0.839603 0.162988 -0.065360
H13   H     H_    0.153458 0.788065 0.309721 0.105933
H14   H     H_    0.498123 0.856824 0.286988 0.112405
H15   H     H_    0.712147 0.739930 0.303063 0.108929
C47   C     C_R   0.470523 0.161361 0.088824 -0.123699
C48   C     C_R   0.349888 0.337905 0.411848 -0.131764
C49   C     C_R   0.486020 0.279408 0.091483 0.412533
C50   C     C_R   0.491547 0.221000 0.062087 -0.247935
C51   C     C_R   0.445421 0.159303 0.145836 -0.230876
C52   C     C_R   0.431266 0.217250 0.177383 0.043680
C53   C     C_R   0.462646 0.277412 0.149196 0.052738
C54   C     C_R   0.391723 0.218011 0.235687 -0.029018
C55   C     C_R   0.409829 0.278359 0.265248 0.027398
C56   C     C_R   0.450619 0.335677 0.235274 -0.182113
C57   C     C_R   0.471379 0.335318 0.178785 -0.171356
C58   C     C_R   0.325886 0.162200 0.265500 0.377479
C59   C     C_R   0.299031 0.164898 0.322048 -0.251057
C60   C     C_R   0.322061 0.222456 0.351025 0.016608
C61   C     C_R   0.378870 0.280237 0.323589 0.092517
C62   C     C_R   0.279102 0.222769 0.407234 -0.221746
C63   C     C_R   0.290735 0.280158 0.437533 0.398824
C64   C     C_R   0.397084 0.337774 0.355786 -0.271931
H16   H     H_    0.496961 0.381513 0.158250 0.162388
H17   H     H_    0.442260 0.383704 0.338597 0.112095
H18   H     H_    0.515975 0.221992 0.018253 0.114117
H19   H     H_    0.447924 0.111470 0.163996 0.178228
H20   H     H_    0.229108 0.178747 0.427404 0.120847
O11   O     O_R   0.323550 0.942140 0.056770 -0.541834
O12   O     O_R   0.647080 0.077200 0.045890 -0.542094
O13   O     O_R   0.813610 0.057920 0.943260 -0.535215
C65   C     C_R   0.478520 0.100962 0.056668 0.716784
O14   O     O_R   0.653470 0.943760 0.063000 -0.532498
O15   O     O_R   0.820050 0.923540 0.960490 -0.524876
C66   C     C_R   0.485376 0.923650 0.078994 0.729659
O16   O     O_R   0.317110 0.076520 0.039540 -0.535869
O17   O     O_3   0.483830 0.993580 0.966380 -0.366706
V3    V     V_3+5 0.760140 0.001190 0.006240 1.432227
O18   O     O_R   0.149510 0.922740 0.954070 -0.549294
C67   C     C_R   0.980233 0.898677 0.943956 0.737828
O19   O     O_R   0.143120 0.056170 0.936970 -0.538512
C68   C     C_R   0.973504 0.076110 0.920978 0.724958
V4    V     V_3+5 0.259690 0.998700 0.993700 1.412672
O20   O     O_3   0.986130 0.006420 0.033620 -0.367616
O21   O     O_3   0.719664 0.618049 0.855940 -0.576925
C69   C     C_3   0.824048 0.559253 0.849204 0.071180
H21   H     H_    0.875637 0.542714 0.890418 0.133403
H22   H     H_    0.954407 0.563688 0.823017 0.099190
C70   C     C_3   0.689393 0.507563 0.825676 -0.294403
H23   H     H_    0.566407 0.500229 0.853861 0.201471
H24   H     H_    0.631474 0.524405 0.785328 0.198247
C71   C     C_3   0.793402 0.442816 0.818085 -0.850247
H25   H     H_    0.913272 0.448417 0.788617 0.236568
H26   H     H_    0.690022 0.406698 0.801530 0.231011
H27   H     H_    0.851273 0.424510 0.858084 0.227747
H28   H     H_    0.949352 0.193822 0.661704 0.111850
H29   H     H_    0.324748 0.643222 0.212470 0.113266
H30   H     H_    0.111028 0.760063 0.196403 0.111690
O22   O     O_3   0.898178 0.595696 0.672995 -0.595875
C72   C     C_3   0.085398 0.585770 0.695652 0.001463
H31   H     H_    0.072368 0.549674 0.729648 0.147953
H32   H     H_    0.149892 0.630313 0.713963 0.129622
C73   C     C_3   0.221732 0.557810 0.652907 -0.280203
H33   H     H_    0.155140 0.514144 0.634198 0.213532
H34   H     H_    0.247267 0.595033 0.620426 0.197684
C74   C     C_3   0.414922 0.538287 0.678621 -0.800520
H35   H     H_    0.483662 0.581288 0.697793 0.230371
H36   H     H_    0.511712 0.519354 0.646457 0.256964
H37   H     H_    0.394650 0.499501 0.710132 0.212056
O23   O     O_3   0.225673 0.281674 0.490973 -0.576495
C75   C     C_3   0.366336 0.253642 0.526272 0.049302
H38   H     H_    0.512330 0.273950 0.518149 0.114898
H39   H     H_    0.369486 0.199767 0.521043 0.124349
C76   C     C_3   0.314070 0.269163 0.585541 -0.261341
H40   H     H_    0.319390 0.322819 0.591563 0.199853
H41   H     H_    0.165053 0.252464 0.593717 0.197159
C77   C     C_3   0.451908 0.235976 0.626305 -0.854050
H42   H     H_    0.438329 0.182141 0.623801 0.228238
H43   H     H_    0.416565 0.251326 0.668591 0.231736
H44   H     H_    0.602733 0.249962 0.617572 0.239803
H45   H     H_    0.251907 0.121129 0.343235 0.141507
O24   O     O_3   0.520947 0.338496 0.065086 -0.581791
C78   C     C_3   0.385198 0.350838 0.022190 0.067809
H46   H     H_    0.310336 0.397400 0.031399 0.138518
H47   H     H_    0.270271 0.313189 0.018046 0.108119
C79   C     C_3   0.490468 0.358787 0.967617 -0.287058
H48   H     H_    0.594502 0.399668 0.970790 0.200747
H49   H     H_    0.572524 0.313594 0.958629 0.186849
C80   C     C_3   0.350069 0.372762 0.920179 -0.860397
H50   H     H_    0.246574 0.331961 0.915545 0.232009
H51   H     H_    0.431102 0.378085 0.881364 0.234730
H52   H     H_    0.269380 0.418698 0.927506 0.229471
H53   H     H_    0.461449 0.382824 0.254046 0.120864
O25   O     O_3   0.282187 0.103777 0.240778 -0.585331
C81   C     C_3   0.085458 0.103978 0.225466 0.052752
H54   H     H_    0.053393 0.144494 0.195853 0.133640
H55   H     H_    0.992728 0.109282 0.262246 0.128569
C82   C     C_3   0.038573 0.039207 0.197925 -0.290041
H56   H     H_    0.130793 0.033055 0.161281 0.198247
H57   H     H_    0.069796 0.998421 0.227115 0.196083
C83   C     C_3   0.827670 0.036292 0.180107 -0.803511
H58   H     H_    0.732228 0.042541 0.215994 0.230947
H59   H     H_    0.797535 0.988254 0.161329 0.232200
H60   H     H_    0.796323 0.075208 0.149315 0.234610
O26   O     O_3   0.011331 0.890071 0.649102 -0.578892
C84   C     C_3   0.204782 0.889909 0.631292 0.065620
H61   H     H_    0.211231 0.921185 0.593872 0.143289
H62   H     H_    0.257140 0.840649 0.619007 0.110157
C85   C     C_3   0.338920 0.918550 0.675237 -0.351946
H63   H     H_    0.282224 0.966604 0.688483 0.204814
H64   H     H_    0.345693 0.885349 0.711505 0.192087
C86   C     C_3   0.542190 0.927298 0.653413 -0.761841
H65   H     H_    0.599305 0.879962 0.638799 0.243870
H66   H     H_    0.638013 0.945483 0.686683 0.243479
H67   H     H_    0.541974 0.963140 0.618942 0.222662
O27   O     O_3   0.901555 0.778717 0.998901 -0.581270
C87   C     C_3   0.086996 0.774452 0.023602 0.076973
H68   H     H_    0.079094 0.797923 0.064479 0.144547
H69   H     H_    0.199979 0.801204 0.000374 0.111211
C88   C     C_3   0.147042 0.703022 0.031887 -0.336724
H70   H     H_    0.035880 0.677211 0.056211 0.202020
H71   H     H_    0.158669 0.678949 0.991360 0.193120
C89   C     C_3   0.340832 0.697542 0.061819 -0.812034
H72   H     H_    0.454654 0.722578 0.037968 0.250721
H73   H     H_    0.381155 0.645367 0.066870 0.228790
H74   H     H_    0.331650 0.719704 0.103097 0.234177

loop_
_geom_bond_atom_site_label_1
_geom_bond_atom_site_label_2
_ccdc_geom_bond_type
C13   C19   A    
C42   C44   S    
C60   C61   A    
C39   C41   S    
C80   H50   S    
C83   H58   S    
C4    C6    S    
O2    C1    A    
C7    C8    A    
C1    O6    A    
C73   C74   S    
C72   H31   S    
C74   H37   S    
C69   H21   S    
C27   H11   S    
V3    O20   S    
O26   C84   S    
C31   C32   S    
C14   C15   A    
C88   C89   S    
C26   C34   T    
C16   C17   A    
C81   H55   S    
O25   C81   S    
C7    H2    S    
C70   H24   S    
C24   C32   S    
O5    C3    A    
C18   C19   A    
O11   V4    S    
C75   C76   S    
C87   H69   S    
C43   H13   S    
C35   H12   S    
C28   C33   S    
C50   H18   S    
C65   O16   A    
C5    C8    A    
O27   C87   S    
C38   C46   T    
C88   H71   S    
C23   C24   S    
C78   C79   S    
C84   H61   S    
C48   C63   A    
C63   O23   S    
O21   C69   S    
O8    V2    S    
C35   C42   S    
C81   H54   S    
C86   H66   S    
C22   O22   S    
C41   C43   S    
C47   C50   A    
C29   C31   S    
O18   C67   A    
O15   C67   A    
O1    V2    S    
C11   C15   A    
O7    V1    S    
C79   H49   S    
C86   H67   S    
C53   C57   A    
C8    O27   S    
C28   C31   S    
C27   C29   S    
O17   V4    S    
H9    C32   S    
C80   H51   S    
O1    C2    A    
C9    C10   A    
C82   H57   S    
C58   O25   S    
C83   H59   S    
C76   C77   S    
C3    C26   S    
C77   H43   S    
C71   H26   S    
C54   C58   A    
C77   H42   S    
C75   H38   S    
C43   C44   S    
C40   C43   S    
C49   C53   A    
C81   C82   S    
C29   H28   S    
C12   C13   A    
C79   C80   S    
C59   H45   S    
O4    C2    A    
C51   C52   A    
C14   H4    S    
C87   C88   S    
C2    C48   S    
C39   H15   S    
C16   H5    S    
C85   H64   S    
C35   C36   S    
C58   C59   A    
O13   C68   A    
C1    C37   S    
C54   C55   A    
C89   H72   S    
C88   H70   S    
C30   C32   S    
C7    C11   A    
C89   H73   S    
C74   H36   S    
C17   C18   A    
C36   C44   S    
C64   H17   S    
C69   H22   S    
C56   C57   A    
C61   C64   A    
C49   O24   S    
C51   H19   S    
C78   H46   S    
C85   C86   S    
C25   C33   T    
C29   C30   S    
C36   C40   S    
C19   C22   A    
C40   C45   S    
C49   C50   A    
C6    C22   A    
C84   C85   S    
C79   H48   S    
O11   C66   A    
O3    C4    A    
C15   O21   S    
C27   C28   S    
C55   C56   A    
O6    V2    S    
O12   C65   A    
C20   H6    S    
O9    V2    S    
C82   H56   S    
C23   H8    S    
C10   C12   A    
C52   C53   A    
C70   C71   S    
C36   H29   S    
C24   H7    S    
O22   C72   S    
O2    V1    S    
C72   C73   S    
C44   H30   S    
O14   V3    S    
C77   H44   S    
C71   H25   S    
C52   C54   A    
C38   C66   S    
C37   C45   T    
C35   C39   S    
O13   V3    S    
V4    O20   S    
C59   C60   A    
O18   V4    S    
C12   C16   A    
C17   O26   S    
C73   H34   S    
C72   H32   S    
O5    V1    S    
O16   V4    S    
C47   C65   S    
O8    C3    A    
C71   H27   S    
C74   H35   S    
C48   C64   A    
C80   H52   S    
C41   H14   S    
O17   V3    S    
C70   H23   S    
O12   V3    S    
C20   C21   A    
C62   H20   S    
C25   C68   S    
C13   C14   A    
C89   H74   S    
O4    V1    S    
C41   C42   S    
O3    V1    S    
V1    O10   S    
O19   C68   A    
C18   C20   A    
C75   H39   S    
C87   H68   S    
C42   C46   S    
C55   C61   A    
O19   V4    S    
C21   H1    S    
C23   C27   S    
O15   V3    S    
C30   C34   S    
C78   H47   S    
C56   H53   S    
C73   H33   S    
C6    C21   A    
C84   H62   S    
C69   C70   S    
O23   C75   S    
C24   C28   S    
C39   C40   S    
C31   H10   S    
C9    H3    S    
C82   C83   S    
O14   C66   A    
C85   H63   S    
C47   C51   A    
C5    C67   S    
C76   H40   S    
C60   C62   A    
C10   C11   A    
C83   H60   S    
C57   H16   S    
C62   C63   A    
O9    C4    A    
C23   C30   S    
C76   H41   S    
C86   H65   S    
V2    O10   S    
O7    V2    S    
O24   C78   S    
C5    C9    A    
