data_mof_unit_6021.cif
_audit_creation_date              2012-12-11T16:22:11-0500
_audit_creation_method            fapswitch 2.2
_symmetry_space_group_name_H-M    P1
_symmetry_Int_Tables_number       1
_space_group_crystal_system       triclinic
_cell_length_a                    13.532394
_cell_length_b                    14.019761
_cell_length_c                    30.042278
_cell_angle_alpha                 97.931552
_cell_angle_beta                  90.060315
_cell_angle_gamma                 118.865467
_cell_volume                      4928.68175371

loop_
_atom_site_label
_atom_site_type_symbol
_atom_type_description
_atom_site_fract_x
_atom_site_fract_y
_atom_site_fract_z
_atom_type_partial_charge
C1    C     C_R   0.721531 0.099198 0.568989 0.553601
C2    C     C_1   0.308125 0.645903 0.760635 0.020010
C3    C     C_3   0.907569 0.953051 0.591090 -0.460434
C4    C     C_2   0.059084 0.272975 0.777975 0.578571
C5    C     C_2   0.246621 0.796083 0.210910 0.596346
C6    C     C_2   0.127439 0.609406 0.272932 0.584792
C7    C     C_3   0.494795 0.977360 0.257170 0.016563
C8    C     C_3   0.546281 0.974645 0.211718 -0.280875
C9    C     C_3   0.557786 0.068306 0.187888 -0.456088
C10   C     C_3   0.153614 0.390254 0.234440 0.031062
C11   C     C_3   0.217068 0.375787 0.273142 -0.296782
C12   C     C_3   0.137197 0.280550 0.296792 -0.458210
C13   C     C_1   0.313190 0.654940 0.721550 0.093241
C14   C     C_2   0.118235 0.003133 0.164035 0.602528
C15   C     C_3   0.059505 0.595783 0.664862 0.043732
C16   C     C_3   0.048895 0.613328 0.715725 -0.269148
C17   C     C_3   0.953745 0.639868 0.726396 -0.464308
C18   C     C_3   0.429771 0.375198 0.446235 0.009486
C19   C     C_3   0.403754 0.454111 0.424410 -0.297461
C20   C     C_3   0.352758 0.508198 0.457299 -0.436049
C21   C     C_2   0.516573 0.335235 0.194601 0.605295
C22   C     C_3   0.547894 0.282957 0.069290 0.049299
C23   C     C_3   0.576975 0.204165 0.089797 -0.272890
C24   C     C_R   0.382806 0.786840 0.550280 0.599113
C25   C     C_3   0.610967 0.139910 0.054090 -0.487568
C26   C     C_2   0.909771 0.403501 0.103056 0.654940
C27   C     C_2   0.830044 0.369829 0.193164 0.639800
C28   C     C_3   0.748465 0.362222 0.413385 0.038760
C29   C     C_3   0.819760 0.484584 0.409637 -0.271548
C30   C     C_3   0.745299 0.534836 0.400301 -0.461112
C31   C     C_2   0.160941 0.587828 0.561383 0.609999
C32   C     C_2   0.832169 0.007367 0.170865 0.614949
C33   C     C_3   0.761429 0.974187 0.043526 0.045669
C34   C     C_3   0.649917 0.883365 0.056994 -0.265275
C35   C     C_R   0.301018 0.598412 0.896629 0.004424
C36   C     C_3   0.557666 0.833941 0.018246 -0.476417
C37   C     C_3   0.528560 0.565087 0.881279 0.018032
C38   C     C_3   0.576548 0.512119 0.846059 -0.272839
C39   C     C_3   0.705529 0.577945 0.848526 -0.471967
C40   C     C_3   0.597407 0.733235 0.688265 0.020924
C41   C     C_3   0.566088 0.643454 0.717834 -0.270863
C42   C     C_3   0.648317 0.597786 0.714622 -0.479660
C43   C     C_3   0.245650 0.189848 0.725515 -0.104531
C44   C     C_3   0.215909 0.093933 0.752714 -0.087067
C45   C     C_1   0.297109 0.199665 0.876262 0.025199
C46   C     C_1   0.362446 0.139693 0.612930 0.020959
C47   C     C_3   0.343260 0.269350 0.761565 -0.108051
C48   C     C_3   0.314192 0.173315 0.787840 0.024488
C49   C     C_R   0.328051 0.671348 0.675622 0.043581
C50   C     C_3   0.426143 0.240443 0.735371 -0.113132
C51   C     C_3   0.328315 0.160937 0.699986 0.004689
C52   C     C_3   0.397325 0.144960 0.762508 -0.077433
C53   C     C_R   0.396837 0.119474 0.569287 0.543797
C54   C     C_3   0.299571 0.066451 0.726803 0.077886
C55   C     C_1   0.306016 0.183302 0.836526 -0.020390
C56   C     C_1   0.342441 0.152093 0.651627 -0.015261
C57   C     C_3   0.881872 0.266172 0.734435 -0.166824
C58   C     C_3   0.782657 0.226947 0.765396 -0.000911
C59   C     C_1   0.890662 0.201926 0.879667 0.036490
C60   C     C_R   0.234753 0.624829 0.643401 0.202533
C61   C     C_1   0.770392 0.130649 0.614237 0.021626
C62   C     C_3   0.936624 0.214004 0.761317 0.040260
C63   C     C_3   0.837980 0.176100 0.792162 -0.051040
C64   C     C_3   0.872378 0.103771 0.729119 0.285707
C65   C     C_R   0.720426 0.095395 0.442833 0.569371
C66   C     C_3   0.817173 0.154639 0.702278 -0.058909
C67   C     C_3   0.773468 0.066299 0.759837 0.282851
C68   C     C_3   0.717581 0.116294 0.732892 0.023699
C69   C     C_1   0.859834 0.189009 0.840796 0.037474
C70   C     C_1   0.797979 0.145770 0.653662 -0.008877
C71   C     C_R   0.252757 0.648897 0.598653 0.013249
C72   C     C_3   0.243724 0.644347 0.257587 0.016932
C73   C     C_3   0.302757 0.737878 0.229066 0.004937
C74   C     C_1   0.311501 0.611308 0.110538 0.064078
C75   C     C_1   0.368192 0.739224 0.377841 0.022541
C76   C     C_3   0.285613 0.574093 0.228095 0.268539
C77   C     C_R   0.382543 0.784952 0.424326 0.545745
C78   C     C_3   0.344225 0.666946 0.199509 -0.003766
C79   C     C_3   0.396116 0.623261 0.258937 -0.143864
C80   C     C_3   0.354132 0.693980 0.288515 -0.009780
C81   C     C_3   0.455062 0.716985 0.230176 -0.137861
C82   C     C_R   0.259522 0.680300 0.837713 -0.138313
C83   C     C_3   0.412851 0.787155 0.260082 0.248883
C84   C     C_1   0.331753 0.642394 0.150397 0.068029
C85   C     C_1   0.360904 0.713772 0.337673 0.031382
C86   C     C_R   0.354275 0.135111 0.402182 0.013918
C87   C     C_R   0.408057 0.240355 0.388482 0.259807
C88   C     C_R   0.391669 0.248841 0.343636 -0.100685
C89   C     C_R   0.395504 0.115243 0.443431 0.542405
C90   C     C_R   0.317246 0.155531 0.313490 -0.026855
C91   C     C_R   0.253844 0.054371 0.328187 -0.117284
C92   C     C_R   0.272223 0.043986 0.372359 -0.172345
C93   C     C_R   0.257105 0.664786 0.883010 0.000551
C94   C     C_R   0.220782 0.098594 0.150310 0.005742
C95   C     C_R   0.219091 0.118480 0.106121 -0.174723
C96   C     C_R   0.412557 0.269155 0.118410 0.267613
C97   C     C_R   0.413841 0.256926 0.164086 0.042634
C98   C     C_R   0.317012 0.172352 0.180054 -0.077234
C99   C     C_1   0.314808 0.165973 0.227227 0.069550
C100  C     C_1   0.314190 0.161372 0.266688 0.044460
C101  C     C_R   0.362573 0.728703 0.589374 -0.085785
C102  C     C_R   0.310893 0.206948 0.090709 -0.042462
C103  C     C_R   0.777644 0.130214 0.401739 0.037709
C104  C     C_R   0.361284 0.563429 0.866022 0.228718
C105  C     C_R   0.780649 0.049512 0.369122 -0.158518
C106  C     C_R   0.805919 0.069961 0.325556 -0.114655
C107  C     C_R   0.830743 0.171786 0.314318 -0.023444
C108  C     C_R   0.838517 0.256425 0.347068 -0.106219
C109  C     C_R   0.810330 0.236147 0.391068 0.257229
C110  C     C_R   0.854251 0.287599 0.164514 -0.019988
C111  C     C_R   0.881265 0.298345 0.119242 -0.036988
C112  C     C_R   0.851184 0.108687 0.106471 0.231817
C113  C     C_R   0.454259 0.767879 0.621470 -0.151653
C114  C     C_R   0.842584 0.105460 0.152783 0.048399
C115  C     C_R   0.362121 0.580249 0.821344 -0.084021
C116  C     C_R   0.847771 0.196149 0.181728 -0.108476
C117  C     C_1   0.843562 0.192388 0.229082 0.053896
C118  C     C_1   0.839712 0.185628 0.268314 0.034473
C119  C     C_R   0.888015 0.211466 0.090939 -0.069522
C120  C     C_R   0.284059 0.232654 0.922003 0.553808
C121  C     C_R   0.266771 0.547790 0.938079 0.591981
C122  C     C_R   0.943877 0.221482 0.923398 0.538115
C123  C     C_R   0.291998 0.243184 0.049201 0.545311
C124  C     C_R   0.275579 0.559244 0.064896 0.544269
C125  C     C_R   0.438159 0.736654 0.663917 0.253289
C126  C     C_R   0.308714 0.634998 0.807059 -0.024465
C127  C     C_R   0.951871 0.231967 0.049654 0.549124
C128  C     C_2   0.211650 0.721163 0.915402 0.589847
C129  C     C_2   0.274971 0.951753 0.708504 0.578885
C130  C     C_2   0.732578 0.295824 0.785815 0.574876
C131  C     C_2   0.597028 0.066486 0.714662 0.578919
C132  C     C_3   0.641502 0.944832 0.803349 0.043682
C133  C     C_3   0.668500 0.900864 0.842841 -0.278902
C134  C     C_3   0.588848 0.889892 0.880101 -0.487433
C135  C     C_3   0.957292 0.041888 0.672763 0.003872
C136  C     C_3   0.869651 0.945169 0.638874 -0.263912
Cr1   Cr    Cr6+3 0.583430 0.162610 0.509470 1.061854
Cr2   Cr    Cr6+3 0.584210 0.916680 0.495400 1.008329
Cr3   Cr    Cr6+3 0.332380 0.920740 0.495100 1.051122
Cr4   Cr    Cr6+3 0.086810 0.177030 0.983130 1.051969
Cr5   Cr    Cr6+3 0.337180 0.419300 0.994610 1.057365
Cr6   Cr    Cr6+3 0.084840 0.422330 0.995830 1.095527
H1    H     H_    0.185693 0.210842 0.710029 0.145414
H2    H     H_    0.195160 0.982155 0.304876 0.204173
H3    H     H_    0.737589 0.539113 0.821917 0.187839
H4    H     H_    0.742034 0.579570 0.881934 0.166197
H5    H     H_    0.686472 0.798162 0.697972 0.204121
H6    H     H_    0.594336 0.698801 0.652159 0.095055
H7    H     H_    0.567616 0.678392 0.753537 0.175226
H8    H     H_    0.479151 0.574940 0.706989 0.155767
H9    H     H_    0.648755 0.562736 0.679178 0.154874
H10   H     H_    0.621979 0.531430 0.735614 0.158722
H11   H     H_    0.735172 0.664102 0.727077 0.161273
H12   H     H_    0.228231 0.962729 0.382016 0.158844
H13   H     H_    0.439785 0.327621 0.332098 0.129847
H14   H     H_    0.862427 0.336414 0.337972 0.135895
H15   H     H_    0.755577 0.967553 0.376255 0.148988
H16   H     H_    0.800916 0.004584 0.300118 0.164277
H17   H     H_    0.538536 0.828502 0.614747 0.154003
H18   H     H_    0.401557 0.547253 0.797246 0.109813
H19   H     H_    0.129639 0.033156 0.760219 0.167680
H20   H     H_    0.216306 0.791348 0.979303 0.342914
H21   H     H_    0.459031 0.126417 0.778280 0.160006
H22   H     H_    0.258134 0.842087 0.654117 0.328896
H23   H     H_    0.679129 0.349388 0.841457 0.327624
H24   H     H_    0.488394 0.072778 0.671077 0.352758
H25   H     H_    0.556257 0.882241 0.787487 0.214162
H26   H     H_    0.636926 0.021066 0.816187 0.132406
H27   H     H_    0.660606 0.818758 0.830595 0.160013
H28   H     H_    0.757036 0.957626 0.856953 0.189195
H29   H     H_    0.598217 0.971789 0.893883 0.160181
H30   H     H_    0.609675 0.856285 0.907848 0.138739
H31   H     H_    0.499787 0.833021 0.866848 0.160144
H32   H     H_    0.511428 0.301719 0.727335 0.183761
H33   H     H_    0.035468 0.034746 0.673225 0.150780
H34   H     H_    0.981833 0.123019 0.662170 0.125498
H35   H     H_    0.857787 0.866524 0.648262 0.158297
H36   H     H_    0.786721 0.943235 0.639828 0.174517
H37   H     H_    0.919666 0.030881 0.580812 0.162166
H38   H     H_    0.841993 0.882415 0.567327 0.155061
H39   H     H_    0.988297 0.950575 0.589135 0.153919
H40   H     H_    0.178134 0.283736 0.821407 0.341403
H41   H     H_    0.205868 0.845043 0.157037 0.358597
H42   H     H_    0.025663 0.576466 0.324091 0.332234
H43   H     H_    0.360930 0.353347 0.776590 0.134273
H44   H     H_    0.551138 0.058620 0.278021 0.169741
H45   H     H_    0.411991 0.974413 0.253353 0.170314
H46   H     H_    0.630781 0.981766 0.217486 0.183898
H47   H     H_    0.492061 0.896040 0.189040 0.176478
H48   H     H_    0.473307 0.060402 0.180886 0.172423
H49   H     H_    0.595849 0.064718 0.155427 0.136663
H50   H     H_    0.613199 0.149248 0.208990 0.200309
H51   H     H_    0.103809 0.308631 0.212827 0.176582
H52   H     H_    0.090450 0.413742 0.247232 0.175631
H53   H     H_    0.285212 0.360039 0.259747 0.179584
H54   H     H_    0.926498 0.348102 0.723510 0.164182
H55   H     H_    0.255458 0.451650 0.298685 0.155443
H56   H     H_    0.070913 0.297235 0.311541 0.169270
H57   H     H_    0.185283 0.272270 0.324555 0.148719
H58   H     H_    0.096873 0.201862 0.272751 0.199452
H59   H     H_    0.963545 0.871690 0.145133 0.369980
H60   H     H_    0.974009 0.536564 0.648213 0.193684
H61   H     H_    0.086817 0.674561 0.651544 0.135883
H62   H     H_    0.032209 0.538249 0.729761 0.190054
H63   H     H_    0.129140 0.682576 0.732577 0.207256
H64   H     H_    0.969299 0.715526 0.712975 0.161198
H65   H     H_    0.223635 0.727931 0.826273 0.169115
H66   H     H_    0.949794 0.654008 0.763488 0.175208
H67   H     H_    0.871078 0.569941 0.711372 0.165957
H68   H     H_    0.487453 0.422078 0.477067 0.153011
H69   H     H_    0.351054 0.309052 0.457646 0.121555
H70   H     H_    0.482969 0.519302 0.413269 0.166602
H71   H     H_    0.342805 0.408039 0.394388 0.154815
H72   H     H_    0.273581 0.444301 0.468959 0.176839
H73   H     H_    0.332313 0.562535 0.440216 0.169120
H74   H     H_    0.413737 0.558875 0.486894 0.158700
H75   H     H_    0.644468 0.491225 0.211612 0.352278
H76   H     H_    0.541239 0.748038 0.218212 0.141196
H77   H     H_    0.625049 0.344490 0.055609 0.199282
H78   H     H_    0.484363 0.236961 0.040027 0.118203
H79   H     H_    0.646680 0.251753 0.116609 0.210948
H80   H     H_    0.502571 0.143074 0.105000 0.142316
H81   H     H_    0.540633 0.089613 0.027559 0.151104
H82   H     H_    0.629446 0.083873 0.070561 0.134921
H83   H     H_    0.687325 0.196307 0.038387 0.188928
H84   H     H_    0.877667 0.479113 0.057103 0.342109
H85   H     H_    0.823547 0.442389 0.255264 0.353504
H86   H     H_    0.693263 0.354688 0.441505 0.209542
H87   H     H_    0.434707 0.577016 0.271585 0.123029
H88   H     H_    0.690766 0.316661 0.382156 0.139509
H89   H     H_    0.873112 0.529886 0.441632 0.185736
H90   H     H_    0.876668 0.494745 0.381989 0.160050
H91   H     H_    0.690211 0.490169 0.368665 0.173280
H92   H     H_    0.799541 0.622658 0.396583 0.147074
H93   H     H_    0.691732 0.530887 0.428727 0.173783
H94   H     H_    0.119705 0.535474 0.494487 0.344325
H95   H     H_    0.754704 0.841647 0.165559 0.338565
H96   H     H_    0.789600 0.936645 0.014837 0.161936
H97   H     H_    0.748144 0.037879 0.030437 0.101058
H98   H     H_    0.142822 0.067579 0.084007 0.208782
H99   H     H_    0.663614 0.816604 0.066559 0.218245
H100  H     H_    0.620925 0.917525 0.086502 0.178848
H101  H     H_    0.541733 0.898613 0.007839 0.160955
H102  H     H_    0.477902 0.769417 0.029251 0.173971
H103  H     H_    0.583052 0.795520 0.988890 0.138764
H104  H     H_    0.560310 0.564831 0.915363 0.159916
H105  H     H_    0.562055 0.653628 0.877767 0.102376
H106  H     H_    0.549563 0.426473 0.851599 0.177924
H107  H     H_    0.543234 0.508336 0.811775 0.147637
H108  H     H_    0.733695 0.663790 0.842957 0.151335
O1    O     O_R   0.493980 0.188910 0.559650 -0.508646
O2    O     O_R   0.170560 0.527890 0.952050 -0.478959
O3    O     O_R   0.987620 0.318470 0.945550 -0.487274
O4    O     O_R   0.678640 0.153520 0.554450 -0.472111
O5    O     O_R   0.976400 0.159270 0.031530 -0.479105
O6    O     O_R   0.194000 0.188570 0.028560 -0.508273
O7    O     O_R   0.365260 0.335720 0.039020 -0.471079
O8    O     O_R   0.330440 0.515580 0.044910 -0.505976
O9    O     O_R   0.177310 0.536200 0.050190 -0.465843
O10   O     O_R   0.993870 0.326170 0.036530 -0.471901
O11   O     O_3   0.169610 0.339550 0.991190 -0.268110
O12   O     O_R   0.480180 0.824400 0.444640 -0.504119
O13   O     O_R   0.698130 0.004030 0.549500 -0.530882
O14   O     O_R   0.481060 0.827210 0.535360 -0.510989
O15   O     O_R   0.309260 0.811560 0.537660 -0.468514
O16   O     O_R   0.341620 0.023400 0.546290 -0.488201
O17   O     O_R   0.493030 0.185890 0.461780 -0.491023
O18   O     O_R   0.677760 0.150720 0.463730 -0.462474
O19   O     O_R   0.697180 0.001010 0.451640 -0.530576
O20   O     O_2   0.140532 0.743163 0.902259 -0.516399
O21   O     O_R   0.253007 0.752720 0.960740 -0.702504
O22   O     O_2   0.261258 0.887470 0.734520 -0.532154
O23   O     O_R   0.308310 0.808540 0.439800 -0.488752
O24   O     O_R   0.269577 0.919402 0.662084 -0.715642
O25   O     O_2   0.706926 0.345961 0.762187 -0.546647
O26   O     O_R   0.715313 0.302111 0.831708 -0.714494
O27   O     O_2   0.524293 0.980745 0.725566 -0.483818
O28   O     O_R   0.569427 0.118455 0.684314 -0.689664
O29   O     O_3   0.721389 0.958680 0.771002 -0.524939
O30   O     O_3   0.918609 0.033398 0.716352 -0.546099
O31   O     O_2   0.124454 0.359394 0.765147 -0.544259
O32   O     O_R   0.096850 0.231036 0.809486 -0.687200
O33   O     O_2   0.201607 0.836400 0.236443 -0.485701
O34   O     O_R   0.340740 0.020600 0.455570 -0.515822
O35   O     O_R   0.245778 0.803675 0.165051 -0.692034
O36   O     O_2   0.050320 0.588256 0.245440 -0.438456
O37   O     O_R   0.107672 0.601403 0.318237 -0.714511
O38   O     O_3   0.488429 0.895787 0.281721 -0.563428
O39   O     O_3   0.227018 0.462961 0.206311 -0.548346
O40   O     O_2   0.112659 0.983351 0.202603 -0.470682
O41   O     O_R   0.027343 0.934071 0.132156 -0.666416
O42   O     O_3   0.129766 0.547618 0.654862 -0.540248
O43   O     O_3   0.486499 0.333441 0.416881 -0.590396
O44   O     O_2   0.547603 0.303963 0.225087 -0.565758
O45   O     O_3   0.500010 0.000010 0.499990 -0.257290
O46   O     O_R   0.577757 0.445578 0.188417 -0.611468
O47   O     O_3   0.512210 0.341763 0.101581 -0.493987
O48   O     O_2   0.984749 0.490826 0.123479 -0.427640
O49   O     O_R   0.850629 0.402495 0.064675 -0.715577
O50   O     O_2   0.791977 0.420036 0.175501 -0.460283
O51   O     O_R   0.846881 0.387819 0.240174 -0.689909
O52   O     O_3   0.820161 0.319969 0.424413 -0.565702
O53   O     O_2   0.061419 0.542525 0.569380 -0.508169
O54   O     O_R   0.188780 0.579349 0.516716 -0.713577
O55   O     O_2   0.892292 0.019647 0.203960 -0.521936
O56   O     O_R   0.969650 0.150960 0.933380 -0.514634
O57   O     O_R   0.754176 0.901106 0.149969 -0.701207
O58   O     O_3   0.847414 0.017805 0.079344 -0.494006
O59   O     O_3   0.408784 0.501757 0.878158 -0.548511
O60   O     O_3   0.528577 0.783293 0.696265 -0.520969
O61   O     O_R   0.187740 0.180870 0.937580 -0.485979
O62   O     O_R   0.358510 0.327410 0.940870 -0.493127
O63   O     O_R   0.324180 0.507870 0.953930 -0.468302

loop_
_geom_bond_atom_site_label_1
_geom_bond_atom_site_label_2
_ccdc_geom_bond_type
C96   C102  A    
C24   O15   A    
C101  C113  A    
C7    H44   S    
C19   C20   S    
C76   C79   S    
C28   H86   S    
C87   O43   S    
C49   C60   A    
C17   H64   S    
C18   H68   S    
C11   H53   S    
C40   O60   S    
C38   H107  S    
C41   H7    S    
C106  C107  A    
C15   O42   S    
C108  C109  A    
C53   O1    A    
C110  C111  A    
C62   C64   S    
C7    O38   S    
C1    O13   A    
C27   C110  S    
C14   O40   D    
C50   C52   S    
Cr5   O8    S    
C30   H93   S    
C95   C102  A    
H59   O41   S    
C129  O24   S    
C21   O46   S    
C128  O20   D    
C80   C83   S    
C32   O55   D    
Cr5   O63   S    
C19   H70   S    
C20   H73   S    
C77   O23   A    
Cr1   O45   S    
C35   C104  A    
C10   H51   S    
C64   C66   S    
C68   C131  S    
C43   C44   S    
C37   C38   S    
C21   C97   S    
H95   O57   S    
C23   H80   S    
C112  O58   S    
Cr5   O62   S    
C39   H3    S    
Cr6   O3    S    
C123  O6    A    
C59   C69   T    
C45   C120  S    
C18   O43   S    
C133  H28   S    
C120  O61   A    
C22   O47   S    
C44   H19   S    
C102  C123  S    
C28   H88   S    
C1    O4    A    
C109  O52   S    
C40   H5    S    
C36   H101  S    
Cr5   O11   S    
C17   H66   S    
C29   H90   S    
C72   C73   S    
H40   O32   S    
C15   H61   S    
C37   H105  S    
C115  H18   S    
C6    O37   S    
C31   O53   D    
C66   C70   S    
C46   C53   S    
C25   H83   S    
C26   O49   S    
C96   O47   S    
C30   H91   S    
C52   H21   S    
C48   C52   S    
C98   C99   S    
C12   H56   S    
C22   C23   S    
C16   H62   S    
C65   O18   A    
C43   C47   S    
C26   C111  S    
C73   C83   S    
C44   C48   S    
Cr4   O56   S    
C22   H77   S    
C32   O57   S    
C57   C66   S    
C122  O3    A    
C112  C114  A    
C97   C98   A    
C7    C8    S    
C123  O7    A    
C127  O5    A    
C7    H45   S    
C76   C78   S    
C38   C39   S    
Cr4   O61   S    
C111  C119  A    
C3    C136  S    
C79   H87   S    
C131  O28   S    
C33   H96   S    
C63   C69   S    
C124  O9    A    
C4    O32   S    
C107  C108  A    
Cr6   O11   S    
C107  C118  S    
C59   C122  S    
C31   C71   S    
Cr3   O15   S    
C134  H30   S    
C34   H99   S    
C36   H103  S    
C81   C83   S    
C33   C34   S    
C47   C50   S    
H20   O21   S    
C23   H79   S    
C16   H63   S    
C91   C92   A    
C136  H35   S    
C19   H71   S    
C20   H72   S    
C3    H38   S    
C29   C30   S    
C38   H106  S    
C12   H58   S    
C103  C105  A    
Cr4   O5    S    
C113  H17   S    
C42   H9    S    
C75   C77   S    
Cr2   O14   S    
H42   O37   S    
C4    O31   D    
C65   C103  S    
C130  O26   S    
C89   O34   A    
C74   C84   T    
Cr2   O45   S    
C114  C116  A    
C99   C100  T    
C134  H29   S    
C135  H34   S    
C18   H69   S    
C93   C128  S    
C72   C80   S    
C9    H49   S    
C117  C118  T    
C57   C58   S    
C39   H108  S    
C64   O30   S    
C34   C36   S    
Cr6   O9    S    
C5    C73   S    
C10   C11   S    
C44   C54   S    
C45   C55   T    
C46   C56   T    
C14   O41   S    
C122  O56   A    
Cr5   O7    S    
Cr3   O23   S    
C67   O29   S    
C119  C127  S    
C61   C70   T    
C48   C55   S    
C74   C124  S    
C87   C88   A    
C41   C42   S    
C43   H1    S    
H85   O51   S    
C132  H25   S    
C135  C136  S    
C8    H46   S    
C6    C72   S    
C115  C126  A    
Cr3   O34   S    
C20   H74   S    
H22   O24   S    
C28   C29   S    
C110  C116  A    
C17   H67   S    
C10   H52   S    
Cr1   O18   S    
C94   C98   A    
C4    C62   S    
C25   H82   S    
C18   C19   S    
C132  O29   S    
C133  H27   S    
C82   C126  A    
C75   C85   T    
C105  H15   S    
Cr2   O12   S    
C16   C17   S    
C47   H43   S    
Cr1   O4    S    
C71   C101  A    
C124  O8    A    
C82   C93   A    
C120  O62   A    
H94   O54   S    
Cr6   O2    S    
C77   O12   A    
C40   H6    S    
C57   H54   S    
C67   C68   S    
C36   H102  S    
C35   C121  S    
C29   H89   S    
C86   C87   A    
C121  O2    A    
C41   H8    S    
C60   C71   A    
C37   H104  S    
C135  O30   S    
C89   O17   A    
C88   H13   S    
H75   O46   S    
C80   C85   S    
C104  C115  A    
C108  H14   S    
C8    H47   S    
C50   C51   S    
C30   H92   S    
C33   O58   S    
C3    H39   S    
C28   O52   S    
C58   C68   S    
C60   O42   S    
C88   C90   A    
C133  C134  S    
C9    H48   S    
C22   H78   S    
C27   O50   D    
C86   C89   S    
C1    C61   S    
C112  C119  A    
C49   C125  A    
C105  C106  A    
C103  C109  A    
C129  O22   D    
Cr3   O45   S    
C78   C81   S    
C43   C51   S    
C90   C91   A    
C58   C130  S    
C39   H4    S    
C95   H98   S    
H23   O26   S    
C94   C95   A    
C131  O27   D    
H41   O35   S    
C92   H12   S    
C125  O60   S    
C14   C94   S    
C53   O16   A    
Cr2   O19   S    
C66   C68   S    
C134  H31   S    
C34   H100  S    
C72   C76   S    
C57   C62   S    
C62   C63   S    
H84   O49   S    
C6    O36   D    
C24   C101  S    
C31   O54   S    
C113  C125  A    
C121  O63   A    
C15   C16   S    
C136  H36   S    
C116  C117  S    
C26   O48   D    
C51   C56   S    
C2    C13   T    
C3    H37   S    
C132  C133  S    
C73   C78   S    
Cr4   O6    S    
C9    H50   S    
C65   O19   A    
C5    O35   S    
C90   C100  S    
C82   H65   S    
Cr1   O1    S    
C52   C54   S    
C10   O39   S    
C35   C93   A    
C63   C67   S    
C64   C67   S    
C42   H11   S    
C79   C81   S    
C8    C9    S    
C106  H16   S    
C135  H33   S    
C11   H55   S    
C33   H97   S    
C47   C48   S    
C96   C97   A    
C24   O14   A    
C104  O59   S    
Cr6   O10   S    
C76   O39   S    
C13   C49   S    
C2    C126  S    
C40   C41   S    
Cr3   O16   S    
Cr4   O11   S    
C128  O21   S    
C15   H60   S    
C42   H10   S    
C91   H2    S    
C58   C63   S    
C54   C129  S    
C5    O33   D    
C21   O44   D    
C132  H26   S    
C11   C12   S    
C50   H32   S    
C51   C54   S    
C37   O59   S    
C27   O51   S    
C86   C92   A    
Cr1   O17   S    
C81   H76   S    
C12   H57   S    
C25   H81   S    
C23   C25   S    
C79   C80   S    
C78   C84   S    
Cr2   O13   S    
C127  O10   A    
C32   C114  S    
C130  O25   D    
H24   O28   S    
C83   O38   S    
