data_mof_unit_7740.cif
_audit_creation_date              2012-12-11T17:41:39-0500
_audit_creation_method            fapswitch 2.2
_symmetry_space_group_name_H-M    P1
_symmetry_Int_Tables_number       1
_space_group_crystal_system       triclinic
_cell_length_a                    15.52211
_cell_length_b                    14.816497
_cell_length_c                    15.050353
_cell_angle_alpha                 109.646516
_cell_angle_beta                  121.460989
_cell_angle_gamma                 59.205281
_cell_volume                      2524.94340842

loop_
_atom_site_label
_atom_site_type_symbol
_atom_type_description
_atom_site_fract_x
_atom_site_fract_y
_atom_site_fract_z
_atom_type_partial_charge
C1    C     C_R   0.761538 0.989097 0.790810 0.701352
C2    C     C_R   0.289782 0.304701 0.101849 -0.129042
C3    C     C_R   0.632700 0.682617 0.827319 -0.149461
C4    C     C_R   0.364137 0.202259 0.085145 -0.112578
C5    C     C_R   0.660045 0.742810 0.924659 0.103055
C6    C     C_R   0.324524 0.125663 0.019320 0.098818
C7    C     C_R   0.772410 0.712105 0.997799 -0.143766
C8    C     C_R   0.209593 0.153163 0.969972 -0.157764
C9    C     C_R   0.855565 0.623559 0.973575 -0.090184
C10   C     C_R   0.135729 0.255306 0.988475 -0.024604
C11   C     C_R   0.827510 0.564761 0.876469 -0.098954
C12   C     C_R   0.196191 0.065255 0.228460 0.668669
C13   C     C_R   0.175813 0.331087 0.054313 -0.076799
C14   C     C_R   0.571721 0.854829 0.046074 -0.243136
C15   C     C_R   0.398333 0.998113 0.898741 -0.228110
C16   C     C_R   0.244331 0.291066 0.491428 -0.094034
C17   C     C_R   0.802119 0.726290 0.561308 -0.130987
C18   C     C_R   0.490438 0.946174 0.070624 0.075656
C19   C     C_R   0.486229 0.914799 0.877757 0.071045
C20   C     C_R   0.402704 0.018844 0.996025 0.010908
C21   C     C_R   0.571590 0.838335 0.949134 0.026995
C22   C     C_2   0.152961 0.398452 0.615610 -0.210352
C23   C     C_R   0.213303 0.300435 0.566899 0.135707
C24   C     C_2   0.979478 0.655135 0.540767 -0.219936
C25   C     C_2   0.136254 0.491470 0.601653 -0.108682
C26   C     C_2   0.041266 0.585130 0.611398 -0.105273
C27   C     C_2   0.855312 0.114132 0.899879 -0.163991
C28   C     C_2   0.012458 0.052999 0.158034 -0.162013
C29   C     C_R   0.086319 0.729755 0.196793 -0.139707
C30   C     C_R   0.797358 0.110034 0.352823 -0.119900
C31   C     C_R   0.186502 0.662195 0.267903 -0.178523
C32   C     C_R   0.699602 0.200462 0.345782 -0.140159
C33   C     C_R   0.288077 0.635352 0.268796 0.110074
C34   C     C_R   0.864142 0.727172 0.521143 0.149497
C35   C     C_R   0.703253 0.287118 0.421829 0.113698
C36   C     C_R   0.287155 0.678839 0.198179 -0.148180
C37   C     C_R   0.806623 0.282072 0.504159 -0.176652
C38   C     C_R   0.186715 0.746476 0.127345 -0.094336
C39   C     C_R   0.904220 0.191552 0.510626 -0.102890
C40   C     C_R   0.592854 0.218209 0.489864 -0.135763
C41   C     C_R   0.405587 0.769139 0.442897 -0.130963
C42   C     C_R   0.086357 0.771061 0.125985 -0.090943
C43   C     C_R   0.899588 0.105627 0.435090 -0.089391
C44   C     C_R   0.398608 0.464682 0.346081 -0.258543
C45   C     C_R   0.501667 0.300664 0.431842 0.049456
C46   C     C_R   0.595765 0.480732 0.417743 -0.238604
C47   C     C_R   0.500797 0.380776 0.393457 0.059148
C48   C     C_R   0.494779 0.570967 0.393754 0.059111
C49   C     C_R   0.599226 0.383263 0.412785 0.029224
C50   C     C_R   0.394639 0.558002 0.338897 0.036225
C51   C     C_2   0.860868 0.110029 0.990463 -0.119315
C52   C     C_2   0.952043 0.123568 0.087758 -0.120036
C53   C     C_R   0.405707 0.982249 0.709598 -0.141978
C54   C     C_R   0.592123 0.954500 0.267699 -0.133549
C55   C     C_R   0.409116 0.289884 0.411298 -0.123127
C56   C     C_R   0.496613 0.674403 0.444654 0.047790
C57   C     C_R   0.590698 0.693857 0.514867 -0.125141
C58   C     C_R   0.589367 0.910670 0.788651 -0.043673
C59   C     C_R   0.406464 0.021006 0.194970 -0.108800
C60   C     C_R   0.243623 0.199516 0.583244 -0.145094
C61   C     C_R   0.801530 0.816472 0.468699 -0.150839
C62   C     C_R   0.760005 0.083381 0.700837 -0.259131
C63   C     C_R   0.194241 0.973344 0.316452 -0.255302
C64   C     C_R   0.793560 0.065385 0.801435 -0.028570
C65   C     C_R   0.130071 0.029564 0.229346 -0.018610
C66   C     C_R   0.495230 0.928505 0.793025 0.005385
C67   C     C_R   0.497553 0.966476 0.173871 0.020823
C68   C     C_R   0.716189 0.594301 0.803381 -0.111350
F1    F     F_    0.791600 0.936557 0.867629 -0.765999
F2    F     F_    0.161470 0.143516 0.174385 -0.756774
H1    H     H_    0.979721 0.001451 0.154016 0.139409
H2    H     H_    0.177612 0.095337 0.917853 0.110595
H3    H     H_    0.941861 0.600803 0.029962 0.107157
H4    H     H_    0.047376 0.275953 0.951076 0.095048
H5    H     H_    0.636098 0.798030 0.103247 0.129665
H6    H     H_    0.333301 0.057980 0.844893 0.126648
H7    H     H_    0.011494 0.586214 0.663053 0.128799
H8    H     H_    0.177409 0.496088 0.564141 0.126096
H9    H     H_    0.010105 0.652501 0.488964 0.128285
H10   H     H_    0.110409 0.394781 0.652344 0.129172
H11   H     H_    0.008579 0.822139 0.070042 0.148369
H12   H     H_    0.904877 0.145358 0.899155 0.136950
H13   H     H_    0.975235 0.035671 0.440254 0.095520
H14   H     H_    0.231881 0.353441 0.458358 0.090322
H15   H     H_    0.830665 0.675967 0.617676 0.090799
H16   H     H_    0.008520 0.749595 0.196169 0.107005
H17   H     H_    0.793852 0.043468 0.294330 0.105267
H18   H     H_    0.184627 0.631177 0.322235 0.108070
H19   H     H_    0.621065 0.202947 0.281302 0.108581
H20   H     H_    0.364035 0.659113 0.196912 0.116422
H21   H     H_    0.811576 0.347610 0.563805 0.103662
H22   H     H_    0.186611 0.779179 0.072889 0.118457
H23   H     H_    0.892054 0.496353 0.857858 0.095280
H24   H     H_    0.983497 0.187990 0.574289 0.100319
H25   H     H_    0.321294 0.458745 0.315312 0.118358
H26   H     H_    0.672251 0.486363 0.443034 0.125228
H27   H     H_    0.679316 0.194478 0.513188 0.116829
H28   H     H_    0.318832 0.785212 0.401780 0.121918
H29   H     H_    0.319809 0.997611 0.681102 0.092869
H30   H     H_    0.677624 0.917780 0.279566 0.096507
H31   H     H_    0.324180 0.330801 0.356835 0.104713
H32   H     H_    0.676465 0.637927 0.538089 0.094536
H33   H     H_    0.673994 0.860886 0.836124 0.175799
H34   H     H_    0.118532 0.410473 0.067690 0.096311
H35   H     H_    0.320749 0.040526 0.140177 0.166903
H36   H     H_    0.231369 0.178297 0.636528 0.097926
H37   H     H_    0.831190 0.848815 0.441243 0.093776
H38   H     H_    0.773378 0.136921 0.680394 0.143588
H39   H     H_    0.163218 0.947275 0.348437 0.140188
H40   H     H_    0.980723 0.177568 0.090375 0.213620
H41   H     H_    0.811617 0.079703 0.992681 0.195826
H42   H     H_    0.694537 0.548781 0.728099 0.111622
H43   H     H_    0.320433 0.363947 0.150360 0.122630
H44   H     H_    0.546820 0.704246 0.769864 0.117319
H45   H     H_    0.452163 0.182976 0.121854 0.105954
H46   H     H_    0.795903 0.757624 0.072827 0.100839
N1    N     N_R   0.705410 0.966550 0.689210 -0.106837
N2    N     N_R   0.556610 0.796750 0.548620 -0.042212
N3    N     N_R   0.556610 0.951620 0.703500 -0.050848
N4    N     N_R   0.443390 0.048380 0.296500 -0.037510
N5    N     N_R   0.294590 0.131500 0.522480 -0.045523
N6    N     N_R   0.705410 0.868500 0.477520 -0.040599
N7    N     N_R   0.705410 0.023370 0.632390 -0.070512
N8    N     N_R   0.294590 0.976630 0.367610 -0.072454
N9    N     N_R   0.294590 0.033450 0.310790 -0.103825
N10   N     N_R   0.294590 0.188320 0.465660 -0.045616
N11   N     N_R   0.705410 0.811680 0.534340 -0.047319
N12   N     N_R   0.556610 0.157790 0.497330 -0.039312
N13   N     N_R   0.443390 0.842210 0.502670 -0.040774
N14   N     N_R   0.443390 0.997080 0.657540 -0.043536
N15   N     N_R   0.556610 0.002920 0.342460 -0.040753
N16   N     N_R   0.443390 0.203250 0.451380 -0.040984
Ni1   Ni    Ni4+2 0.629830 0.882720 0.617850 0.232956
Ni2   Ni    Ni4+2 0.370170 0.117280 0.382150 0.263186
Ni3   Ni    Ni4+2 0.629830 0.013030 0.487540 0.206294
Ni4   Ni    Ni4+2 0.370170 0.986970 0.512460 0.195887

loop_
_geom_bond_atom_site_label_1
_geom_bond_atom_site_label_2
_ccdc_geom_bond_type
N9    Ni2   S    
C41   N13   A    
C63   C65   A    
C59   N4    A    
C29   C42   A    
N4    N15   A    
C43   H13   S    
C14   C18   A    
C4    H45   S    
C3    C68   A    
N1    Ni1   S    
C33   C36   A    
C63   N8    A    
C47   C49   A    
C53   H29   S    
C15   C19   A    
C57   H32   S    
C46   C49   A    
N3    Ni1   S    
C17   H15   S    
C14   C21   A    
C35   C37   A    
C24   C26   D    
C38   C42   A    
N15   Ni3   S    
C2    H43   S    
C62   H38   S    
C44   C50   A    
C40   N12   A    
C38   H22   S    
C16   H14   S    
N3    N14   A    
C56   C57   A    
C19   C66   S    
C48   C56   S    
C68   H42   S    
N6    N11   A    
C2    C13   A    
C62   C64   A    
C59   C67   A    
C58   C66   A    
C22   C25   D    
C35   C49   S    
C31   C33   A    
N4    Ni2   S    
C44   C47   A    
C28   C52   D    
C11   H23   S    
C48   C50   A    
C15   H6    S    
C54   H30   S    
C23   C60   A    
C42   H11   S    
C9    H3    S    
N12   N16   A    
C62   N7    A    
C25   C26   S    
C27   C51   D    
C45   C47   S    
C40   C45   A    
C37   C39   A    
C46   C48   A    
C8    H2    S    
C26   H7    S    
C37   H21   S    
C51   C52   S    
C32   C35   A    
C4    C6    A    
N12   Ni3   S    
C40   H27   S    
C5    C7    A    
N8    Ni4   S    
C17   N11   A    
C39   C43   A    
C12   N9    A    
C53   N14   A    
C33   C50   S    
C10   C13   A    
C34   C61   A    
C24   C34   S    
C25   H8    S    
N7    Ni3   S    
C61   N6    A    
C7    H46   S    
C63   H39   S    
C2    C4    A    
C41   C56   A    
C54   N15   A    
N13   Ni4   S    
C24   H9    S    
C32   H19   S    
C52   H40   S    
C15   C20   A    
C5    C21   S    
C59   H35   S    
C13   H34   S    
C53   C66   A    
C9    C11   A    
N10   Ni2   S    
C29   H16   S    
N2    Ni1   S    
N16   Ni2   S    
C39   H24   S    
C30   C43   A    
C28   H1    S    
C17   C34   A    
C1    C64   A    
C60   H36   S    
C11   C68   A    
C36   H20   S    
C7    C9    A    
C12   F2    S    
C51   H41   S    
C31   H18   S    
C19   C21   A    
C22   C23   S    
C27   H12   S    
N14   Ni4   S    
N11   Ni1   S    
C3    C5    A    
C3    H44   S    
C6    C8    A    
C54   C67   A    
C16   C23   A    
C6    C20   S    
C12   C65   A    
C55   H31   S    
C14   H5    S    
C36   C38   A    
C28   C65   S    
C18   C67   S    
C22   H10   S    
N5    N10   A    
C29   C31   A    
C44   H25   S    
C30   C32   A    
C10   H4    S    
C58   N3    A    
C18   C20   A    
N5    Ni4   S    
N1    N7    A    
C60   N5    A    
C61   H37   S    
C1    F1    S    
N6    Ni3   S    
C27   C64   S    
C46   H26   S    
C45   C55   A    
C8    C10   A    
C55   N16   A    
N2    N13   A    
C41   H28   S    
N8    N9    A    
C58   H33   S    
C30   H17   S    
C1    N1    A    
C16   N10   A    
C57   N2    A    
