data_mof_unit_23765.cif
_audit_creation_date              2012-12-10T22:11:15-0500
_audit_creation_method            fapswitch 2.2
_symmetry_space_group_name_H-M    P1
_symmetry_Int_Tables_number       1
_space_group_crystal_system       triclinic
_cell_length_a                    12.134856
_cell_length_b                    12.300751
_cell_length_c                    23.128594
_cell_angle_alpha                 90.442354
_cell_angle_beta                  91.061903
_cell_angle_gamma                 90.418371
_cell_volume                      3451.5638229

loop_
_atom_site_label
_atom_site_type_symbol
_atom_type_description
_atom_site_fract_x
_atom_site_fract_y
_atom_site_fract_z
_atom_type_partial_charge
C1    C     C_R   0.656631 0.997864 0.579320 0.867885
C2    C     C_R   0.343370 0.002136 0.420680 0.867889
C3    C     C_R   0.895248 0.798324 0.132942 -0.311942
C4    C     C_R   0.104755 0.201682 0.867054 -0.311921
C5    C     C_R   0.091878 0.846870 0.194378 0.492025
C6    C     C_R   0.908121 0.153121 0.805625 0.492031
C7    C     C_R   0.086451 0.762195 0.154040 -0.305085
C8    C     C_R   0.913546 0.237797 0.845963 -0.305086
C9    C     C_R   0.899496 0.152640 0.187645 -0.073935
C10   C     C_R   0.100509 0.847369 0.812360 -0.073954
C11   C     C_R   0.903291 0.235176 0.147921 -0.284965
C12   C     C_R   0.096713 0.764833 0.852084 -0.284963
C13   C     C_R   0.104028 0.916954 0.328727 -0.060857
C14   C     C_R   0.895967 0.083050 0.671276 -0.060854
C15   C     C_R   0.186473 0.915325 0.370493 -0.186237
C16   C     C_R   0.813521 0.084679 0.629511 -0.186240
C17   C     C_R   0.857034 0.110245 0.314584 0.184610
C18   C     C_R   0.142986 0.889756 0.685423 0.184611
C19   C     C_R   0.759771 0.107516 0.346452 0.192668
C20   C     C_R   0.240253 0.892492 0.653558 0.192669
C21   C     C_3   0.994361 0.005337 0.248270 -0.066903
C22   C     C_3   0.005642 0.994662 0.751729 -0.066905
C23   C     C_R   0.649324 0.002590 0.418210 0.892773
C24   C     C_R   0.350678 0.997411 0.581791 0.892772
C25   C     C_R   0.092061 0.006440 0.291220 0.202901
C26   C     C_R   0.907944 0.993558 0.708777 0.202897
C27   C     C_R   0.258362 0.003591 0.376413 -0.023552
C28   C     C_R   0.741641 0.996408 0.623586 -0.023556
C29   C     C_R   0.895114 0.011139 0.288952 0.126394
C30   C     C_R   0.104890 0.988863 0.711048 0.126419
C31   C     C_R   0.725477 0.007180 0.370118 -0.093533
C32   C     C_R   0.274530 0.992825 0.629884 -0.093526
C33   C     C_R   0.995804 0.096744 0.203888 0.095937
C34   C     C_R   0.004198 0.903256 0.796111 0.095926
C35   C     C_R   0.001505 0.259619 0.120057 -0.039294
C36   C     C_R   0.998496 0.740381 0.879942 -0.039295
C37   C     C_R   0.992701 0.903053 0.208623 -0.121838
C38   C     C_R   0.007300 0.096946 0.791376 -0.121834
C39   C     C_R   0.990882 0.741608 0.121787 -0.167715
C40   C     C_R   0.009118 0.258391 0.878212 -0.167723
C41   C     C_R   0.992722 0.660274 0.076140 0.932810
C42   C     C_R   0.007277 0.339726 0.923859 0.932806
C43   C     C_R   0.000051 0.349031 0.079260 0.883316
C44   C     C_R   0.999949 0.650969 0.920739 0.883314
C45   C     C_R   0.168015 0.093648 0.297014 -0.173530
C46   C     C_R   0.832001 0.906341 0.702977 -0.173539
C47   C     C_R   0.249557 0.092406 0.339562 -0.199157
C48   C     C_R   0.750457 0.907584 0.660430 -0.199153
C49   C     C_R   0.847810 0.912353 0.307466 -0.171599
C50   C     C_R   0.152181 0.087650 0.692527 -0.171625
C51   C     C_R   0.768468 0.910404 0.349201 -0.277970
C52   C     C_R   0.231524 0.089601 0.650793 -0.277971
C53   C     C_R   0.091026 0.114004 0.171507 -0.211086
C54   C     C_R   0.908972 0.885988 0.828487 -0.211080
C55   C     C_R   0.095970 0.194845 0.129982 0.183231
C56   C     C_R   0.904027 0.805147 0.870012 0.183230
C57   C     C_R   0.893253 0.876557 0.177032 0.522075
C58   C     C_R   0.106750 0.123450 0.822964 0.522062
H1    H     H_    0.306228 0.160685 0.343409 0.148762
H2    H     H_    0.693794 0.839299 0.656580 0.148767
H3    H     H_    0.875907 0.834442 0.291894 0.130624
H4    H     H_    0.124075 0.165561 0.708095 0.130613
H5    H     H_    0.163114 0.065469 0.179738 0.178293
H6    H     H_    0.836880 0.934515 0.820252 0.178308
H7    H     H_    0.820393 0.135264 0.206194 0.190688
H8    H     H_    0.179614 0.864751 0.793815 0.190696
H9    H     H_    0.051392 0.846136 0.324803 0.110589
H10   H     H_    0.948594 0.153874 0.675204 0.110586
H11   H     H_    0.740642 0.832346 0.364937 0.176696
H12   H     H_    0.259338 0.167658 0.635052 0.176697
H13   H     H_    0.822529 0.783600 0.106162 0.176098
H14   H     H_    0.177476 0.216411 0.893832 0.176100
H15   H     H_    0.159017 0.713853 0.146564 0.181175
H16   H     H_    0.840978 0.286132 0.853441 0.181175
H17   H     H_    0.828382 0.280039 0.139177 0.170879
H18   H     H_    0.171624 0.719977 0.860832 0.170882
H19   H     H_    0.193154 0.845450 0.398553 0.147801
H20   H     H_    0.806832 0.154561 0.601456 0.147803
H21   H     H_    0.165076 0.164815 0.270167 0.129823
H22   H     H_    0.834949 0.835169 0.729821 0.129822
O1    O     O_R   0.621380 0.090460 0.561410 -0.625665
O2    O     O_R   0.378620 0.909540 0.438590 -0.625661
O3    O     O_R   0.617150 0.909540 0.438590 -0.627500
O4    O     O_R   0.382850 0.090460 0.561410 -0.627504
O5    O     O_R   0.619720 0.093230 0.440890 -0.624565
O6    O     O_R   0.380280 0.906770 0.559110 -0.624560
O7    O     O_R   0.618800 0.906770 0.559110 -0.630647
O8    O     O_R   0.381200 0.093230 0.440890 -0.630644
O9    O     O_R   0.087590 0.627480 0.058790 -0.630903
O10   O     O_R   0.912410 0.372520 0.941210 -0.630902
O11   O     O_R   0.905660 0.383870 0.059980 -0.629818
O12   O     O_R   0.094340 0.616130 0.940020 -0.629819
O13   O     O_R   0.092570 0.390420 0.063230 -0.625981
O14   O     O_R   0.907430 0.609580 0.936770 -0.625980
O15   O     O_R   0.900680 0.620930 0.055550 -0.634346
O16   O     O_R   0.099320 0.379070 0.944450 -0.634345
Zn1   Zn    Zn3+2 0.501730 0.123520 0.501540 0.937927
Zn2   Zn    Zn3+2 0.498270 0.876480 0.498460 0.937932
Zn3   Zn    Zn3+2 0.125690 0.504390 0.002180 0.928546
Zn4   Zn    Zn3+2 0.874310 0.495610 0.997820 0.928547
O17   O     O_3   0.798811 0.937863 0.185150 -0.614900
C59   C     C_3   0.703441 0.871806 0.189084 -0.339053
H23   H     H_    0.719305 0.794130 0.212189 0.155774
H24   H     H_    0.667172 0.855674 0.145412 0.167714
H25   H     H_    0.641198 0.916905 0.214118 0.196104
O18   O     O_3   0.201197 0.062152 0.814845 -0.614906
C60   C     C_3   0.296552 0.128224 0.810889 -0.339021
H26   H     H_    0.332826 0.144411 0.854554 0.167693
H27   H     H_    0.280665 0.205873 0.787762 0.155776
H28   H     H_    0.358800 0.083112 0.785863 0.196106
O19   O     O_3   0.192060 0.872355 0.221831 -0.604791
C61   C     C_3   0.280952 0.876789 0.183173 -0.355293
H29   H     H_    0.256622 0.908657 0.139841 0.157223
H30   H     H_    0.319213 0.795468 0.178968 0.175140
H31   H     H_    0.344715 0.932788 0.201626 0.191741
O20   O     O_3   0.807938 0.127629 0.778174 -0.604798
C62   C     C_3   0.719048 0.123195 0.816833 -0.355301
H32   H     H_    0.680787 0.204516 0.821039 0.175140
H33   H     H_    0.743382 0.091328 0.860166 0.157231
H34   H     H_    0.655285 0.067196 0.798382 0.191741
C63   C     C_3   0.917746 0.218687 0.312476 -0.939796
H35   H     H_    0.926415 0.253089 0.356884 0.252490
H36   H     H_    0.000942 0.213967 0.295885 0.242008
H37   H     H_    0.872861 0.277571 0.284903 0.239536
C64   C     C_3   0.082288 0.781308 0.687533 -0.939796
H38   H     H_    0.073633 0.746898 0.643125 0.252486
H39   H     H_    0.127178 0.722432 0.715109 0.239541
H40   H     H_    0.999088 0.786021 0.704119 0.242009
C65   C     C_3   0.201226 0.206728 0.096649 -0.884390
H41   H     H_    0.260375 0.140592 0.106545 0.217364
H42   H     H_    0.182857 0.202922 0.049451 0.251173
H43   H     H_    0.242895 0.284702 0.108245 0.254190
C66   C     C_3   0.798765 0.793258 0.903340 -0.884394
H44   H     H_    0.739612 0.859388 0.893440 0.217363
H45   H     H_    0.757105 0.715280 0.891744 0.254190
H46   H     H_    0.817125 0.797067 0.950539 0.251173
C67   C     C_3   0.693196 0.210890 0.353441 -0.866940
H47   H     H_    0.704191 0.267161 0.316820 0.224496
H48   H     H_    0.603503 0.192275 0.352256 0.239892
H49   H     H_    0.717197 0.253558 0.394288 0.254416
C68   C     C_3   0.306850 0.789130 0.646583 -0.866935
H50   H     H_    0.295874 0.732881 0.683218 0.224491
H51   H     H_    0.282853 0.746430 0.605744 0.254413
H52   H     H_    0.396540 0.807765 0.647759 0.239884

loop_
_geom_bond_atom_site_label_1
_geom_bond_atom_site_label_2
_ccdc_geom_bond_type
C16   C28   A    
C41   O9    A    
C52   H12   S    
C1    O7    A    
O17   C59   S    
C5    C37   A    
C17   C29   A    
O19   C61   S    
C19   C31   A    
C61   H30   S    
C56   C66   S    
C39   C41   S    
C29   C49   A    
C67   H48   S    
C23   O3    A    
O9    Zn3   S    
C42   O16   A    
O4    Zn1   S    
C68   H51   S    
C18   C64   S    
C20   C32   A    
C21   C33   S    
O18   C60   S    
C1    O1    A    
C22   C38   S    
O16   Zn3   S    
O20   C62   S    
C59   H25   S    
C45   C47   A    
C32   C52   A    
C63   H37   S    
O1    Zn1   S    
C17   C19   A    
C38   C58   A    
C4    C40   A    
C55   C65   S    
O3    Zn2   S    
C1    C28   S    
C50   C52   A    
C60   H26   S    
C6    C38   A    
C2    O8    A    
C2    C27   S    
C18   C30   A    
O11   Zn4   S    
C12   C36   A    
C35   C43   S    
O13   Zn3   S    
C18   C20   A    
O8    Zn1   S    
C44   O12   A    
C36   C44   S    
C65   H43   S    
C51   H11   S    
C10   H8    S    
C64   H38   S    
C30   C50   A    
C3    C39   A    
C15   H19   S    
C9    C33   A    
C60   H27   S    
C13   C25   A    
O10   Zn4   S    
C61   H29   S    
C48   H2    S    
C46   C48   A    
C53   C55   A    
C33   C53   A    
C22   C34   S    
C67   H49   S    
C54   C56   A    
C49   H3    S    
O2    Zn2   S    
C35   C55   A    
C10   C34   A    
C44   O14   A    
C7    H15   S    
C62   H34   S    
C5    C7    A    
O15   Zn4   S    
C6    C8    A    
C5    O19   S    
C49   C51   A    
C21   C29   S    
C43   O11   A    
C42   O10   A    
C23   C31   S    
C3    H13   S    
C24   C32   S    
C36   C56   A    
C66   H46   S    
C15   C27   A    
O14   Zn4   S    
C19   C67   S    
C8    H16   S    
C45   H21   S    
C14   C26   A    
C59   H24   S    
C9    C11   A    
C6    O20   S    
C63   H35   S    
C10   C12   A    
C3    C57   A    
C17   C63   S    
C34   C54   A    
C13   C15   A    
C12   H18   S    
C23   O5    A    
C66   H44   S    
C50   H4    S    
C60   H28   S    
C14   C16   A    
C2    O2    A    
C25   C45   A    
C4    H14   S    
C64   H39   S    
C65   H41   S    
C13   H9    S    
C27   C47   A    
C21   C25   S    
C28   C48   A    
C14   H10   S    
C22   C30   S    
C20   C68   S    
C31   C51   A    
C40   C42   S    
C68   H52   S    
C57   O17   S    
C67   H47   S    
O7    Zn2   S    
C62   H33   S    
C24   O4    A    
C11   H17   S    
C62   H32   S    
C46   H22   S    
C53   H5    S    
C41   O15   A    
C54   H6    S    
C64   H40   S    
C11   C35   A    
C43   O13   A    
C16   H20   S    
C59   H23   S    
O6    Zn2   S    
C9    H7    S    
C63   H36   S    
O5    Zn1   S    
C26   C46   A    
C47   H1    S    
C21   C37   S    
C22   C26   S    
C4    C58   A    
C66   H45   S    
C7    C39   A    
C8    C40   A    
C58   O18   S    
C68   H50   S    
C24   O6    A    
C61   H31   S    
C37   C57   A    
O12   Zn3   S    
C65   H42   S    
