data_mof_unit_39325.cif
_audit_creation_date              2012-10-26T19:45:31-0400
_audit_creation_method            fapswitch 2.2
_symmetry_space_group_name_H-M    P1
_symmetry_Int_Tables_number       1
_space_group_crystal_system       triclinic
_cell_length_a                    10.828142
_cell_length_b                    9.56061
_cell_length_c                    10.751126
_cell_angle_alpha                 89.74974
_cell_angle_beta                  91.153703
_cell_angle_gamma                 90.004894
_cell_volume                      1112.75948441

loop_
_atom_site_label
_atom_site_type_symbol
_atom_type_description
_atom_site_fract_x
_atom_site_fract_y
_atom_site_fract_z
_atom_type_partial_charge
C1    C     C_R   0.262207 0.499993 0.500266 0.564539
C2    C     C_R   0.420880 0.926165 0.423239 0.370616
C3    C     C_R   0.579105 0.925375 0.576145 -0.037125
C4    C     C_R   0.579348 0.073843 0.575843 -0.023692
C5    C     C_R   0.499496 0.500477 0.259927 0.555639
C6    C     C_R   0.737792 0.499998 0.500485 0.570189
C7    C     C_R   0.501524 0.499762 0.740188 0.590793
C8    C     C_3   0.487667 0.652387 0.070115 -0.240914
C9    C     C_3   0.393124 0.411438 0.069340 -0.229228
C10   C     C_3   0.492434 0.651796 0.927888 -0.258988
C11   C     C_3   0.390062 0.417194 0.926092 -0.263610
C12   C     C_3   0.625790 0.431708 0.933372 0.420625
C13   C     C_3   0.625281 0.440633 0.077714 -0.163500
C14   C     C_3   0.501133 0.501340 0.122120 -0.043017
C15   C     C_3   0.503670 0.499259 0.878504 0.049836
C16   C     C_R   0.063863 0.372890 0.501752 -0.105452
C17   C     C_R   0.063869 0.627074 0.501044 -0.105837
C18   C     C_R   0.936111 0.372888 0.501818 -0.103785
C19   C     C_R   0.936120 0.627082 0.501107 -0.108653
C20   C     C_R   0.871707 0.499989 0.501158 0.040007
C21   C     C_R   0.128287 0.499982 0.500976 0.021245
C22   C     C_R   0.420720 0.074508 0.423389 0.370750
Cl1   Cl    Cl    0.759939 0.519383 0.875496 -0.573326
Cl2   Cl    Cl    0.641177 0.251139 0.889972 -0.585397
Cl3   Cl    Cl    0.316369 0.162472 0.322456 -0.552366
Cl4   Cl    Cl    0.317159 0.838951 0.321811 -0.552439
Cu1   Cu    Cu3+1 0.500020 0.640660 0.500000 1.027205
Cu2   Cu    Cu3+1 0.500020 0.359340 0.500000 1.051344
H1    H     H_    0.642631 0.869403 0.637288 0.151162
H2    H     H_    0.640896 0.335700 0.120420 0.172130
H3    H     H_    0.111827 0.273487 0.502285 0.177543
H4    H     H_    0.111835 0.726477 0.500998 0.177838
H5    H     H_    0.888090 0.273490 0.502260 0.145578
H6    H     H_    0.888109 0.726483 0.500965 0.143560
H7    H     H_    0.562936 0.720500 0.107647 0.170951
H8    H     H_    0.404743 0.300789 0.099637 0.210788
H9    H     H_    0.643505 0.129164 0.636193 0.188469
H10   H     H_    0.398141 0.697829 0.098816 0.202259
H11   H     H_    0.303561 0.449423 0.105408 0.166114
H12   H     H_    0.406988 0.702028 0.889389 0.145739
H13   H     H_    0.303325 0.469192 0.893157 0.128863
H14   H     H_    0.571617 0.716778 0.897442 0.189126
H15   H     H_    0.387754 0.308978 0.888608 0.188159
H16   H     H_    0.702207 0.507925 0.112763 0.145933
N1    N     N_R   0.500030 0.852070 0.500030 -0.255381
N2    N     N_R   0.500030 0.147930 0.500030 -0.256317
O1    O     O_R   0.319660 0.618740 0.499990 -0.468953
O2    O     O_R   0.319660 0.381260 0.499990 -0.471276
O3    O     O_R   0.499990 0.618790 0.317690 -0.466076
O4    O     O_R   0.499990 0.381210 0.317690 -0.468689
O5    O     O_R   0.680370 0.618830 0.500010 -0.512530
O6    O     O_R   0.680370 0.381170 0.500010 -0.508462
O7    O     O_R   0.500030 0.618780 0.682310 -0.516198
O8    O     O_R   0.500030 0.381220 0.682310 -0.465792

loop_
_geom_bond_atom_site_label_1
_geom_bond_atom_site_label_2
_ccdc_geom_bond_type
C2    C22   A    
C9    H8    S    
C9    C14   S    
Cu1   O7    S    
C1    O2    A    
C1    C21   S    
C16   C21   A    
C6    O5    A    
C10   H14   S    
C6    C20   S    
C12   Cl2   S    
C19   C20   A    
C12   C15   S    
C8    H7    S    
Cu2   N2    S    
Cu1   N1    S    
C11   C15   S    
C7    C15   S    
C2    Cl4   S    
C4    N2    A    
C13   C14   S    
C12   C13   S    
C16   H3    S    
C11   H15   S    
Cu2   O6    S    
C12   Cl1   S    
C5    O3    A    
C5    C14   S    
C8    H10   S    
C8    C10   S    
C17   C19   A    
Cu1   O5    S    
C11   H13   S    
C18   C20   A    
C10   C15   S    
C9    C11   S    
C2    N1    A    
C18   H5    S    
C17   C21   A    
C5    O4    A    
C7    O7    A    
C3    C4    A    
C6    O6    A    
C13   H2    S    
C9    H11   S    
C4    H9    S    
C22   Cl3   S    
C16   C18   A    
Cu1   O1    S    
Cu1   Cu2   S    
C3    H1    S    
C17   H4    S    
Cu2   O8    S    
Cu2   O2    S    
C10   H12   S    
C8    C14   S    
C7    O8    A    
C22   N2    A    
Cu2   O4    S    
C3    N1    A    
C13   H16   S    
C1    O1    A    
Cu1   O3    S    
C19   H6    S    
