data_mof_unit_12302.cif
_audit_creation_date              2012-12-10T18:14:40-0500
_audit_creation_method            fapswitch 2.2
_symmetry_space_group_name_H-M    P1
_symmetry_Int_Tables_number       1
_space_group_crystal_system       triclinic
_cell_length_a                    10.728706
_cell_length_b                    9.449889
_cell_length_c                    27.622618
_cell_angle_alpha                 90.21996
_cell_angle_beta                  88.629979
_cell_angle_gamma                 90.183355
_cell_volume                      2799.68662733

loop_
_atom_site_label
_atom_site_type_symbol
_atom_type_description
_atom_site_fract_x
_atom_site_fract_y
_atom_site_fract_z
_atom_type_partial_charge
C1    C     C_R   0.259887 0.499770 0.502223 0.752235
C2    C     C_R   0.338251 0.464060 0.289039 -0.083851
C3    C     C_R   0.436986 0.482750 0.255682 0.336434
C4    C     C_R   0.401696 0.462514 0.104251 -0.047171
C5    C     C_R   0.362051 0.583773 0.130066 -0.020543
C6    C     C_R   0.317204 0.700047 0.104797 -0.140104
C7    C     C_R   0.442654 0.343836 0.129931 -0.040901
C8    C     C_R   0.480517 0.497590 0.355243 -0.075849
C9    C     C_R   0.491667 0.498633 0.645752 -0.097732
C10   C     C_R   0.354347 0.575732 0.976039 0.058995
C11   C     C_R   0.472485 0.353265 0.976433 -0.016904
C12   C     C_R   0.498811 0.499617 0.407598 0.817308
C13   C     C_R   0.418963 0.466213 0.950728 0.078692
C14   C     C_R   0.293961 0.680445 0.948871 -0.180432
C15   C     C_R   0.303123 0.681943 0.898656 -0.112931
C16   C     C_R   0.373528 0.579909 0.873580 -0.006685
C17   C     C_R   0.432419 0.471411 0.899386 -0.085382
C18   C     C_R   0.505650 0.369572 0.873948 -0.101891
C19   C     C_R   0.513780 0.377851 0.822803 0.589001
C20   C     C_R   0.386169 0.584168 0.823005 0.560726
C21   C     C_R   0.397902 0.396669 0.718604 -0.083538
C22   C     C_R   0.410680 0.400660 0.668317 -0.261167
C23   C     C_R   0.739931 0.500070 0.501673 0.795826
C24   C     C_R   0.561944 0.591722 0.674522 0.218586
C25   C     C_R   0.548087 0.587347 0.724963 -0.093979
C26   C     C_R   0.466122 0.490316 0.747053 0.286931
C27   C     C_R   0.354909 0.578743 0.027473 0.052870
C28   C     C_R   0.401956 0.460669 0.052854 0.063549
C29   C     C_R   0.450327 0.341331 0.027325 0.009293
C30   C     C_R   0.312528 0.697332 0.054553 -0.178765
C31   C     C_R   0.473483 0.219882 0.104721 -0.179195
C32   C     C_R   0.554574 0.262181 0.951004 -0.217010
C33   C     C_R   0.569968 0.266893 0.900855 0.312933
C34   C     C_R   0.500162 0.500094 0.592582 0.839268
C35   C     C_R   0.473789 0.215802 0.054205 -0.039106
C36   C     C_3   0.070196 0.627924 0.532609 -0.376935
C37   C     C_3   0.069639 0.362030 0.527186 -0.374536
C38   C     C_3   0.926553 0.627109 0.532982 -0.359115
C39   C     C_3   0.926223 0.361599 0.526523 -0.367155
C40   C     C_3   0.075900 0.507366 0.450846 -0.387655
C41   C     C_3   0.121965 0.499264 0.503334 0.154227
C42   C     C_3   0.878118 0.499736 0.503065 0.117437
C43   C     C_3   0.932507 0.509960 0.450825 -0.348796
C44   C     C_3   0.588981 0.084202 0.536417 -0.202087
C45   C     C_3   0.587428 0.917311 0.536951 -0.182112
C46   C     C_3   0.375625 0.083294 0.514480 -0.222154
C47   C     C_3   0.375274 0.916095 0.513946 -0.225682
C48   C     C_3   0.534384 0.083955 0.452290 -0.065595
C49   C     C_3   0.535736 0.915624 0.452432 -0.068631
C50   C     C_R   0.370861 0.586840 0.180729 0.544980
C51   C     C_R   0.449598 0.351173 0.180597 0.552835
C52   C     C_R   0.557263 0.509649 0.272029 -0.131116
C53   C     C_R   0.579825 0.517331 0.321615 -0.059326
C54   C     C_R   0.360084 0.470949 0.338592 -0.230985
Cu1   Cu    Cu3+1 0.499860 0.642410 0.500020 0.931015
Cu2   Cu    Cu3+1 0.499860 0.357590 0.500020 0.915922
H1    H     H_    0.283033 0.455032 0.364071 0.132301
H2    H     H_    0.633186 0.523560 0.245848 0.143601
H3    H     H_    0.495503 0.124393 0.124421 0.194892
H4    H     H_    0.614029 0.190432 0.969971 0.185362
H5    H     H_    0.602701 0.657636 0.747185 0.182772
H6    H     H_    0.104269 0.728793 0.516274 0.170139
H7    H     H_    0.104751 0.266852 0.507379 0.168643
H8    H     H_    0.103502 0.624428 0.570440 0.168010
H9    H     H_    0.101197 0.354440 0.565184 0.160952
H10   H     H_    0.890013 0.620473 0.570934 0.203638
H11   H     H_    0.887783 0.351596 0.564147 0.171326
H12   H     H_    0.245097 0.442933 0.276558 0.147155
H13   H     H_    0.893425 0.728641 0.517642 0.181343
H14   H     H_    0.894662 0.267392 0.505771 0.183385
H15   H     H_    0.113479 0.604114 0.432737 0.168632
H16   H     H_    0.110242 0.414344 0.429639 0.161776
H17   H     H_    0.902034 0.609949 0.434034 0.209777
H18   H     H_    0.897923 0.420718 0.428470 0.198530
H19   H     H_    0.565471 0.123789 0.573451 0.172416
H20   H     H_    0.559545 0.881752 0.573899 0.201197
H21   H     H_    0.685331 0.121704 0.528141 0.146419
H22   H     H_    0.683465 0.877181 0.530193 0.159743
H23   H     H_    0.345470 0.122433 0.550945 0.153070
H24   H     H_    0.343172 0.875839 0.549952 0.159868
H25   H     H_    0.462001 0.116478 0.426376 0.116586
H26   H     H_    0.465414 0.880244 0.425954 0.119502
H27   H     H_    0.304823 0.120672 0.488770 0.146536
H28   H     H_    0.305571 0.879291 0.487495 0.147467
H29   H     H_    0.286360 0.794705 0.123758 0.188844
H30   H     H_    0.356148 0.327987 0.646909 0.156731
H31   H     H_    0.334979 0.320827 0.735536 0.158582
H32   H     H_    0.255354 0.764835 0.879529 0.194383
H33   H     H_    0.236563 0.761532 0.965386 0.146872
H34   H     H_    0.279700 0.792620 0.037866 0.153668
N1    N     N_R   0.416447 0.472520 0.204704 -0.467961
N2    N     N_R   0.454904 0.483956 0.798861 -0.471840
N3    N     N_3   0.500250 0.143650 0.501060 -0.146319
N4    N     N_3   0.500250 0.856350 0.501060 -0.150977
O1    O     O_R   0.317570 0.620260 0.500030 -0.600100
O2    O     O_R   0.317570 0.379740 0.500030 -0.601965
O3    O     O_R   0.499900 0.620250 0.430280 -0.583865
O4    O     O_R   0.499900 0.379750 0.430280 -0.581822
O5    O     O_R   0.682190 0.620260 0.500010 -0.578677
O6    O     O_R   0.682190 0.379740 0.500010 -0.588318
O7    O     O_R   0.499860 0.620280 0.569750 -0.559894
O8    O     O_R   0.499860 0.379720 0.569750 -0.595063
O9    O     O_2   0.336330 0.703809 0.205751 -0.524887
O10   O     O_2   0.329775 0.687346 0.798007 -0.516171
O11   O     O_2   0.490565 0.238700 0.205568 -0.522522
O12   O     O_2   0.579237 0.281502 0.796778 -0.458395
Br1   Br    Br    0.685376 0.717652 0.647499 -0.572496
Br2   Br    Br    0.685762 0.130741 0.873802 -0.389344
C55   C     C_1   0.483227 0.077007 0.032177 0.226574
N5    N     N_1   0.490815 0.965823 0.014646 -0.264502
C56   C     C_1   0.652171 0.146489 0.432807 0.309054
N6    N     N_1   0.744074 0.194000 0.417140 -0.309864
C57   C     C_1   0.655636 0.856784 0.434093 0.300398
N7    N     N_1   0.749697 0.813217 0.419294 -0.301657
C58   C     C_1   0.705749 0.541801 0.336597 0.259757
N8    N     N_1   0.807502 0.561318 0.347822 -0.287311

loop_
_geom_bond_atom_site_label_1
_geom_bond_atom_site_label_2
_ccdc_geom_bond_type
C10   C27   A    
C43   H17   S    
C49   C57   S    
C21   C26   A    
C21   H31   S    
C40   H15   S    
C1    O1    A    
C23   O5    A    
C56   N6    T    
Cu2   O4    S    
C30   H34   S    
C52   C53   A    
C20   N2    A    
C34   O8    A    
C6    H29   S    
C45   H20   S    
C28   C29   A    
C38   C42   S    
C2    H12   S    
C4    C7    A    
C5    C6    A    
C9    C22   A    
C26   N2    S    
C15   C16   A    
C48   H25   S    
C3    N1    S    
C18   C19   A    
C31   H3    S    
C19   N2    A    
C4    C28   A    
C39   H14   S    
C40   C43   S    
C38   H10   S    
C16   C17   A    
C37   H9    S    
C45   H22   S    
C44   N3    S    
C49   N4    S    
C12   O4    A    
C35   C55   S    
C8    C12   S    
C51   N1    A    
C43   H18   S    
C23   O6    A    
C38   H13   S    
C50   O9    S    
C21   C22   A    
C27   C30   A    
C36   C41   S    
C33   Br2   S    
C47   H24   S    
Cu1   N4    S    
C36   H6    S    
C45   N4    S    
C37   H7    S    
C39   C42   S    
Cu2   N3    S    
C34   O7    A    
C7    C31   A    
C48   N3    S    
C24   C25   A    
Cu1   O1    S    
C10   C14   A    
C8    C54   A    
C25   C26   A    
C49   H26   S    
C44   H19   S    
C14   H33   S    
C16   C20   A    
Cu1   O3    S    
Cu1   Cu2   S    
C17   C18   A    
C24   Br1   S    
C25   H5    S    
C47   H28   S    
C23   C42   S    
C12   O3    A    
C52   H2    S    
C1    C41   S    
C48   C49   S    
C6    C30   A    
C11   C32   A    
C2    C54   A    
C9    C34   S    
C31   C35   A    
C5    C50   A    
C42   C43   S    
C32   H4    S    
C44   C45   S    
C57   N7    T    
Cu2   O2    S    
Cu1   O7    S    
C46   C47   S    
C40   C41   S    
C40   H16   S    
C39   H11   S    
C4    C5    A    
C10   C13   A    
C8    C53   A    
C3    C52   A    
C9    C24   A    
C20   O10   S    
C44   H21   S    
C29   C35   A    
C13   C17   A    
C32   C33   A    
C36   C38   S    
C2    C3    A    
Cu2   O8    S    
C37   C39   S    
C55   N5    T    
C11   C13   A    
C46   H23   S    
C46   N3    S    
C1    O2    A    
C47   N4    S    
C22   H30   S    
C37   C41   S    
C18   C33   A    
C51   O11   S    
C7    C51   A    
C46   H27   S    
C19   O12   S    
C53   C58   S    
C50   N1    A    
C48   C56   S    
C11   C29   A    
Cu1   O5    S    
C27   C28   A    
Cu2   O6    S    
C14   C15   A    
C36   H8    S    
C58   N8    T    
C15   H32   S    
C54   H1    S    
