data_mof_unit_47408.cif
_audit_creation_date              2012-10-26T20:05:03-0400
_audit_creation_method            fapswitch 2.2
_symmetry_space_group_name_H-M    P1
_symmetry_Int_Tables_number       1
_space_group_crystal_system       triclinic
_cell_length_a                    15.848182
_cell_length_b                    15.066838
_cell_length_c                    13.782755
_cell_angle_alpha                 89.595111
_cell_angle_beta                  90.474875
_cell_angle_gamma                 89.418733
_cell_volume                      3290.7071392

loop_
_atom_site_label
_atom_site_type_symbol
_atom_type_description
_atom_site_fract_x
_atom_site_fract_y
_atom_site_fract_z
_atom_type_partial_charge
C1    C     C_R   0.499568 0.329248 0.500465 0.565370
C2    C     C_R   0.503207 0.046967 0.504211 -0.102773
C3    C     C_R   0.439075 0.905929 0.551192 -0.000643
C4    C     C_R   0.565300 0.094608 0.452361 -0.015593
C5    C     C_R   0.631443 0.955758 0.402882 0.273893
C6    C     C_R   0.384486 0.044633 0.616617 0.264976
C7    C     C_R   0.625729 0.048301 0.397319 0.281776
C8    C     C_R   0.379347 0.952238 0.607843 0.301248
C9    C     C_R   0.546617 0.437292 0.794325 0.393801
C10   C     C_R   0.453029 0.562423 0.205697 0.398139
C11   C     C_R   0.453510 0.562297 0.792785 0.369301
C12   C     C_R   0.500958 0.670783 0.499564 0.558807
C13   C     C_R   0.546386 0.437641 0.207170 0.367913
C14   C     C_R   0.458842 0.567579 0.895678 -0.062947
C15   C     C_R   0.540738 0.432141 0.104310 -0.061708
C16   C     C_R   0.339982 0.500069 0.499651 0.532313
C17   C     C_R   0.660008 0.500103 0.500348 0.534436
C18   C     C_R   0.499719 0.499309 0.948361 -0.078027
C19   C     C_R   0.499796 0.500357 0.051632 -0.077896
C20   C     C_R   0.540780 0.430359 0.897679 0.005716
C21   C     C_R   0.458669 0.569254 0.102328 0.007609
C22   C     C_R   0.425433 0.640338 0.946252 -0.124108
C23   C     C_R   0.501983 0.767314 0.498020 -0.027796
C24   C     C_R   0.573879 0.359217 0.053783 -0.126790
C25   C     C_R   0.423915 0.642100 0.049059 0.273017
C26   C     C_R   0.575230 0.357333 0.950946 0.270995
C27   C     C_3   0.973594 0.473286 0.587394 -0.044489
C28   C     C_3   0.026322 0.530354 0.412534 -0.043938
C29   C     C_3   0.028664 0.419502 0.516411 0.271370
C30   C     C_3   0.971196 0.584138 0.483517 0.273149
C31   C     C_1   0.250549 0.500596 0.498954 -0.023373
C32   C     C_1   0.749410 0.500865 0.501029 -0.025225
C33   C     C_3   0.028278 0.555914 0.569826 -0.036402
C34   C     C_R   0.499993 0.232855 0.502461 -0.025597
C35   C     C_3   0.971652 0.447725 0.430101 -0.038135
C36   C     C_3   0.083582 0.501910 0.498925 -0.018867
C37   C     C_3   0.916336 0.501677 0.501002 -0.018381
C38   C     C_1   0.175136 0.501149 0.498752 -0.014219
C39   C     C_1   0.824802 0.501498 0.501202 -0.016199
C40   C     C_R   0.436065 0.812987 0.543095 0.285943
C41   C     C_R   0.566345 0.187828 0.457624 0.264968
C42   C     C_3   0.004557 0.273028 0.558387 -0.092554
C43   C     C_3   0.994835 0.730752 0.441657 -0.105823
C44   C     C_3   0.327354 0.760001 0.056635 -0.117687
C45   C     C_R   0.567542 0.812446 0.451516 -0.063087
C46   C     C_3   0.670454 0.238100 0.943795 -0.126201
C47   C     C_1   0.942471 0.444733 0.682587 0.194797
C48   C     C_1   0.057447 0.558971 0.317369 0.194674
C49   C     C_1   0.939026 0.389054 0.354175 0.208437
C50   C     C_1   0.061006 0.614638 0.645644 0.205160
C51   C     C_3   0.310507 0.749116 0.505986 -0.100564
C52   C     C_3   0.694323 0.247547 0.490101 -0.081185
C53   C     C_1   0.632926 0.759844 0.405004 0.284450
C54   C     C_1   0.365676 0.237193 0.589934 0.278108
C55   C     C_3   0.769997 0.916546 0.412357 -0.082207
C56   C     C_R   0.436844 0.186968 0.552068 -0.064275
C57   C     C_3   0.379714 0.090084 0.772858 -0.091615
C58   C     C_3   0.647877 0.102683 0.245934 -0.054443
C59   C     C_3   0.238864 0.925043 0.634136 -0.063335
C60   C     C_3   0.683911 0.410361 0.756489 -0.063201
C61   C     C_3   0.315661 0.588719 0.243698 -0.065500
C62   C     C_3   0.317914 0.599753 0.752203 -0.051070
C63   C     C_3   0.682175 0.400550 0.246956 -0.059316
C64   C     C_R   0.568280 0.906532 0.451517 -0.033511
C65   C     C_R   0.440769 0.093310 0.558036 -0.036163
C66   C     C_R   0.503603 0.953081 0.502322 -0.105602
Cu1   Cu    Cu3+1 0.500010 0.499990 0.597420 1.067014
Cu2   Cu    Cu3+1 0.499990 0.500010 0.402580 1.068641
H1    H     H_    0.402564 0.697116 0.905115 0.152929
H2    H     H_    0.280499 0.712032 0.027792 0.100862
H3    H     H_    0.347423 0.806958 0.999009 0.131221
H4    H     H_    0.717886 0.285303 0.972902 0.104000
H5    H     H_    0.702405 0.197920 0.887568 0.150427
H6    H     H_    0.649367 0.191510 0.001287 0.108568
H7    H     H_    0.252608 0.721186 0.538384 0.120252
H8    H     H_    0.335424 0.699552 0.454030 0.133530
H9    H     H_    0.291858 0.810960 0.466284 0.096901
H10   H     H_    0.719464 0.182595 0.517109 0.121321
H11   H     H_    0.670113 0.287523 0.551639 0.119688
H12   H     H_    0.596663 0.302463 0.095043 0.133582
H13   H     H_    0.747779 0.284177 0.458030 0.128529
H14   H     H_    0.759620 0.884714 0.484409 0.109228
H15   H     H_    0.792772 0.985518 0.421955 0.144358
H16   H     H_    0.820639 0.878415 0.375721 0.158449
H17   H     H_    0.438725 0.128887 0.764959 0.136405
H18   H     H_    0.394445 0.022387 0.801540 0.143261
H19   H     H_    0.339958 0.124333 0.827166 0.152181
H20   H     H_    0.587614 0.141303 0.247019 0.137223
H21   H     H_    0.637930 0.037042 0.211359 0.136021
H22   H     H_    0.692791 0.140163 0.200355 0.136683
H23   H     H_    0.943920 0.280668 0.517723 0.098636
H24   H     H_    0.232686 0.937163 0.554469 0.081337
H25   H     H_    0.213006 0.982572 0.674408 0.171242
H26   H     H_    0.199144 0.867024 0.651872 0.141255
H27   H     H_    0.708668 0.392249 0.829509 0.132425
H28   H     H_    0.690626 0.483280 0.745612 0.123078
H29   H     H_    0.724397 0.376728 0.702412 0.127729
H30   H     H_    0.275046 0.622361 0.297645 0.128714
H31   H     H_    0.309250 0.515799 0.254828 0.121825
H32   H     H_    0.290799 0.606429 0.170625 0.130942
H33   H     H_    0.280683 0.632022 0.693093 0.176055
H34   H     H_    0.993444 0.277625 0.637556 0.139843
H35   H     H_    0.293079 0.625243 0.821786 0.097583
H36   H     H_    0.306621 0.526976 0.747650 0.123366
H37   H     H_    0.693397 0.473321 0.251805 0.130700
H38   H     H_    0.706562 0.375364 0.177027 0.094284
H39   H     H_    0.719863 0.368104 0.305520 0.176178
H40   H     H_    0.029142 0.205257 0.543964 0.147306
H41   H     H_    0.006209 0.726051 0.362547 0.142478
H42   H     H_    0.055366 0.723494 0.482601 0.099199
H43   H     H_    0.969876 0.798432 0.455809 0.129033
H44   H     H_    0.295081 0.799609 0.113103 0.150075
N1    N     N_R   0.499960 0.499930 0.743810 -0.235376
N2    N     N_R   0.500040 0.500070 0.256190 -0.233802
N3    N     N_1   0.917839 0.422327 0.757559 -0.320750
N4    N     N_1   0.082075 0.581431 0.242414 -0.320928
N5    N     N_1   0.913235 0.342831 0.294432 -0.308490
N6    N     N_1   0.086888 0.660922 0.705280 -0.320781
N7    N     N_1   0.684627 0.717284 0.368200 -0.244458
N8    N     N_1   0.309138 0.277550 0.619769 -0.240686
O1    O     O_R   0.500020 0.370250 0.582280 -0.473109
O2    O     O_3   0.933640 0.668802 0.470153 -0.539539
O3    O     O_3   0.398410 0.717522 0.099542 -0.525375
O4    O     O_3   0.600286 0.281772 0.900378 -0.535326
O5    O     O_3   0.369387 0.765524 0.581149 -0.486912
O6    O     O_3   0.631655 0.236205 0.417953 -0.500553
O7    O     O_3   0.696504 0.914365 0.353780 -0.541437
O8    O     O_3   0.334333 0.086352 0.684517 -0.564712
O9    O     O_3   0.682901 0.092932 0.339881 -0.522212
O10   O     O_3   0.322547 0.905979 0.664729 -0.508546
O11   O     O_3   0.599827 0.381704 0.743299 -0.498944
O12   O     O_R   0.499980 0.629750 0.417720 -0.471505
O13   O     O_3   0.399635 0.617793 0.256753 -0.496400
O14   O     O_3   0.403805 0.621848 0.740445 -0.499951
O15   O     O_3   0.596400 0.378323 0.259424 -0.511768
O16   O     O_R   0.500010 0.370270 0.417740 -0.435752
O17   O     O_R   0.499990 0.629730 0.582260 -0.433723
O18   O     O_R   0.379080 0.499980 0.582260 -0.481631
O19   O     O_R   0.620920 0.500020 0.417740 -0.478491
O20   O     O_R   0.379070 0.500000 0.417710 -0.506410
O21   O     O_R   0.620930 0.500000 0.582290 -0.505161
O22   O     O_3   0.065965 0.334728 0.529813 -0.531748

loop_
_geom_bond_atom_site_label_1
_geom_bond_atom_site_label_2
_ccdc_geom_bond_type
C59   O10   S    
C34   C56   A    
C23   C45   A    
C54   N8    T    
C27   C29   S    
C14   C18   A    
C2    C4    A    
C61   H30   S    
C10   O13   S    
C2    C65   A    
C57   O8    S    
C61   O13   S    
C61   H31   S    
C27   C33   S    
C16   C31   S    
C15   C19   A    
C29   C36   S    
C43   H43   S    
C35   C37   S    
C45   C64   A    
C24   C26   A    
C18   C19   A    
C11   C14   A    
C4    C41   A    
C29   O22   S    
C58   O9    S    
C23   C40   A    
Cu1   O1    S    
C33   C36   S    
C57   H18   S    
C44   H3    S    
C17   O21   A    
C42   H23   S    
C32   C39   T    
Cu2   O12   S    
Cu1   O18   S    
C24   H12   S    
C6    C65   A    
C49   N5    T    
C30   O2    S    
C28   C35   S    
C22   C25   A    
C42   O22   S    
C44   H2    S    
C59   H26   S    
C63   H37   S    
C1    O16   A    
C22   H1    S    
C46   H4    S    
C13   N2    A    
C10   N2    A    
C48   N4    T    
C62   H33   S    
C45   C53   S    
C13   O15   S    
C46   O4    S    
C16   O20   A    
C34   C41   A    
C26   O4    S    
C4    C7    A    
C52   H10   S    
C42   H34   S    
C60   O11   S    
C42   H40   S    
C1    C34   S    
C62   H36   S    
C9    O11   S    
C10   C21   A    
C54   C56   S    
Cu1   Cu2   S    
C51   O5    S    
Cu2   O16   S    
C51   H8    S    
C3    C8    A    
C11   O14   S    
C5    C7    A    
C52   O6    S    
C6    C8    A    
C33   C50   S    
C57   H19   S    
C5    C64   A    
C63   H38   S    
C63   O15   S    
C47   N3    T    
C51   H9    S    
C35   C49   S    
C58   H22   S    
C9    C20   A    
C12   C23   S    
C5    O7    S    
C17   O19   A    
C55   H14   S    
C25   O3    S    
C43   O2    S    
C44   H44   S    
C15   C24   A    
C43   H42   S    
C55   O7    S    
C3    C40   A    
C60   H29   S    
C13   C15   A    
C8    O10   S    
Cu2   O20   S    
C3    C66   A    
C63   H39   S    
C52   H11   S    
C60   H28   S    
C46   H6    S    
C62   H35   S    
C27   C47   S    
C21   C25   A    
C28   C48   S    
C12   O12   A    
C30   C33   S    
C19   C21   A    
C50   N6    T    
C41   O6    S    
C16   O18   A    
C51   H7    S    
C2    C66   A    
C58   H20   S    
C53   N7    T    
C59   H25   S    
C29   C35   S    
C44   O3    S    
C31   C38   T    
C9    N1    A    
C62   O14   S    
C28   C30   S    
Cu1   N1    S    
C6    O8    S    
C37   C39   S    
C30   C37   S    
C14   C22   A    
C20   C26   A    
C27   C37   S    
C40   O5    S    
C36   C38   S    
C57   H17   S    
C18   C20   A    
C59   H24   S    
C52   H13   S    
C11   N1    A    
C58   H21   S    
C1    O1    A    
C7    O9    S    
C61   H32   S    
C60   H27   S    
C28   C36   S    
Cu2   N2    S    
C17   C32   S    
C12   O17   A    
Cu2   O19   S    
C43   H41   S    
C55   H16   S    
Cu1   O17   S    
C55   H15   S    
C46   H5    S    
C56   C65   A    
C64   C66   A    
Cu1   O21   S    
