data_mof_unit_47956.cif
_audit_creation_date              2012-12-10T18:11:02-0500
_audit_creation_method            fapswitch 2.2
_symmetry_space_group_name_H-M    P1
_symmetry_Int_Tables_number       1
_space_group_crystal_system       triclinic
_cell_length_a                    10.728515
_cell_length_b                    9.4211
_cell_length_c                    10.623805
_cell_angle_alpha                 89.797229
_cell_angle_beta                  90.071051
_cell_angle_gamma                 89.975126
_cell_volume                      1073.78719733

loop_
_atom_site_label
_atom_site_type_symbol
_atom_type_description
_atom_site_fract_x
_atom_site_fract_y
_atom_site_fract_z
_atom_type_partial_charge
C1    C     C_R   0.259703 0.499819 0.500949 0.799597
C2    C     C_3   0.499040 0.501303 0.122579 -0.035075
C3    C     C_3   0.072394 0.585252 0.615719 -0.418466
C4    C     C_3   0.071751 0.344728 0.512919 -0.410264
C5    C     C_3   0.928431 0.589466 0.613790 0.502485
C6    C     C_3   0.928991 0.344279 0.515133 0.500076
C7    C     C_3   0.071313 0.565814 0.378494 -0.420466
C8    C     C_3   0.121778 0.499048 0.502007 0.025601
C9    C     C_3   0.878053 0.498766 0.502781 -0.024301
C10   C     C_3   0.927465 0.563043 0.377804 -0.608938
C11   C     C_3   0.612555 0.083451 0.566036 -0.158985
C12   C     C_3   0.612480 0.915940 0.566221 -0.192863
C13   C     C_3   0.390280 0.083529 0.569843 -0.196240
C14   C     C_3   0.390195 0.916026 0.569721 -0.188035
C15   C     C_3   0.497934 0.084006 0.373251 -0.192205
C16   C     C_3   0.498057 0.916898 0.373258 -0.192384
C17   C     C_R   0.499594 0.500349 0.259373 0.825502
C18   C     C_R   0.740049 0.499735 0.501357 0.869930
C19   C     C_R   0.500138 0.499661 0.740734 0.846144
C20   C     C_3   0.499554 0.635573 0.039984 -0.218997
C21   C     C_3   0.396840 0.432978 0.041847 -0.235718
C22   C     C_3   0.397345 0.567091 0.956987 -0.150521
C23   C     C_3   0.500360 0.498819 0.877493 -0.039001
C24   C     C_3   0.602936 0.568023 0.957994 -0.227060
C25   C     C_3   0.499377 0.363788 0.959881 -0.214536
C26   C     C_3   0.599927 0.434413 0.041409 0.541126
Cu1   Cu    Cu3+1 0.499860 0.642410 0.500060 0.901954
Cu2   Cu    Cu3+1 0.499860 0.357590 0.500060 0.925989
H1    H     H_    0.313836 0.621686 0.918359 0.130905
H2    H     H_    0.891499 0.672988 0.364782 0.196087
H3    H     H_    0.893905 0.499124 0.296585 0.214321
H4    H     H_    0.618486 0.123057 0.664382 0.162256
H5    H     H_    0.617993 0.875942 0.664709 0.151628
H6    H     H_    0.698231 0.120380 0.517359 0.176624
H7    H     H_    0.698374 0.878881 0.518085 0.143073
H8    H     H_    0.388160 0.122738 0.668449 0.140034
H9    H     H_    0.387875 0.875919 0.668281 0.141440
H10   H     H_    0.413808 0.122886 0.322347 0.142158
H11   H     H_    0.414088 0.878275 0.322234 0.140213
H12   H     H_    0.580198 0.122783 0.319509 0.162630
H13   H     H_    0.580442 0.878517 0.319690 0.143098
H14   H     H_    0.302808 0.120943 0.524545 0.144043
H15   H     H_    0.302742 0.879118 0.524266 0.141737
H16   H     H_    0.498677 0.746241 0.075577 0.143202
H17   H     H_    0.312673 0.379124 0.079500 0.137133
H18   H     H_    0.686895 0.622480 0.920575 0.169755
H19   H     H_    0.500159 0.252966 0.924663 0.129601
H20   H     H_    0.108909 0.695784 0.612464 0.126593
H21   H     H_    0.104476 0.280465 0.431578 0.122603
H22   H     H_    0.105995 0.536472 0.705135 0.191265
H23   H     H_    0.108391 0.293495 0.600072 0.200619
H24   H     H_    0.897589 0.701584 0.602001 0.065679
H25   H     H_    0.894743 0.278964 0.435046 0.062099
H26   H     H_    0.104123 0.677460 0.369387 0.186872
H27   H     H_    0.107294 0.506293 0.295794 0.174940
N1    N     N_3   0.500250 0.143650 0.502780 -0.130977
N2    N     N_3   0.500250 0.856350 0.502780 -0.117824
O1    O     O_R   0.317570 0.620260 0.500070 -0.599742
O2    O     O_R   0.317570 0.379740 0.500070 -0.604024
O3    O     O_R   0.499850 0.620240 0.316900 -0.605166
O4    O     O_R   0.499850 0.379760 0.316900 -0.585223
O5    O     O_R   0.682190 0.620260 0.500030 -0.611143
O6    O     O_R   0.682190 0.379740 0.500030 -0.562029
O7    O     O_R   0.499910 0.620280 0.683200 -0.590526
O8    O     O_R   0.499910 0.379720 0.683200 -0.590891
O9    O     O_3   0.703484 0.365493 0.096222 -0.622049
C27   C     C_3   0.784524 0.319615 0.000477 -0.286849
H28   H     H_    0.825337 0.411343 0.949038 0.229843
H29   H     H_    0.737056 0.246400 0.933910 0.175539
H30   H     H_    0.862609 0.260269 0.044543 0.175876
F1    F     F_    0.881753 0.540886 0.727681 -0.673751
F2    F     F_    0.887790 0.281204 0.625787 -0.656023

loop_
_geom_bond_atom_site_label_1
_geom_bond_atom_site_label_2
_ccdc_geom_bond_type
C7    C10   S    
C22   H1    S    
C1    C8    S    
C7    H27   S    
C4    C8    S    
C6    C9    S    
Cu2   N1    S    
C7    C8    S    
C6    F2    S    
C24   C26   S    
Cu1   O3    S    
C1    O2    A    
C18   O6    A    
C15   C16   S    
C3    H20   S    
C17   O4    A    
C10   H3    S    
C20   C24   S    
C23   C24   S    
C5    H24   S    
C9    C10   S    
C25   H19   S    
C13   N1    S    
Cu2   O4    S    
O9    C27   S    
C13   C14   S    
C2    C17   S    
C13   H14   S    
C20   H16   S    
C3    H22   S    
C21   H17   S    
C4    H23   S    
C2    C20   S    
C27   H28   S    
C26   O9    S    
C13   H8    S    
C4    C6    S    
C3    C8    S    
Cu1   N2    S    
C18   O5    A    
C17   O3    A    
C25   C26   S    
C27   H29   S    
C19   C23   S    
C15   H10   S    
C5    C9    S    
Cu1   O5    S    
C10   H2    S    
C19   O7    A    
C2    C21   S    
C2    C26   S    
C12   H7    S    
C12   N2    S    
C20   C22   S    
C11   H4    S    
C6    H25   S    
Cu2   O2    S    
C14   N2    S    
C21   C25   S    
C11   H6    S    
C3    C5    S    
Cu1   O1    S    
C11   C12   S    
C4    H21   S    
C27   H30   S    
C24   H18   S    
C15   N1    S    
Cu2   O8    S    
C5    F1    S    
C1    O1    A    
C14   H9    S    
C19   O8    A    
C16   N2    S    
C23   C25   S    
C15   H12   S    
Cu1   O7    S    
C16   H11   S    
Cu2   O6    S    
C9    C18   S    
Cu1   Cu2   S    
C22   C23   S    
C7    H26   S    
C12   H5    S    
C21   C22   S    
C16   H13   S    
C11   N1    S    
C14   H15   S    
