data_mof_unit_25850.cif
_audit_creation_date              2012-12-10T19:04:14-0500
_audit_creation_method            fapswitch 2.2
_symmetry_space_group_name_H-M    P1
_symmetry_Int_Tables_number       1
_space_group_crystal_system       triclinic
_cell_length_a                    10.63083
_cell_length_b                    10.830863
_cell_length_c                    9.632256
_cell_angle_alpha                 89.634198
_cell_angle_beta                  89.337018
_cell_angle_gamma                 92.169231
_cell_volume                      1108.17340007

loop_
_atom_site_label
_atom_site_type_symbol
_atom_type_description
_atom_site_fract_x
_atom_site_fract_y
_atom_site_fract_z
_atom_type_partial_charge
C1    C     C_R   0.498272 0.262833 0.500198 0.826976
C2    C     C_3   0.961976 0.606800 0.451106 -0.210324
C3    C     C_3   0.044249 0.517595 0.367706 -0.202424
C4    C     C_3   0.122668 0.498769 0.498977 -0.026598
C5    C     C_R   0.490703 0.061415 0.621326 0.079787
C6    C     C_R   0.489300 0.129768 0.499402 -0.083155
C7    C     C_R   0.470024 0.064314 0.374823 -0.160944
C8    C     C_R   0.460624 0.934825 0.376693 -0.139496
C9    C     C_R   0.472645 0.868584 0.501607 -0.107241
C10   C     C_R   0.473551 0.936951 0.623615 0.064492
C11   C     C_3   0.476290 0.930272 0.779290 -0.060467
C12   C     C_R   0.259591 0.499830 0.500192 0.778353
C13   C     C_3   0.501438 0.072185 0.775007 -0.147164
C14   C     C_R   0.608050 0.523344 0.069178 0.216688
C15   C     C_R   0.399423 0.455078 0.078389 -0.078052
C16   C     C_R   0.400235 0.448788 0.930351 0.213248
C17   C     C_R   0.608166 0.520285 0.925173 0.121901
C18   C     C_3   0.713564 0.612728 0.908859 -0.494726
C19   C     C_3   0.717623 0.616735 0.068245 0.266138
C20   C     C_R   0.489662 0.736363 0.500392 0.831924
C21   C     C_R   0.740248 0.498041 0.499265 0.866924
C22   C     C_3   0.038430 0.387472 0.544531 -0.223539
C23   C     C_3   0.957929 0.408060 0.415511 0.491964
C24   C     C_3   0.877046 0.496008 0.497459 -0.095718
C25   C     C_3   0.956246 0.476781 0.627508 -0.213507
C26   C     C_3   0.042782 0.588091 0.581707 -0.148755
Cu1   Cu    Cu3+1 0.499990 0.499980 0.640670 0.927069
Cu2   Cu    Cu3+1 0.500010 0.500020 0.359330 1.031506
H1    H     H_    0.554706 0.876036 0.819209 0.203234
H2    H     H_    0.424019 0.126018 0.819821 0.130559
H3    H     H_    0.320047 0.416623 0.137541 0.161713
H4    H     H_    0.798868 0.572962 0.863613 0.165646
H5    H     H_    0.683457 0.698083 0.856156 0.230554
H6    H     H_    0.805006 0.578534 0.110463 0.113806
H7    H     H_    0.072098 0.297399 0.581669 0.153033
H8    H     H_    0.919122 0.455942 0.733158 0.160150
H9    H     H_    0.079637 0.662684 0.650262 0.138768
H10   H     H_    0.928415 0.696532 0.412952 0.197887
H11   H     H_    0.081957 0.533440 0.260817 0.157737
H12   H     H_    0.462128 0.112200 0.276426 0.163286
H13   H     H_    0.442653 0.886883 0.281474 0.204326
N1    N     N_R   0.500800 0.500930 0.147930 -0.189231
N2    N     N_R   0.500800 0.500890 0.852020 -0.202770
O1    O     O_R   0.500000 0.319640 0.618810 -0.615720
O2    O     O_R   0.500010 0.319680 0.381230 -0.568160
O3    O     O_R   0.316850 0.499950 0.618770 -0.600395
O4    O     O_R   0.316860 0.499990 0.381190 -0.598969
O5    O     O_R   0.499990 0.680320 0.618770 -0.596262
O6    O     O_R   0.500000 0.680360 0.381190 -0.507051
O7    O     O_R   0.683140 0.500010 0.618810 -0.589330
O8    O     O_R   0.683150 0.500050 0.381230 -0.540215
S1    S     S_3+6 0.902134 0.286936 0.305110 -0.020433
O9    O     O_2   0.810290 0.203495 0.384165 -0.307447
O10   O     O_2   0.838314 0.340979 0.181669 -0.339223
O11   O     O_3   0.024994 0.205774 0.251159 -0.549793
H14   H     H_    0.988868 0.144560 0.185209 0.386633
C27   C     C_3   0.631860 0.117735 0.827806 -0.364301
C28   C     C_3   0.745349 0.068763 0.748661 -0.702694
H15   H     H_    0.746133 0.966472 0.753757 0.246805
H16   H     H_    0.744748 0.099152 0.638472 0.272894
H17   H     H_    0.833393 0.106312 0.796027 0.238425
H18   H     H_    0.637405 0.220291 0.822084 0.226198
H19   H     H_    0.639019 0.091714 0.939108 0.227446
C29   C     C_3   0.297346 0.365409 0.871425 -0.368825
C30   C     C_3   0.168436 0.422139 0.884279 -0.809925
H20   H     H_    0.167832 0.512191 0.829242 0.265094
H21   H     H_    0.096426 0.357761 0.839574 0.242563
H22   H     H_    0.142518 0.436735 0.994774 0.247118
H23   H     H_    0.316489 0.335216 0.764964 0.243780
H24   H     H_    0.293262 0.277610 0.932129 0.159830
S2    S     S_3+6 0.691490 0.769567 0.126452 -0.008793
O12   O     O_2   0.711840 0.778854 0.279975 -0.280184
O13   O     O_2   0.784129 0.856875 0.053552 -0.316563
O14   O     O_3   0.544928 0.806721 0.085182 -0.580766
H25   H     H_    0.550034 0.897483 0.071570 0.348725
C31   C     C_3   0.346296 0.898139 0.846304 -0.417106
C32   C     C_3   0.312081 0.760641 0.844293 -0.714440
H26   H     H_    0.294656 0.729938 0.736491 0.246165
H27   H     H_    0.388575 0.708211 0.890707 0.289211
H28   H     H_    0.224608 0.741956 0.906215 0.221196
H29   H     H_    0.347499 0.928878 0.956133 0.214978
H30   H     H_    0.271049 0.948448 0.793020 0.205977

loop_
_geom_bond_atom_site_label_1
_geom_bond_atom_site_label_2
_ccdc_geom_bond_type
Cu1   O5    S    
O11   H14   S    
Cu2   O4    S    
C19   S2    S    
C23   S1    S    
C27   H18   S    
C32   H26   S    
C22   H7    S    
C11   C31   S    
C5    C6    A    
Cu2   O8    S    
C13   C27   S    
C28   H16   S    
C15   C16   A    
C18   C19   S    
C9    C20   S    
C3    C23   S    
Cu1   O1    S    
C8    C9    A    
C30   H21   S    
C22   C25   S    
C7    H12   S    
C29   H24   S    
C4    C12   S    
C9    C10   A    
C5    C13   S    
Cu1   O7    S    
C14   N1    A    
C28   H17   S    
C3    H11   S    
C8    H13   S    
C14   C17   A    
C12   O4    A    
C21   O7    A    
S1    O10   D    
C27   H19   S    
C32   H27   S    
Cu2   O2    S    
O14   H25   S    
C1    C6    S    
C13   H2    S    
C7    C8    A    
C24   C25   S    
C12   O3    A    
C31   H30   S    
S2    O13   D    
C25   C26   S    
C17   N2    A    
C20   O6    A    
C4    C22   S    
Cu2   O6    S    
C2    H10   S    
C1    O1    A    
C23   C24   S    
C30   H22   S    
C17   C18   S    
C2    C26   S    
C29   H23   S    
C31   C32   S    
C16   N2    A    
C20   O5    A    
Cu1   O3    S    
C2    C24   S    
C18   H4    S    
C3    C4    S    
C21   O8    A    
S1    O9    D    
C32   H28   S    
C14   C19   S    
C15   N1    A    
C19   H6    S    
C31   H29   S    
S2    O14   S    
C4    C26   S    
S1    O11   S    
C26   H9    S    
C15   H3    S    
C6    C7    A    
C29   C30   S    
C2    C3    S    
C28   H15   S    
S2    O12   D    
C11   C13   S    
C1    O2    A    
C27   C28   S    
Cu2   N1    S    
C18   H5    S    
C10   C11   S    
C25   H8    S    
Cu1   N2    S    
C5    C10   A    
C11   H1    S    
C30   H20   S    
C21   C24   S    
Cu1   Cu2   S    
C22   C23   S    
C16   C29   S    
