data_mof_unit_17152.cif
_audit_creation_date              2012-12-11T15:27:37-0500
_audit_creation_method            fapswitch 2.2
_symmetry_space_group_name_H-M    P1
_symmetry_Int_Tables_number       1
_space_group_crystal_system       triclinic
_cell_length_a                    23.156403
_cell_length_b                    7.303144
_cell_length_c                    15.174379
_cell_angle_alpha                 89.640789
_cell_angle_beta                  108.104269
_cell_angle_gamma                 90.482233
_cell_volume                      2439.05744781

loop_
_atom_site_label
_atom_site_type_symbol
_atom_type_description
_atom_site_fract_x
_atom_site_fract_y
_atom_site_fract_z
_atom_type_partial_charge
O1    O     O_R   0.711000 0.648610 0.341170 -0.536409
O2    O     O_R   0.289000 0.351390 0.658830 -0.536409
O3    O     O_R   0.789000 0.148610 0.158830 -0.534408
O4    O     O_R   0.211000 0.851390 0.841170 -0.534408
O5    O     O_R   0.829650 0.322030 0.336650 -0.536981
O6    O     O_R   0.170350 0.677970 0.663350 -0.536981
O7    O     O_R   0.670350 0.822030 0.163350 -0.537566
O8    O     O_R   0.329650 0.177970 0.836650 -0.537566
C1    C     C_R   0.854256 0.486108 0.356773 0.717514
C2    C     C_R   0.145744 0.513892 0.643227 0.717513
C3    C     C_R   0.645738 0.985529 0.143225 0.717007
C4    C     C_R   0.354262 0.014471 0.856775 0.717008
O9    O     O_R   0.713950 0.319280 0.352070 -0.539319
O10   O     O_R   0.286050 0.680720 0.647930 -0.539320
O11   O     O_R   0.786050 0.819280 0.147930 -0.539894
O12   O     O_R   0.213950 0.180720 0.852070 -0.539894
O13   O     O_R   0.672470 0.142870 0.174360 -0.533552
O14   O     O_R   0.327530 0.857130 0.825640 -0.533552
O15   O     O_R   0.827530 0.642870 0.325640 -0.534369
O16   O     O_R   0.172470 0.357130 0.674360 -0.534369
C5    C     C_R   0.701684 0.486778 0.375780 0.707852
C6    C     C_R   0.298316 0.513222 0.624220 0.707851
C7    C     C_R   0.798336 0.988416 0.124243 0.708718
C8    C     C_R   0.201664 0.011584 0.875757 0.708719
O17   O     O_3   0.736530 0.478650 0.191680 -0.378582
O18   O     O_3   0.263470 0.521350 0.808320 -0.378581
O19   O     O_3   0.763470 0.978650 0.308320 -0.379553
O20   O     O_3   0.236530 0.021350 0.691680 -0.379554
V1    V     V_3+5 0.752500 0.206170 0.260820 1.425475
V2    V     V_3+5 0.247500 0.793830 0.739180 1.425474
V3    V     V_3+5 0.747500 0.706170 0.239180 1.422464
V4    V     V_3+5 0.252500 0.293830 0.760820 1.422466
C9    C     C_R   0.827240 0.001426 0.051563 -0.088324
C10   C     C_R   0.172761 0.998574 0.948437 -0.088325
C11   C     C_R   0.672673 0.492825 0.448331 -0.085873
C12   C     C_R   0.327328 0.507172 0.551670 -0.085866
C13   C     C_R   0.821763 0.078897 0.893257 0.468060
C14   C     C_R   0.178236 0.921079 0.106740 0.468053
C15   C     C_R   0.680242 0.493801 0.611560 0.465907
C16   C     C_R   0.319759 0.506161 0.388441 0.465900
C17   C     C_R   0.794516 0.064076 0.963993 -0.259981
C18   C     C_R   0.205484 0.935912 0.036006 -0.259970
C19   C     C_R   0.707298 0.478871 0.540705 -0.265499
C20   C     C_R   0.292702 0.521101 0.459295 -0.265512
C21   C     C_R   0.888925 0.967463 0.073062 -0.212806
C22   C     C_R   0.111076 0.032540 0.926939 -0.212808
C23   C     C_R   0.609996 0.506188 0.423942 -0.212374
C24   C     C_R   0.390004 0.493818 0.576060 -0.212368
C25   C     C_R   0.920309 0.001909 0.008221 0.003878
C26   C     C_R   0.079691 0.998086 0.991779 0.003878
C27   C     C_R   0.579637 0.500449 0.491546 0.003927
C28   C     C_R   0.420364 0.499539 0.508457 0.003926
C29   C     C_R   0.885518 0.045783 0.914819 0.017957
C30   C     C_R   0.114482 0.954202 0.085180 0.017959
C31   C     C_R   0.615454 0.506452 0.587271 0.015848
C32   C     C_R   0.384548 0.493519 0.412731 0.015852
C33   C     C_R   0.985211 0.992098 0.034241 0.046960
C34   C     C_R   0.014790 0.007897 0.965759 0.046960
C35   C     C_R   0.514668 0.492339 0.465702 0.046284
C36   C     C_R   0.485333 0.507646 0.534301 0.046284
C37   C     C_R   0.978573 0.026489 0.872413 -0.190674
C38   C     C_R   0.021427 0.973502 0.127587 -0.190674
C39   C     C_R   0.521635 0.536399 0.626834 -0.191454
C40   C     C_R   0.478368 0.463578 0.373170 -0.191456
C41   C     C_R   0.915604 0.049787 0.846202 0.136249
C42   C     C_R   0.084397 0.950196 0.153797 0.136252
C43   C     C_R   0.585129 0.531220 0.654647 0.133131
C44   C     C_R   0.414873 0.468746 0.345357 0.133131
H1    H     H_    0.088914 0.084944 0.858279 0.112287
H2    H     H_    0.911086 0.915067 0.141724 0.112285
H3    H     H_    0.413616 0.477181 0.648968 0.109958
H4    H     H_    0.586384 0.522844 0.351035 0.109962
H5    H     H_    0.252646 0.899454 0.049080 0.115131
H6    H     H_    0.747353 0.100529 0.950918 0.115129
H7    H     H_    0.244238 0.541405 0.442799 0.113275
H8    H     H_    0.755762 0.458557 0.557201 0.113283
H9    H     H_    0.998335 0.019672 0.817061 0.125159
H10   H     H_    0.001666 0.980317 0.182940 0.125158
H11   H     H_    0.501406 0.567661 0.679842 0.125850
H12   H     H_    0.498598 0.432311 0.320163 0.125851
C45   C     C_1   0.416752 0.007621 0.918753 -0.191885
C46   C     C_1   0.583248 0.992379 0.081247 -0.191886
C47   C     C_1   0.083255 0.506227 0.581277 -0.192235
C48   C     C_1   0.916745 0.493773 0.418723 -0.192234
C49   C     C_1   0.469141 0.002719 0.969975 -0.000808
C50   C     C_1   0.530859 0.997281 0.030025 -0.000808
C51   C     C_1   0.030860 0.502028 0.530038 -0.000638
C52   C     C_1   0.969140 0.497972 0.469962 -0.000638
C53   C     C_3   0.882516 0.069077 0.743475 -0.696640
H13   H     H_    0.912898 0.049053 0.700349 0.176103
H14   H     H_    0.846055 0.963900 0.721298 0.211360
H15   H     H_    0.863511 0.208731 0.727793 0.234303
C54   C     C_3   0.117485 0.930895 0.256524 -0.696655
H16   H     H_    0.087103 0.950924 0.299650 0.176107
H17   H     H_    0.136486 0.791236 0.272202 0.234297
H18   H     H_    0.153948 0.036063 0.278702 0.211356
C55   C     C_3   0.618113 0.562215 0.756562 -0.694762
H19   H     H_    0.586731 0.595584 0.796517 0.175956
H20   H     H_    0.642538 0.436432 0.788344 0.233161
H21   H     H_    0.650040 0.679696 0.765151 0.213140
C56   C     C_3   0.381890 0.437735 0.243442 -0.694751
H22   H     H_    0.413273 0.404363 0.203490 0.175953
H23   H     H_    0.349965 0.320250 0.234857 0.213144
H24   H     H_    0.357463 0.563512 0.211655 0.233167
O21   O     O_3   0.788653 0.146860 0.806617 -0.545529
C57   C     C_3   0.730941 0.062016 0.772098 -0.195355
H25   H     H_    0.696804 0.138948 0.794405 0.155828
H26   H     H_    0.731059 0.915851 0.793187 0.095773
H27   H     H_    0.716661 0.066399 0.695233 0.169514
O22   O     O_3   0.211344 0.853087 0.193375 -0.545533
C58   C     C_3   0.269055 0.937935 0.227905 -0.195365
H28   H     H_    0.268933 0.084115 0.206841 0.095787
H29   H     H_    0.303193 0.861039 0.205584 0.155811
H30   H     H_    0.283336 0.933501 0.304770 0.169530
O23   O     O_3   0.715484 0.475917 0.703898 -0.547685
C59   C     C_3   0.769271 0.582495 0.725061 -0.200529
H31   H     H_    0.762563 0.715838 0.687318 0.101276
H32   H     H_    0.806200 0.504066 0.710785 0.152485
H33   H     H_    0.784279 0.612799 0.800368 0.165890
O24   O     O_3   0.284517 0.524027 0.296101 -0.547691
C60   C     C_3   0.230723 0.417484 0.274944 -0.200519
H34   H     H_    0.193800 0.495950 0.289214 0.152496
H35   H     H_    0.237423 0.284151 0.312695 0.101272
H36   H     H_    0.215714 0.387161 0.199639 0.165889

loop_
_geom_bond_atom_site_label_1
_geom_bond_atom_site_label_2
_ccdc_geom_bond_type
O17   V3    S    
C47   C51   T    
C51   C52   S    
O1    C5    A    
C56   H22   S    
O19   V1    S    
C9    C21   A    
O3    C7    A    
C58   H28   S    
C10   C18   A    
O15   V3    S    
C55   H19   S    
C25   C33   A    
C33   C38   A    
C39   H11   S    
C49   C50   S    
O7    C3    A    
C35   C40   A    
C54   H16   S    
C36   C39   A    
C40   C44   A    
O9    V1    S    
C14   C18   A    
O4    C8    A    
C57   H25   S    
O23   C59   S    
C2    C47   S    
O1    V3    S    
O13   V1    S    
C59   H31   S    
O2    V4    S    
O3    V1    S    
O22   C58   S    
C60   H36   S    
C28   C36   A    
C17   H6    S    
C1    O15   A    
C15   C31   A    
C2    O16   A    
C7    C9    S    
O2    C6    A    
C10   C22   A    
C14   O22   S    
C11   C19   A    
C16   C20   A    
C13   C29   A    
C34   C37   A    
O11   C7    A    
C11   C23   A    
C35   C36   A    
O12   C8    A    
C40   H12   S    
O10   V2    S    
C55   H20   S    
O5    V1    S    
C3    C46   S    
C39   C43   A    
O7    V3    S    
C38   C42   A    
O8    V4    S    
C44   C56   S    
C37   H9    S    
O18   V4    S    
C23   C27   A    
C16   C32   A    
C46   C50   T    
C8    C10   S    
C26   C34   A    
C20   H7    S    
C41   C53   S    
C13   O21   S    
C31   C43   A    
C14   C30   A    
C21   C25   A    
O8    C4    A    
O9    C5    A    
C58   H29   S    
C26   C30   A    
C53   H15   S    
C60   H34   S    
C42   C54   S    
O14   V2    S    
O6    V2    S    
C54   H18   S    
C15   O23   S    
C12   C20   A    
C53   H14   S    
C24   H3    S    
C55   H21   S    
C29   C41   A    
O24   C60   S    
O16   V4    S    
C19   H8    S    
C3    O13   A    
C18   H5    S    
C16   O24   S    
C21   H2    S    
C38   H10   S    
C48   C52   T    
O5    C1    A    
O6    C2    A    
C15   C19   A    
O11   V3    S    
C30   C42   A    
O12   V4    S    
C6    C12   S    
O21   C57   S    
C22   C26   A    
C59   H33   S    
C9    C17   A    
O10   C6    A    
O20   V2    S    
C5    C11   S    
C32   C44   A    
C33   C34   A    
C54   H17   S    
C57   H26   S    
C25   C29   A    
C59   H32   S    
C4    C45   S    
C12   C24   A    
C58   H30   S    
C27   C31   A    
C13   C17   A    
O4    V2    S    
C23   H4    S    
C60   H35   S    
C43   C55   S    
C1    C48   S    
C37   C41   A    
C24   C28   A    
C27   C35   A    
C56   H23   S    
C4    O14   A    
C22   H1    S    
C56   H24   S    
C53   H13   S    
C45   C49   T    
C28   C32   A    
C57   H27   S    
