data_mof_unit_14793.cif
_audit_creation_date              2012-12-10T17:43:21-0500
_audit_creation_method            fapswitch 2.2
_symmetry_space_group_name_H-M    P1
_symmetry_Int_Tables_number       1
_space_group_crystal_system       triclinic
_cell_length_a                    14.981987
_cell_length_b                    13.690711
_cell_length_c                    10.737715
_cell_angle_alpha                 90.012826
_cell_angle_beta                  88.4606
_cell_angle_gamma                 90.018135
_cell_volume                      2201.661202

loop_
_atom_site_label
_atom_site_type_symbol
_atom_type_description
_atom_site_fract_x
_atom_site_fract_y
_atom_site_fract_z
_atom_type_partial_charge
C1    C     C_R   0.328624 0.500472 0.500083 0.814871
C2    C     C_R   0.671366 0.500505 0.499751 0.814997
C3    C     C_R   0.953151 0.522976 0.499786 -0.006439
C4    C     C_R   0.046807 0.522943 0.500260 -0.006529
C5    C     C_R   0.908605 0.526679 0.385841 0.030232
C6    C     C_R   0.091330 0.525070 0.614302 0.030274
C7    C     C_R   0.948148 0.533898 0.725318 -0.306228
C8    C     C_R   0.051796 0.536715 0.274950 -0.306532
C9    C     C_R   0.041599 0.539948 0.725873 0.452415
C10   C     C_R   0.958328 0.542863 0.274548 0.451919
C11   C     C_R   0.444703 0.793270 0.581396 0.100475
C12   C     C_R   0.557107 0.206677 0.421153 0.115445
C13   C     C_R   0.555261 0.793283 0.418563 0.100720
C14   C     C_R   0.442898 0.206670 0.578865 0.115155
C15   C     C_R   0.556478 0.896358 0.416518 -0.001165
C16   C     C_R   0.442494 0.103603 0.582133 -0.002730
C17   C     C_R   0.443449 0.896347 0.583407 -0.001105
C18   C     C_R   0.557473 0.103612 0.417841 -0.002764
C19   C     C_R   0.499975 0.948149 0.499978 0.082426
C20   C     C_R   0.499982 0.051806 0.499986 0.078863
C21   C     C_R   0.612559 0.948656 0.333348 -0.163274
C22   C     C_R   0.386421 0.051323 0.665412 -0.155238
C23   C     C_R   0.387289 0.948637 0.666480 -0.162709
C24   C     C_R   0.613479 0.051340 0.334474 -0.155041
C25   C     C_R   0.497452 0.499489 0.259416 0.968314
C26   C     C_R   0.502810 0.499500 0.740561 0.969088
C27   C     C_3   0.456623 0.576556 0.039788 0.291277
C28   C     C_3   0.543814 0.415215 0.959281 0.278967
C29   C     C_3   0.543673 0.576797 0.960236 0.293555
C30   C     C_3   0.457273 0.414949 0.040632 0.280136
C31   C     C_3   0.417354 0.495388 0.957836 0.234471
C32   C     C_3   0.583317 0.495927 0.042198 0.234793
C33   C     C_3   0.503854 0.496758 0.876904 -0.413323
C34   C     C_3   0.496767 0.496766 0.123063 -0.413328
C35   C     C_R   0.815385 0.517919 0.387044 -0.261095
C36   C     C_R   0.184522 0.516103 0.613020 -0.259580
C37   C     C_R   0.767974 0.504078 0.499596 -0.048130
C38   C     C_R   0.231990 0.503956 0.500196 -0.048271
C39   C     C_R   0.811472 0.509348 0.612819 -0.147828
C40   C     C_R   0.188515 0.510816 0.387051 -0.149714
C41   C     C_R   0.904034 0.520937 0.613511 0.063411
C42   C     C_R   0.095933 0.522380 0.386516 0.064027
Cu1   Cu    Cu3+1 0.500000 0.597420 0.500000 1.042546
Cu2   Cu    Cu3+1 0.500000 0.402580 0.500000 1.047870
H1    H     H_    0.779091 0.522361 0.301465 0.193468
H2    H     H_    0.220744 0.519119 0.698771 0.192875
H3    H     H_    0.773070 0.505862 0.699697 0.157144
H4    H     H_    0.226938 0.508470 0.300142 0.157012
H5    H     H_    0.910040 0.542305 0.811594 0.155505
H6    H     H_    0.089880 0.545986 0.188775 0.154780
H7    H     H_    0.401559 0.752305 0.644843 0.150077
H8    H     H_    0.601709 0.247634 0.359713 0.148238
H9    H     H_    0.598404 0.752329 0.355111 0.150093
H10   H     H_    0.398326 0.247620 0.640343 0.148254
H11   H     H_    0.655601 0.910110 0.267425 0.150509
H12   H     H_    0.342207 0.089815 0.730071 0.155936
H13   H     H_    0.344111 0.910091 0.732244 0.149124
H14   H     H_    0.657654 0.089838 0.269761 0.156368
N1    N     N_R   0.500000 0.743810 0.500000 -0.199295
N2    N     N_R   0.500000 0.256190 0.500000 -0.197446
O1    O     O_R   0.370260 0.582280 0.500030 -0.582004
O2    O     O_R   0.629740 0.417720 0.499970 -0.581850
O3    O     O_R   0.629740 0.582280 0.499970 -0.582097
O4    O     O_R   0.370260 0.417720 0.500030 -0.581782
O5    O     O_R   0.499980 0.582260 0.316850 -0.548632
O6    O     O_R   0.500020 0.417740 0.683150 -0.545506
O7    O     O_R   0.500020 0.582260 0.683150 -0.548936
O8    O     O_R   0.499980 0.417740 0.316850 -0.545797
O9    O     O_3   0.334063 0.496307 0.899002 -0.602032
C43   C     C_3   0.262143 0.484435 0.985511 0.164358
H15   H     H_    0.220142 0.550883 0.982416 0.192913
H16   H     H_    0.282379 0.477310 0.083857 0.159935
C44   C     C_3   0.206499 0.395677 0.947530 -0.296846
H17   H     H_    0.182077 0.405276 0.851874 0.233177
H18   H     H_    0.248534 0.329720 0.945576 0.272366
C45   C     C_3   0.127031 0.377690 0.036047 -0.862202
H19   H     H_    0.149147 0.371265 0.133581 0.274958
H20   H     H_    0.093294 0.308703 0.010048 0.253683
H21   H     H_    0.078225 0.437969 0.028791 0.279466
O10   O     O_3   0.666376 0.497789 0.101625 -0.601996
C46   C     C_3   0.738711 0.485306 0.015993 0.164432
H22   H     H_    0.780763 0.551775 0.018849 0.194139
H23   H     H_    0.718985 0.477587 0.917516 0.160337
C47   C     C_3   0.794014 0.396813 0.055670 -0.298729
H24   H     H_    0.818267 0.407373 0.151247 0.232265
H25   H     H_    0.751758 0.330996 0.058566 0.272214
C48   C     C_3   0.873699 0.377711 0.967982 -0.862780
H26   H     H_    0.851898 0.370388 0.870399 0.275483
H27   H     H_    0.907082 0.308869 0.995278 0.253594
H28   H     H_    0.922697 0.437900 0.974750 0.279724
S1    S     S_3+6 0.397106 0.682975 0.090781 0.045158
O11   O     O_2   0.324706 0.654815 0.183411 -0.354251
O12   O     O_2   0.460408 0.752814 0.150558 -0.234192
O13   O     O_3   0.351558 0.736690 0.966944 -0.521854
H29   H     H_    0.327583 0.799577 0.998796 0.366158
S2    S     S_3+6 0.593446 0.304625 0.898598 0.045740
O14   O     O_2   0.525620 0.250267 0.825162 -0.234400
O15   O     O_2   0.672338 0.327548 0.814369 -0.348935
O16   O     O_3   0.625189 0.232419 0.015906 -0.515579
H30   H     H_    0.648892 0.172623 0.974986 0.369369
S3    S     S_3+6 0.603163 0.683204 0.909082 0.045773
O17   O     O_2   0.675360 0.654896 0.816208 -0.354357
O18   O     O_2   0.539855 0.753093 0.849534 -0.233827
O19   O     O_3   0.649038 0.736898 0.032748 -0.520998
H31   H     H_    0.675158 0.798525 0.000063 0.365210
S4    S     S_3+6 0.408129 0.303979 0.100877 0.045692
O20   O     O_2   0.476230 0.249813 0.173955 -0.235396
O21   O     O_2   0.329199 0.326282 0.185308 -0.348000
O22   O     O_3   0.376607 0.231952 0.983194 -0.515623
H32   H     H_    0.353609 0.171693 0.023766 0.369300
O23   O     O_3   0.084434 0.557327 0.835986 -0.643630
C49   C     C_3   0.075885 0.657022 0.869166 0.014192
H33   H     H_    0.087462 0.662480 0.970536 0.163998
H34   H     H_    0.007752 0.686652 0.853916 0.136421
C50   C     C_3   0.146121 0.719889 0.800400 -0.338679
H35   H     H_    0.213688 0.689156 0.814739 0.261589
H36   H     H_    0.133445 0.719818 0.698945 0.214769
C51   C     C_3   0.143173 0.825068 0.847293 -0.886401
H37   H     H_    0.076027 0.857073 0.833554 0.255582
H38   H     H_    0.193184 0.869505 0.794538 0.250788
H39   H     H_    0.158689 0.827852 0.947809 0.260461
O24   O     O_3   0.915446 0.561499 0.164789 -0.643963
C52   C     C_3   0.923884 0.661604 0.133616 0.014484
H40   H     H_    0.911568 0.668404 0.032572 0.164134
H41   H     H_    0.992216 0.690865 0.148525 0.136587
C53   C     C_3   0.854227 0.723780 0.204575 -0.338928
H42   H     H_    0.786428 0.693708 0.189896 0.260143
H43   H     H_    0.867292 0.722031 0.305891 0.215298
C54   C     C_3   0.857594 0.829686 0.160515 -0.888179
H44   H     H_    0.925138 0.860842 0.173882 0.256447
H45   H     H_    0.808470 0.873718 0.215411 0.250861
H46   H     H_    0.841153 0.834284 0.060433 0.259315

loop_
_geom_bond_atom_site_label_1
_geom_bond_atom_site_label_2
_ccdc_geom_bond_type
C9    O23   S    
C48   H26   S    
S3    O17   D    
C27   C29   S    
C44   H17   S    
Cu2   O6    S    
C19   C20   A    
C45   H21   S    
C8    C42   A    
C6    C9    A    
C49   H34   S    
C46   H22   S    
Cu1   O3    S    
C52   H40   S    
C39   C41   A    
Cu2   O4    S    
C15   C19   A    
C17   C23   A    
C4    C42   A    
C18   C24   A    
C26   O7    A    
C35   C37   A    
C45   H20   S    
C29   C32   S    
C30   C31   S    
C52   H41   S    
S1    O12   D    
S4    O20   D    
C50   H35   S    
S2    O16   S    
C29   C33   S    
C23   H13   S    
C51   H37   S    
C49   H33   S    
C12   H8    S    
C11   C17   A    
O23   C49   S    
C28   C30   S    
C50   H36   S    
S2    O15   D    
C53   H43   S    
C47   C48   S    
C27   S1    S    
C43   H15   S    
C16   C20   A    
C25   C34   S    
C3    C5    A    
C54   H46   S    
C40   C42   A    
S3    O18   D    
C30   S4    S    
C44   H18   S    
O13   H29   S    
C25   O8    A    
C11   N1    A    
O19   H31   S    
C46   H23   S    
C13   H9    S    
C27   C34   S    
C30   C34   S    
C27   C31   S    
C26   O6    A    
C28   C32   S    
C25   O5    A    
C47   H24   S    
C7    H5    S    
C4    C6    A    
S1    O11   D    
C21   H11   S    
C52   C53   S    
C22   H12   S    
C53   C54   S    
Cu2   O2    S    
C51   H39   S    
C32   C34   S    
Cu1   Cu2   S    
Cu1   O7    S    
C32   O10   S    
C26   C33   S    
O16   H30   S    
C31   O9    S    
Cu1   O5    S    
C50   C51   S    
S2    O14   D    
C43   C44   S    
C31   C33   S    
C29   S3    S    
C45   H19   S    
C36   H2    S    
C1    C38   S    
C8    C10   A    
C14   H10   S    
C28   C33   S    
S3    O19   S    
C13   C15   A    
C44   C45   S    
C14   C16   A    
Cu2   O8    S    
C21   C24   A    
C3    C4    A    
C35   H1    S    
C1    O4    A    
C8    H6    S    
C46   C47   S    
C2    O3    A    
Cu1   O1    S    
C39   H3    S    
C54   H44   S    
C40   H4    S    
C3    C41   A    
C16   C22   A    
C47   H25   S    
O10   C46   S    
C10   O24   S    
C1    O1    A    
C13   N1    A    
Cu1   N1    S    
C14   N2    A    
C28   S2    S    
C48   H27   S    
C5    C10   A    
C37   C39   A    
O22   H32   S    
S1    O13   S    
C38   C40   A    
C2    C37   S    
S4    O21   D    
Cu2   N2    S    
C53   H42   S    
C5    C35   A    
C36   C38   A    
C17   C19   A    
C6    C36   A    
C18   C20   A    
C7    C41   A    
O9    C43   S    
C51   H38   S    
C11   H7    S    
C12   N2    A    
C7    C9    A    
C15   C21   A    
C24   H14   S    
C48   H28   S    
C12   C18   A    
C22   C23   A    
C43   H16   S    
O24   C52   S    
C49   C50   S    
C2    O2    A    
C54   H45   S    
S4    O22   S    
