data_mof_unit_34401.cif
_audit_creation_date              2012-12-11T17:01:15-0500
_audit_creation_method            fapswitch 2.2
_symmetry_space_group_name_H-M    P1
_symmetry_Int_Tables_number       1
_space_group_crystal_system       triclinic
_cell_length_a                    19.438831
_cell_length_b                    7.091485
_cell_length_c                    17.577797
_cell_angle_alpha                 89.819591
_cell_angle_beta                  108.654616
_cell_angle_gamma                 90.123488
_cell_volume                      2295.78912658

loop_
_atom_site_label
_atom_site_type_symbol
_atom_type_description
_atom_site_fract_x
_atom_site_fract_y
_atom_site_fract_z
_atom_type_partial_charge
O1    O     O_R   0.413720 0.494330 0.415730 -0.538833
O2    O     O_R   0.586280 0.994330 0.584270 -0.538354
O3    O     O_R   0.560210 0.819300 0.430070 -0.545234
O4    O     O_R   0.439790 0.319300 0.569930 -0.537034
C1    C     C_R   0.581299 0.655498 0.414265 0.719122
C2    C     C_R   0.418711 0.155041 0.585578 0.719657
O5    O     O_R   0.412670 0.823730 0.406310 -0.542571
O6    O     O_R   0.587330 0.323730 0.593690 -0.542644
O7    O     O_R   0.437690 0.998790 0.560340 -0.544122
O8    O     O_R   0.562310 0.498790 0.439660 -0.537694
C3    C     C_R   0.385400 0.655344 0.383458 0.716108
C4    C     C_R   0.614218 0.155132 0.616881 0.716450
O9    O     O_3   0.508380 0.662350 0.550560 -0.374094
O10   O     O_3   0.491620 0.162350 0.449440 -0.374546
V1    V     V_3+5 0.498450 0.935370 0.490620 1.422330
V2    V     V_3+5 0.501550 0.435370 0.509380 1.434440
C5    C     C_R   0.693593 0.012387 0.746876 0.112663
C6    C     C_R   0.305685 0.512655 0.254086 0.112936
C7    C     C_R   0.681798 0.148358 0.686180 -0.155086
C8    C     C_R   0.317365 0.648523 0.314500 -0.156119
C9    C     C_R   0.736043 0.286029 0.695156 -0.212133
C10   C     C_R   0.262386 0.783940 0.305968 -0.217422
H1    H     H_    0.728296 0.396922 0.650653 0.154915
H2    H     H_    0.269742 0.893507 0.350701 0.154679
C11   C     C_R   0.803085 0.273705 0.757482 0.369436
C12   C     C_R   0.195153 0.770350 0.243728 0.367036
C13   C     C_R   0.816548 0.125195 0.814979 -0.159464
C14   C     C_R   0.182637 0.623987 0.185811 -0.165478
C15   C     C_R   0.758483 0.002991 0.810069 0.029984
C16   C     C_R   0.240732 0.502422 0.190969 0.032836
C17   C     C_3   0.755356 0.793100 0.813129 -0.377501
C18   C     C_3   0.243462 0.292238 0.189433 -0.378011
C19   C     C_3   0.684601 0.803424 0.743429 -0.367786
C20   C     C_3   0.314337 0.303596 0.258772 -0.369963
H3    H     H_    0.748061 0.741332 0.869818 0.172496
H4    H     H_    0.250481 0.238434 0.133048 0.173690
H5    H     H_    0.800308 0.726604 0.797136 0.239616
H6    H     H_    0.198567 0.226440 0.206225 0.233961
H7    H     H_    0.636590 0.757151 0.759988 0.184904
H8    H     H_    0.362159 0.256260 0.242278 0.184470
H9    H     H_    0.688770 0.742125 0.686915 0.182539
H10   H     H_    0.310306 0.243699 0.315745 0.180794
C21   C     C_R   0.321765 0.298796 0.630917 -0.144991
C22   C     C_R   0.677086 0.492763 0.371643 -0.155373
C23   C     C_R   0.369035 0.147673 0.634144 -0.102497
C24   C     C_R   0.630672 0.647606 0.365102 -0.105061
C25   C     C_R   0.368512 0.991908 0.683633 -0.159943
C26   C     C_R   0.632698 0.796500 0.312751 -0.157762
C27   C     C_R   0.321522 0.986866 0.730472 0.011162
C28   C     C_R   0.680477 0.792147 0.266956 0.009349
C29   C     C_R   0.272954 0.138838 0.725213 0.018181
C30   C     C_R   0.728298 0.637199 0.275717 0.021848
C31   C     C_R   0.273440 0.294505 0.675204 0.156845
C32   C     C_R   0.726306 0.487784 0.328248 0.156669
C33   C     C_R   0.321836 0.834930 0.782723 0.381159
C34   C     C_R   0.681917 0.938306 0.212675 0.383179
C35   C     C_R   0.273254 0.832993 0.826802 -0.202301
C36   C     C_R   0.730714 0.930277 0.169008 -0.201215
C37   C     C_R   0.224127 0.981365 0.820597 0.022936
C38   C     C_R   0.778876 0.778570 0.178275 0.022741
C39   C     C_R   0.223930 0.135804 0.770034 0.030496
C40   C     C_R   0.778211 0.631369 0.232010 0.031941
C41   C     C_R   0.174640 0.286590 0.763713 0.110773
C42   C     C_R   0.827608 0.479272 0.242647 0.108013
C43   C     C_R   0.177664 0.442063 0.714409 -0.185815
C44   C     C_R   0.823298 0.330215 0.294444 -0.178647
C45   C     C_R   0.226018 0.445104 0.670615 -0.139926
C46   C     C_R   0.773502 0.334877 0.336565 -0.136911
C47   C     C_R   0.176258 0.978239 0.865550 -0.221902
C48   C     C_R   0.826437 0.770740 0.133034 -0.217114
C49   C     C_R   0.126348 0.125062 0.860100 -0.076742
C50   C     C_R   0.876012 0.621606 0.142355 -0.071309
C51   C     C_R   0.123297 0.277674 0.805985 0.066161
C52   C     C_R   0.879971 0.480298 0.201575 0.074980
H11   H     H_    0.321784 0.419262 0.592742 0.120944
H12   H     H_    0.676092 0.377615 0.412028 0.120190
H13   H     H_    0.405607 0.876777 0.686011 0.180127
H14   H     H_    0.596389 0.914725 0.307697 0.182703
H15   H     H_    0.274080 0.714724 0.866320 0.168008
H16   H     H_    0.730906 0.043537 0.127501 0.166277
H17   H     H_    0.178484 0.860926 0.906012 0.130305
H18   H     H_    0.824121 0.880806 0.089302 0.130437
H19   H     H_    0.143485 0.564506 0.709669 0.140488
H20   H     H_    0.857339 0.206600 0.302040 0.140412
H21   H     H_    0.226649 0.566849 0.633389 0.126056
H22   H     H_    0.771784 0.217708 0.375671 0.124888
O11   O     O_R   0.937800 0.775460 0.060470 -0.535239
O12   O     O_R   0.062200 0.275460 0.939530 -0.537618
O13   O     O_R   0.087350 0.441340 0.093710 -0.542772
O14   O     O_R   0.912650 0.941340 0.906290 -0.539360
C53   C     C_R   0.114013 0.610544 0.117430 0.742127
C54   C     C_R   0.885741 0.110793 0.882780 0.740069
O15   O     O_R   0.939820 0.446010 0.069950 -0.545173
O16   O     O_R   0.060180 0.946010 0.930050 -0.546350
O17   O     O_R   0.913690 0.271230 0.915700 -0.516703
O18   O     O_R   0.086310 0.771230 0.084300 -0.514638
C55   C     C_R   0.921285 0.614316 0.088002 0.711129
C56   C     C_R   0.079457 0.115255 0.912762 0.699426
O19   O     O_3   0.991670 0.603050 0.949510 -0.360005
O20   O     O_3   0.008330 0.103050 0.050490 -0.356864
V3    V     V_3+5 0.001550 0.329940 0.009370 1.489226
V4    V     V_3+5 0.998450 0.829940 0.990630 1.503220
C57   C     C_3   0.063245 0.423269 0.788314 -0.670432
H23   H     H_    0.039583 0.446344 0.722585 0.210794
H24   H     H_    0.016848 0.376261 0.806613 0.260265
H25   H     H_    0.084754 0.558377 0.818452 0.199183
C58   C     C_3   0.942318 0.340482 0.225622 -0.673682
H26   H     H_    0.962402 0.321512 0.291786 0.200213
H27   H     H_    0.924308 0.202481 0.196222 0.212378
H28   H     H_    0.990567 0.391595 0.211050 0.219227
Cl1   Cl    Cl    0.871012 0.434451 0.754285 -0.721719
Cl2   Cl    Cl    0.125124 0.924242 0.247162 -0.690411
Cl3   Cl    Cl    0.383468 0.645855 0.796887 -0.649498
Cl4   Cl    Cl    0.622513 0.132862 0.195683 -0.647530

loop_
_geom_bond_atom_site_label_1
_geom_bond_atom_site_label_2
_ccdc_geom_bond_type
C44   C46   A    
C41   C43   A    
C2    C23   S    
O18   V4    S    
C13   C15   A    
C5    C15   A    
C35   H15   S    
O1    C3    A    
O2    C4    A    
C2    O7    A    
O12   V3    S    
C12   Cl2   S    
C25   C27   A    
O5    C3    A    
C19   H7    S    
C20   H8    S    
C18   H4    S    
C7    C9    A    
C26   C28   A    
C43   H19   S    
C32   C46   A    
O16   C56   A    
C36   C38   A    
C46   H22   S    
C38   C40   A    
C26   H14   S    
C47   C49   A    
O14   V4    S    
C40   C42   A    
C52   C58   S    
C21   C31   A    
C22   C24   A    
C20   H10   S    
C27   C29   A    
C29   C39   A    
C28   C30   A    
C58   H26   S    
C17   C19   S    
C6    C16   A    
C18   H6    S    
O13   C53   A    
C6    C8    A    
C36   H16   S    
O5    V1    S    
C53   O18   A    
O6    V2    S    
C58   H27   S    
C5    C19   S    
C48   H18   S    
C30   C32   A    
C50   C55   S    
C23   C25   A    
C21   H11   S    
C49   C56   S    
C24   C26   A    
C3    C8    S    
C45   H21   S    
C37   C39   A    
C47   H17   S    
C50   C52   A    
O15   V3    S    
C49   C51   A    
C41   C51   A    
C43   C45   A    
C27   C33   A    
C54   O17   A    
C28   C34   A    
C17   H5    S    
C29   C31   A    
C42   C44   A    
C57   H25   S    
O4    V2    S    
O11   V4    S    
C21   C23   A    
O14   C54   A    
C38   C48   A    
O6    C4    A    
O20   V4    S    
C13   C54   S    
C57   H24   S    
O1    V2    S    
O2    V1    S    
C6    C20   S    
C37   C47   A    
O4    C2    A    
O19   V3    S    
C8    C10   A    
C9    H1    S    
C58   H28   S    
C17   H3    S    
C25   H13   S    
O15   C55   A    
O3    V1    S    
C9    C11   A    
C42   C52   A    
O13   V3    S    
C39   C41   A    
O3    C1    A    
C48   C50   A    
C11   C13   A    
C33   Cl3   S    
C1    C24   S    
C12   C14   A    
C19   H9    S    
C33   C35   A    
O7    V1    S    
C1    O8    A    
C15   C17   S    
C30   C40   A    
C16   C18   S    
C4    C7    S    
C14   C16   A    
O20   V3    S    
C5    C7    A    
C34   C36   A    
C14   C53   S    
C10   H2    S    
C31   C45   A    
C35   C37   A    
C11   Cl1   S    
C44   H20   S    
C22   C32   A    
C51   C57   S    
O19   V4    S    
O16   V4    S    
C10   C12   A    
O9    V2    S    
C57   H23   S    
C34   Cl4   S    
O10   V1    S    
O8    V2    S    
C22   H12   S    
O12   C56   A    
O17   V3    S    
C18   C20   S    
O11   C55   A    
