data_mof_unit_12591.cif
_audit_creation_date              2012-12-10T17:54:24-0500
_audit_creation_method            fapswitch 2.2
_symmetry_space_group_name_H-M    P1
_symmetry_Int_Tables_number       1
_space_group_crystal_system       triclinic
_cell_length_a                    27.74065
_cell_length_b                    10.599283
_cell_length_c                    9.904799
_cell_angle_alpha                 89.917297
_cell_angle_beta                  89.739867
_cell_angle_gamma                 91.961591
_cell_volume                      2910.57760652

loop_
_atom_site_label
_atom_site_type_symbol
_atom_type_description
_atom_site_fract_x
_atom_site_fract_y
_atom_site_fract_z
_atom_type_partial_charge
C1    C     C_R   0.501026 0.260713 0.500089 0.850511
C2    C     C_R   0.278690 0.482319 0.629558 -0.100210
C3    C     C_R   0.252659 0.501863 0.511624 0.261361
C4    C     C_R   0.101374 0.498641 0.519925 -0.052552
C5    C     C_R   0.125928 0.386452 0.542237 -0.025728
C6    C     C_R   0.099796 0.273493 0.564568 -0.138145
C7    C     C_R   0.128003 0.612334 0.497551 -0.023377
C8    C     C_R   0.353221 0.501679 0.501633 -0.147737
C9    C     C_R   0.646444 0.495861 0.499265 -0.037571
C10   C     C_R   0.972913 0.382418 0.550908 0.045435
C11   C     C_R   0.975303 0.605890 0.478827 0.045932
C12   C     C_R   0.406038 0.500410 0.500190 0.879205
C13   C     C_R   0.948894 0.493017 0.512629 0.070036
C14   C     C_R   0.944819 0.275288 0.592604 -0.217084
C15   C     C_R   0.894834 0.274934 0.590213 -0.147303
C16   C     C_R   0.871009 0.381246 0.546494 -0.018502
C17   C     C_R   0.897864 0.490621 0.507653 -0.052295
C18   C     C_R   0.873583 0.597506 0.463416 -0.017177
C19   C     C_R   0.823229 0.592830 0.458147 0.488635
C20   C     C_R   0.820620 0.381361 0.541738 0.505635
C21   C     C_R   0.721575 0.487209 0.621192 -0.153331
C22   C     C_R   0.671637 0.492140 0.621772 -0.212762
C23   C     C_R   0.501205 0.739430 0.499824 0.868518
C24   C     C_R   0.671849 0.494163 0.376368 -0.216482
C25   C     C_R   0.721810 0.489389 0.376165 -0.101157
C26   C     C_R   0.746652 0.486290 0.498502 0.315080
C27   C     C_R   0.023968 0.382501 0.546508 0.045825
C28   C     C_R   0.050306 0.497027 0.519134 0.072054
C29   C     C_R   0.026186 0.609843 0.490106 0.045379
C30   C     C_R   0.049794 0.271251 0.566619 -0.217117
C31   C     C_R   0.103949 0.724122 0.476918 -0.136994
C32   C     C_R   0.949774 0.710732 0.432611 -0.218021
C33   C     C_R   0.899877 0.706356 0.425183 -0.152919
C34   C     C_R   0.593886 0.499698 0.499747 0.843347
C35   C     C_R   0.053996 0.723237 0.473592 -0.218370
C36   C     C_R   0.583951 0.138614 0.611224 -0.231046
C37   C     C_R   0.623332 0.076662 0.663207 -0.263349
C38   C     C_R   0.624539 0.943918 0.659336 0.542429
C39   C     C_R   0.584588 0.875902 0.608236 -0.243741
C40   C     C_R   0.544302 0.937884 0.556048 0.009523
C41   C     C_R   0.544111 0.069792 0.556807 0.098204
C42   C     C_R   0.504140 0.128685 0.499860 -0.060218
C43   C     C_R   0.466237 0.061356 0.439171 -0.219433
C44   C     C_R   0.466296 0.932551 0.439098 -0.197550
C45   C     C_R   0.176372 0.389696 0.539552 0.514270
C46   C     C_R   0.504339 0.871972 0.499185 -0.061491
C47   C     C_R   0.436622 0.334002 0.141157 -0.093559
C48   C     C_R   0.405399 0.252263 0.071382 -0.167786
C49   C     C_R   0.405343 0.252448 0.931625 -0.196023
C50   C     C_R   0.436553 0.334264 0.860832 -0.162878
C51   C     C_R   0.468736 0.418276 0.928172 0.163354
C52   C     C_R   0.468775 0.418196 0.072817 0.146564
C53   C     C_R   0.529821 0.578412 0.071014 -0.124616
C54   C     C_R   0.529816 0.578366 0.927838 -0.106878
C55   C     C_R   0.178394 0.611493 0.496803 0.510521
C56   C     C_R   0.276514 0.521889 0.388551 -0.206226
C57   C     C_R   0.326801 0.524041 0.382645 0.436562
C58   C     C_R   0.328653 0.481914 0.624712 -0.294018
H1    H     H_    0.347975 0.465379 0.717508 0.186945
H2    H     H_    0.255919 0.535758 0.297384 0.152744
H3    H     H_    0.123665 0.813195 0.462583 0.191322
H4    H     H_    0.967309 0.797021 0.397730 0.142509
H5    H     H_    0.653229 0.496688 0.280582 0.164725
H6    H     H_    0.881973 0.789180 0.389281 0.188431
H7    H     H_    0.741317 0.488752 0.281228 0.142309
H8    H     H_    0.038273 0.813917 0.460445 0.139568
H9    H     H_    0.436159 0.108777 0.394371 0.136338
H10   H     H_    0.585348 0.240584 0.613176 0.173652
H11   H     H_    0.652611 0.133126 0.706163 0.148597
H12   H     H_    0.260088 0.467056 0.724861 0.154938
H13   H     H_    0.586101 0.774056 0.606984 0.160263
H14   H     H_    0.436225 0.879699 0.394609 0.138648
H15   H     H_    0.554184 0.642453 0.124417 0.155048
H16   H     H_    0.434462 0.328307 0.248240 0.197777
H17   H     H_    0.381111 0.188352 0.126262 0.152246
H18   H     H_    0.380985 0.188749 0.877545 0.161588
H19   H     H_    0.434396 0.328857 0.753756 0.205749
H20   H     H_    0.554184 0.642371 0.873538 0.156616
H21   H     H_    0.117905 0.185692 0.580038 0.189630
H22   H     H_    0.652876 0.493279 0.717868 0.169383
H23   H     H_    0.740925 0.485820 0.715870 0.142477
H24   H     H_    0.874914 0.190474 0.622795 0.183653
H25   H     H_    0.960285 0.190570 0.630677 0.141325
H26   H     H_    0.032487 0.179651 0.580613 0.139113
N1    N     N_R   0.201314 0.501051 0.516609 -0.344807
N2    N     N_R   0.797998 0.486380 0.498513 -0.351289
N3    N     N_R   0.499540 0.498800 0.142780 -0.131325
N4    N     N_R   0.499520 0.498720 0.857170 -0.121303
O1    O     O_R   0.500000 0.316780 0.614690 -0.637760
O2    O     O_2   0.794361 0.277402 0.579105 -0.585780
O3    O     O_2   0.204394 0.719955 0.476644 -0.564763
O4    O     O_2   0.799550 0.694026 0.414042 -0.583372
O5    O     O_R   0.500000 0.316750 0.385360 -0.633057
O6    O     O_R   0.428760 0.500030 0.614650 -0.643482
O7    O     O_R   0.428750 0.500010 0.385320 -0.595938
O8    O     O_R   0.500000 0.683250 0.614640 -0.613887
O9    O     O_R   0.500000 0.683220 0.385310 -0.618421
O10   O     O_R   0.571250 0.499990 0.614680 -0.630559
O11   O     O_R   0.571240 0.499970 0.385350 -0.614925
O12   O     O_2   0.200394 0.282465 0.558302 -0.555507
Zn1   Zn    Zn3+2 0.500000 0.500020 0.653130 0.934162
Zn2   Zn    Zn3+2 0.500000 0.499980 0.346870 0.943816
O13   O     O_3   0.662210 0.875524 0.711189 -0.656661
C59   C     C_3   0.707803 0.934210 0.684262 0.077394
H27   H     H_    0.715498 0.009242 0.760325 0.158522
H28   H     H_    0.709670 0.975284 0.580440 0.159895
C60   C     C_3   0.746472 0.835568 0.695550 -0.312022
H29   H     H_    0.745173 0.792722 0.798066 0.221142
H30   H     H_    0.739064 0.759736 0.620475 0.259306
C61   C     C_3   0.796822 0.893663 0.670049 -0.865310
H31   H     H_    0.799234 0.934956 0.566988 0.288784
H32   H     H_    0.823959 0.819477 0.678767 0.261442
H33   H     H_    0.805295 0.968549 0.745478 0.256899
O14   O     O_3   0.349775 0.541576 0.259498 -0.631321
C62   C     C_3   0.352085 0.671874 0.228964 0.101163
H34   H     H_    0.366213 0.728512 0.316068 0.124063
H35   H     H_    0.315601 0.704175 0.201731 0.150577
C63   C     C_3   0.386194 0.694390 0.109047 -0.299980
H36   H     H_    0.422857 0.664704 0.136821 0.241497
H37   H     H_    0.373506 0.636598 0.021743 0.227169
C64   C     C_3   0.389005 0.833277 0.067844 -0.960809
H38   H     H_    0.352878 0.864947 0.037350 0.268963
H39   H     H_    0.414148 0.846066 0.980956 0.275592
H40   H     H_    0.402563 0.892611 0.152825 0.261555

loop_
_geom_bond_atom_site_label_1
_geom_bond_atom_site_label_2
_ccdc_geom_bond_type
C10   C27   A    
C21   C26   A    
C37   H11   S    
C3    N1    S    
C41   C42   A    
C31   H3    S    
C7    C55   A    
C19   N2    A    
C59   H28   S    
O14   C62   S    
C53   C54   A    
C56   C57   A    
C40   C46   A    
C38   O13   S    
C36   C37   A    
C5    C6    A    
C9    C22   A    
C62   H34   S    
C23   O8    A    
C17   C18   A    
C18   C19   A    
C61   H31   S    
C64   H40   S    
C55   O3    S    
C19   O4    S    
C8    C58   A    
C63   H36   S    
O6    Zn1   S    
C16   C17   A    
C62   H35   S    
C20   N2    A    
C60   H29   S    
C12   O7    A    
C8    C12   S    
O9    Zn2   S    
O7    Zn2   S    
C16   C20   A    
O1    Zn1   S    
C23   C46   S    
C21   C22   A    
C27   C30   A    
C60   H30   S    
C48   H17   S    
C12   O6    A    
C36   C41   A    
C14   H25   S    
C4    C7    A    
C59   H27   S    
C4    C28   A    
C44   C46   A    
C34   O11   A    
C15   H24   S    
C63   H37   S    
C53   H15   S    
C7    C31   A    
C51   C52   A    
C25   H7    S    
C24   C25   A    
C10   C14   A    
C39   C40   A    
C35   H8    S    
C58   H1    S    
C5    C45   A    
C45   O12   S    
C56   H2    S    
C63   C64   S    
C55   N1    A    
C45   N1    A    
C43   C44   A    
C37   C38   A    
C8    C57   A    
N3    Zn2   S    
C3    C56   A    
C47   C48   A    
C26   N2    S    
C62   C63   S    
C36   H10   S    
C50   C51   A    
C49   H18   S    
C53   N3    A    
C61   H33   S    
C64   H38   S    
C47   C52   A    
C43   H9    S    
C40   C41   A    
C23   O9    A    
C21   H23   S    
C11   C32   A    
C24   H5    S    
C9    C34   S    
C60   C61   S    
C31   C35   A    
C42   C43   A    
C50   H19   S    
O13   C59   S    
C51   N4    A    
C28   C29   A    
C1    O1    A    
C6    C30   A    
C52   N3    A    
N4    Zn1   S    
C47   H16   S    
C4    C5    A    
C10   C13   A    
O5    Zn2   S    
C2    C58   A    
C9    C24   A    
C57   O14   S    
O10   Zn1   S    
C29   C35   A    
C13   C17   A    
C32   C33   A    
C2    C3    A    
C25   C26   A    
C22   H22   S    
C2    H12   S    
C54   N4    A    
C11   C13   A    
C6    H21   S    
C38   C39   A    
C20   O2    S    
C33   H6    S    
C48   C49   A    
C34   O10   A    
C44   H14   S    
C30   H26   S    
C18   C33   A    
C61   H32   S    
C64   H39   S    
C32   H4    S    
C1    C42   S    
O11   Zn2   S    
C11   C29   A    
C1    O5    A    
C49   C50   A    
C27   C28   A    
C39   H13   S    
C14   C15   A    
O8    Zn1   S    
C59   C60   S    
C15   C16   A    
C54   H20   S    
