data_mof_unit_55348.cif
_audit_creation_date              2012-12-11T14:34:15-0500
_audit_creation_method            fapswitch 2.2
_symmetry_space_group_name_H-M    P1
_symmetry_Int_Tables_number       1
_space_group_crystal_system       triclinic
_cell_length_a                    13.957267
_cell_length_b                    14.003438
_cell_length_c                    27.324561
_cell_angle_alpha                 90.005215
_cell_angle_beta                  89.88939
_cell_angle_gamma                 120.120917
_cell_volume                      4619.41945662

loop_
_atom_site_label
_atom_site_type_symbol
_atom_type_description
_atom_site_fract_x
_atom_site_fract_y
_atom_site_fract_z
_atom_type_partial_charge
C1    C     C_R   0.233367 0.787663 0.568453 0.550773
C2    C     C_1   0.713578 0.870322 0.858982 -0.060692
C3    C     C_1   0.610289 0.529426 0.305508 0.174403
C4    C     C_1   0.432409 0.113704 0.317293 0.170409
C5    C     C_1   0.868528 0.279732 0.323413 0.195680
C6    C     C_1   0.761987 0.066682 0.797168 0.190029
C7    C     C_1   0.927954 0.708936 0.791160 0.193742
C8    C     C_1   0.298922 0.243387 0.797983 0.191802
C9    C     C_1   0.113741 0.878790 0.852542 -0.061676
C10   C     C_1   0.152177 0.290213 0.859470 -0.060330
C11   C     C_1   0.643996 0.826939 0.656317 -0.019421
C12   C     C_1   0.172523 0.820747 0.654870 -0.019672
C13   C     C_1   0.178582 0.357623 0.656708 -0.021605
C14   C     C_1   0.610356 0.802985 0.614849 0.031195
C15   C     C_1   0.196597 0.807873 0.614088 0.031855
C16   C     C_1   0.190855 0.390377 0.615026 0.029820
C17   C     C_R   0.066610 0.154434 0.096334 0.508240
C18   C     C_R   0.211796 0.445503 0.568588 0.550598
C19   C     C_R   0.833026 0.907252 0.097800 0.484289
C20   C     C_R   0.088168 0.932084 0.096624 0.505380
C21   C     C_R   0.107228 0.220355 0.950699 0.569957
C22   C     C_R   0.780397 0.887346 0.950472 0.568018
C23   C     C_R   0.091384 0.929431 0.943203 0.559853
C24   C     C_R   0.531524 0.841383 0.348009 -0.128068
C25   C     C_R   0.093818 0.742610 0.365986 -0.127126
C26   C     C_R   0.261426 0.359060 0.364192 -0.132914
C27   C     C_R   0.569185 0.860568 0.299694 0.014883
C28   C     C_R   0.072069 0.763953 0.318655 0.015684
C29   C     C_R   0.554395 0.766574 0.568600 0.561137
C30   C     C_R   0.239655 0.315333 0.317021 0.014471
C31   C     C_R   0.670364 0.913468 0.207317 0.015011
C32   C     C_R   0.038008 0.798564 0.220769 0.017549
C33   C     C_R   0.204783 0.248202 0.218998 0.017423
C34   C     C_R   0.232575 0.789079 0.432286 0.534462
C35   C     C_R   0.210986 0.443715 0.432113 0.536048
C36   C     C_R   0.499976 0.735886 0.425791 0.554929
C37   C     C_R   0.630005 0.977960 0.227966 -0.119183
C38   C     C_R   0.959217 0.704045 0.245620 -0.119915
C39   C     C_R   0.306184 0.279442 0.241447 -0.124126
C40   C     C_3   0.715912 0.772758 0.785064 -0.229708
C41   C     C_R   0.581428 0.952864 0.274263 -0.117837
C42   C     C_R   0.976147 0.686500 0.294217 -0.118410
C43   C     C_R   0.322521 0.310087 0.290425 -0.125646
C44   C     C_R   0.730480 0.945278 0.163496 -0.127457
C45   C     C_R   0.022088 0.815085 0.171762 -0.133666
C46   C     C_R   0.188564 0.216930 0.169899 -0.129809
C47   C     C_R   0.771726 0.880530 0.144012 0.000888
C48   C     C_R   0.102461 0.908750 0.147213 -0.010598
C49   C     C_R   0.087654 0.187615 0.147524 -0.014089
C50   C     C_R   0.541041 0.673063 0.348816 -0.120664
C51   C     C_3   0.214976 0.968789 0.777300 -0.233653
C52   C     C_R   0.262871 0.920854 0.366993 -0.128078
C53   C     C_R   0.075612 0.331363 0.368946 -0.120407
C54   C     C_R   0.583693 0.692851 0.301549 -0.013270
C55   C     C_R   0.248077 0.940207 0.318513 -0.017288
C56   C     C_R   0.053300 0.292001 0.320979 -0.016956
C57   C     C_R   0.599611 0.788648 0.277130 0.048972
C58   C     C_R   0.151441 0.860969 0.294192 0.049152
C59   C     C_R   0.136722 0.284768 0.294751 0.048894
C60   C     C_R   0.613973 0.621049 0.278920 -0.023744
C61   C     C_R   0.332106 0.031786 0.292863 -0.031680
C62   C     C_3   0.048741 0.286461 0.785536 -0.228600
C63   C     C_R   0.953928 0.269549 0.297431 -0.026111
C64   C     C_R   0.658244 0.644425 0.231529 -0.029070
C65   C     C_R   0.320798 0.041187 0.242456 -0.027951
C66   C     C_R   0.939916 0.242891 0.247417 -0.022911
C67   C     C_R   0.684491 0.745862 0.209461 -0.011519
C68   C     C_R   0.219661 0.967999 0.219380 -0.009613
C69   C     C_R   0.019847 0.227811 0.222314 -0.010078
C70   C     C_3   0.558524 0.821976 0.736389 -0.018876
C71   C     C_3   0.175966 0.755051 0.738874 -0.018366
C72   C     C_3   0.257846 0.443902 0.736448 -0.019595
C73   C     C_3   0.703982 0.764624 0.728761 -0.236165
C74   C     C_R   0.651020 0.815664 0.231207 0.049718
C75   C     C_R   0.135677 0.876831 0.245004 0.049947
C76   C     C_R   0.119415 0.251397 0.245658 0.049383
C77   C     C_R   0.746565 0.780787 0.166714 -0.116948
C78   C     C_R   0.200808 0.983359 0.170917 -0.119781
C79   C     C_R   0.004279 0.193029 0.173688 -0.124372
C80   C     C_R   0.523469 0.750800 0.373369 -0.006794
C81   C     C_R   0.191955 0.818974 0.389152 -0.003997
C82   C     C_R   0.181399 0.372329 0.389123 -0.003634
C83   C     C_3   0.760772 0.963174 0.722335 -0.200292
C84   C     C_3   0.232001 0.954003 0.722594 -0.238419
C85   C     C_3   0.032925 0.808792 0.716210 -0.198059
C86   C     C_3   0.194593 0.241657 0.723341 -0.199889
C87   C     C_3   0.776357 0.975115 0.779213 -0.084670
C88   C     C_3   0.015193 0.816845 0.772136 -0.085777
C89   C     C_3   0.192202 0.228397 0.780186 -0.084182
C90   C     C_1   0.737835 0.875902 0.901685 -0.007076
C91   C     C_1   0.103687 0.900272 0.894267 -0.002877
C92   C     C_1   0.136975 0.264459 0.902104 -0.006823
C93   C     C_3   0.666969 0.844927 0.709376 0.058747
C94   C     C_3   0.152730 0.833469 0.706672 0.059683
C95   C     C_3   0.054070 0.300871 0.729155 -0.236007
C96   C     C_3   0.171639 0.335780 0.709862 0.058472
C97   C     C_3   0.574221 0.830257 0.792809 -0.193146
C98   C     C_3   0.167166 0.775068 0.794253 -0.188992
C99   C     C_3   0.248890 0.429503 0.792928 -0.193486
C100  C     C_3   0.694906 0.863604 0.805509 0.033299
C101  C     C_3   0.126420 0.858792 0.800569 0.034747
C102  C     C_3   0.161800 0.309174 0.806031 0.033794
C103  C     C_1   0.673750 0.562687 0.205472 0.177511
C104  C     C_1   0.416056 0.120461 0.214150 0.171917
C105  C     C_1   0.851420 0.245708 0.220791 0.190250
Cr1   Cr    Cr6+3 0.164410 0.584450 0.499910 1.046089
Cr2   Cr    Cr6+3 0.415550 0.579960 0.499910 1.046866
Cr3   Cr    Cr6+3 0.420040 0.835590 0.499910 1.052895
Cr4   Cr    Cr6+3 0.155170 0.075460 0.019960 1.040338
Cr5   Cr    Cr6+3 0.924540 0.079710 0.019960 1.038955
Cr6   Cr    Cr6+3 0.920290 0.844830 0.019960 1.049137
H1    H     H_    0.553326 0.890738 0.808535 0.168832
H2    H     H_    0.800336 0.792660 0.795354 0.126674
H3    H     H_    0.186931 0.029093 0.780556 0.116833
H4    H     H_    0.984092 0.200954 0.795005 0.126546
H5    H     H_    0.745186 0.019713 0.144834 0.128566
H6    H     H_    0.948650 0.754928 0.152625 0.121050
H7    H     H_    0.254580 0.216802 0.149053 0.126700
H8    H     H_    0.512704 0.898820 0.366264 0.140593
H9    H     H_    0.037838 0.664598 0.383534 0.136452
H10   H     H_    0.342948 0.389668 0.379957 0.132468
H11   H     H_    0.637473 0.048641 0.208682 0.163849
H12   H     H_    0.110661 0.696476 0.813407 0.169790
H13   H     H_    0.886143 0.642256 0.227046 0.143742
H14   H     H_    0.373817 0.282861 0.220776 0.148554
H15   H     H_    0.555586 0.006798 0.290568 0.142948
H16   H     H_    0.915251 0.611487 0.312392 0.143373
H17   H     H_    0.401018 0.332559 0.307160 0.158149
H18   H     H_    0.775551 0.729512 0.150454 0.134720
H19   H     H_    0.263198 0.054531 0.151176 0.140787
H20   H     H_    0.927338 0.171354 0.155391 0.131218
H21   H     H_    0.526125 0.598854 0.367686 0.148946
H22   H     H_    0.336316 0.981105 0.386137 0.157840
H23   H     H_    0.330375 0.451681 0.809188 0.165970
H24   H     H_    0.013418 0.339111 0.389425 0.156511
H25   H     H_    0.839671 0.978922 0.705015 0.085773
H26   H     H_    0.018983 0.870127 0.696294 0.088193
H27   H     H_    0.129848 0.162812 0.706808 0.085172
H28   H     H_    0.743039 0.025905 0.706601 0.171235
H29   H     H_    0.971587 0.726866 0.700983 0.169446
H30   H     H_    0.274429 0.257223 0.707257 0.170393
H31   H     H_    0.862879 0.996756 0.787815 0.078804
H32   H     H_    0.986496 0.877266 0.777443 0.074430
H33   H     H_    0.126212 0.143221 0.789623 0.076879
H34   H     H_    0.490802 0.737482 0.727295 0.162363
H35   H     H_    0.644435 0.678710 0.718155 0.181082
H36   H     H_    0.319307 0.976835 0.716203 0.179556
H37   H     H_    0.030451 0.362664 0.718950 0.180719
H38   H     H_    0.784707 0.784610 0.711964 0.118595
H39   H     H_    0.216865 0.011729 0.700318 0.120826
H40   H     H_    0.992022 0.221765 0.711830 0.119985
H41   H     H_    0.657215 0.691365 0.801771 0.163830
H42   H     H_    0.295189 0.002474 0.797064 0.165491
H43   H     H_    0.024245 0.343221 0.802642 0.166933
H44   H     H_    0.260788 0.770655 0.731296 0.162128
H45   H     H_    0.242715 0.512153 0.726493 0.162283
H46   H     H_    0.516063 0.748979 0.809741 0.114334
H47   H     H_    0.249927 0.807990 0.811623 0.119688
H48   H     H_    0.224184 0.487010 0.809047 0.119327
I1    I     I_    0.501150 0.930769 0.711462 -0.466304
I2    I     I_    0.067842 0.584075 0.720680 -0.468188
I3    I     I_    0.424248 0.497121 0.712256 -0.467783
N1    N     N_1   0.685500 0.497228 0.184696 -0.255539
N2    N     N_1   0.492167 0.183238 0.191641 -0.253287
N3    N     N_1   0.782401 0.250433 0.199431 -0.265279
N4    N     N_1   0.609127 0.457426 0.326814 -0.271148
N5    N     N_1   0.512299 0.179016 0.336690 -0.244546
N6    N     N_1   0.800416 0.287814 0.344022 -0.250326
N7    N     N_1   0.750660 0.138370 0.811226 -0.252598
N8    N     N_1   0.859764 0.624453 0.806050 -0.247680
N9    N     N_1   0.382415 0.255138 0.811914 -0.253237
O1    O     O_R   0.137150 0.468200 0.553200 -0.495190
O2    O     O_R   0.140110 0.470540 0.446010 -0.518041
O3    O     O_R   0.529460 0.669570 0.446010 -0.511350
O4    O     O_R   0.330430 0.859890 0.446010 -0.533243
O5    O     O_R   0.176710 0.690910 0.450560 -0.503170
O6    O     O_R   0.309090 0.485800 0.450560 -0.522822
O7    O     O_R   0.514200 0.823290 0.450560 -0.494979
O8    O     O_3   0.333333 0.666667 0.499990 -0.301088
O9    O     O_R   0.176750 0.985260 0.074180 -0.489217
O10   O     O_R   0.014740 0.191490 0.074180 -0.485872
O11   O     O_R   0.808510 0.823250 0.074180 -0.496591
O12   O     O_R   0.531800 0.668950 0.553200 -0.487654
O13   O     O_R   0.146100 0.172630 0.068980 -0.494325
O14   O     O_R   0.827370 0.973470 0.068980 -0.494427
O15   O     O_R   0.026530 0.853900 0.068980 -0.475827
O16   O     O_3   1.000000 0.000000 0.020040 -0.316863
O17   O     O_R   0.148270 0.170520 0.969620 -0.505330
O18   O     O_R   0.829480 0.977750 0.969620 -0.486738
O19   O     O_R   0.022250 0.851730 0.969620 -0.467623
O20   O     O_R   0.331050 0.862850 0.553200 -0.492699
O21   O     O_R   0.179100 0.982980 0.967000 -0.476109
O22   O     O_R   0.017020 0.196120 0.967000 -0.489831
O23   O     O_R   0.803880 0.820900 0.967000 -0.497962
O24   O     O_R   0.173970 0.688730 0.549930 -0.487201
O25   O     O_R   0.311270 0.485240 0.549930 -0.484306
O26   O     O_R   0.514760 0.826030 0.549930 -0.479731

loop_
_geom_bond_atom_site_label_1
_geom_bond_atom_site_label_2
_ccdc_geom_bond_type
C35   O6    A    
C64   C103  S    
C83   C87   S    
Cr5   O14   S    
C36   O3    A    
C39   H14   S    
C99   H48   S    
C89   C102  S    
C32   C45   A    
C95   C96   S    
C53   H24   S    
C24   C27   A    
C73   C93   S    
C28   C58   A    
C9    C91   T    
C32   C75   A    
C83   H28   S    
C88   C101  S    
C20   O9    A    
C71   C94   S    
C54   C60   A    
Cr4   O16   S    
C25   C28   A    
C46   C49   A    
C40   H41   S    
C33   C39   A    
C72   H45   S    
C1    O24   A    
C38   C42   A    
C11   C14   T    
C19   C47   S    
C84   H36   S    
C66   C69   A    
Cr4   O21   S    
C40   H2    S    
C72   C99   S    
C83   C93   S    
Cr3   O4    S    
C40   C73   S    
C46   H7    S    
C69   C76   A    
C5    N6    T    
C48   C78   A    
Cr3   O26   S    
C2    C90   T    
C56   C59   A    
Cr2   O25   S    
C34   O4    A    
C24   C80   A    
C98   H47   S    
Cr5   O10   S    
C24   H8    S    
C67   C77   A    
Cr3   O20   S    
C79   H20   S    
C1    C15   S    
C34   C81   S    
C32   C38   A    
C44   C47   A    
C29   O12   A    
C7    N8    T    
C88   H32   S    
C52   C55   A    
C73   H38   S    
C3    C60   S    
C11   C93   S    
C63   C66   A    
C10   C92   T    
C26   C82   A    
C62   C95   S    
Cr2   O6    S    
C25   C81   A    
C52   H22   S    
C12   C94   S    
C19   O11   A    
C23   O21   A    
C35   C82   S    
C58   C75   A    
C84   C94   S    
Cr4   O17   S    
C68   C78   A    
C98   H12   S    
C71   C98   S    
Cr5   O16   S    
C51   H3    S    
C31   C44   A    
C13   C96   S    
C18   O25   A    
C35   O2    A    
C64   C67   A    
C10   C102  S    
C70   C93   S    
C36   O7    A    
C36   C80   S    
C17   C49   S    
C67   C74   A    
C97   H1    S    
C31   C74   A    
C39   C43   A    
C20   O15   A    
C4    C61   S    
Cr6   O11   S    
C6    C87   S    
C31   C37   A    
Cr3   O8    S    
Cr2   O12   S    
C53   C82   A    
C68   C75   A    
C97   H46   S    
C57   C74   A    
C104  N2    T    
C61   C65   A    
C5    C63   S    
C85   C94   S    
C27   C41   A    
C33   C76   A    
C7    C88   S    
C12   C15   T    
C21   C92   S    
C65   C68   A    
C71   H44   S    
C30   C59   A    
Cr5   O22   S    
C22   C90   S    
C56   C63   A    
Cr3   O7    S    
C70   H34   S    
C77   H18   S    
C86   C96   S    
C22   O18   A    
C85   H29   S    
C44   H5    S    
C83   H25   S    
C20   C48   S    
C50   H21   S    
C42   H16   S    
C1    O20   A    
Cr4   O13   S    
C16   C18   S    
C26   H10   S    
C70   C97   S    
C26   C30   A    
C29   O26   A    
C27   C57   A    
C23   C91   S    
C30   C43   A    
C69   C79   A    
C95   H40   S    
C47   C77   A    
C14   C29   S    
C98   C101  S    
C25   H9    S    
C85   H26   S    
Cr1   O8    S    
C97   C100  S    
C49   C79   A    
C85   C88   S    
C21   O17   A    
C87   C100  S    
C86   H30   S    
C45   C48   A    
C45   H6    S    
C51   H42   S    
Cr6   O15   S    
C72   I3    S    
C71   I2    S    
Cr2   O8    S    
Cr1   O1    S    
C41   H15   S    
C95   H37   S    
C51   C84   S    
C33   C46   A    
C86   C89   S    
C50   C80   A    
C43   H17   S    
C40   C100  S    
C8    N9    T    
C13   C16   T    
Cr1   O24   S    
Cr2   O3    S    
C18   O1    A    
C51   C101  S    
C89   H33   S    
C73   H35   S    
Cr5   O18   S    
C103  N1    T    
C4    N5    T    
Cr6   O16   S    
C60   C64   A    
C78   H19   S    
C62   H4    S    
C50   C54   A    
C19   O14   A    
Cr4   O9    S    
C17   O13   A    
C55   C61   A    
C28   C42   A    
Cr1   O2    S    
C105  N3    T    
C70   I1    S    
C87   H31   S    
C37   C41   A    
C52   C81   A    
C53   C56   A    
C34   O5    A    
C86   H27   S    
Cr6   O23   S    
C2    C100  S    
C37   H11   S    
C72   C96   S    
C17   O10   A    
C99   C102  S    
C99   H23   S    
Cr6   O19   S    
C9    C101  S    
C55   C58   A    
Cr1   O5    S    
C22   O23   A    
C62   H43   S    
C8    C89   S    
C66   C105  S    
C65   C104  S    
C21   O22   A    
C59   C76   A    
C6    N7    T    
C23   O19   A    
C38   H13   S    
C3    N4    T    
C62   C102  S    
C54   C57   A    
C84   H39   S    
