data_mof_unit_49419.cif
_audit_creation_date              2012-10-26T20:58:22-0400
_audit_creation_method            fapswitch 2.2
_symmetry_space_group_name_H-M    P1
_symmetry_Int_Tables_number       1
_space_group_crystal_system       triclinic
_cell_length_a                    10.623121
_cell_length_b                    14.704381
_cell_length_c                    14.756153
_cell_angle_alpha                 64.693529
_cell_angle_beta                  103.363873
_cell_angle_gamma                 102.979489
_cell_volume                      2006.53423156

loop_
_atom_site_label
_atom_site_type_symbol
_atom_type_description
_atom_site_fract_x
_atom_site_fract_y
_atom_site_fract_z
_atom_type_partial_charge
C1    C     C_R   0.474600 0.120066 0.312349 0.547040
C2    C     C_R   0.424133 0.538091 0.954905 0.027784
C3    C     C_R   0.346632 0.497357 0.885408 -0.149581
C4    C     C_R   0.515424 0.512285 0.130421 -0.135099
C5    C     C_R   0.313472 0.393157 0.912999 -0.126414
C6    C     C_R   0.551981 0.616150 0.102269 -0.121254
C7    C     C_R   0.731727 0.287694 0.660395 0.247627
C8    C     C_R   0.240257 0.695429 0.372577 0.245601
C9    C     C_R   0.689785 0.204284 0.633306 0.026516
C10   C     C_R   0.294257 0.786052 0.385072 0.023806
C11   C     C_R   0.516926 0.284007 0.513189 0.056247
C12   C     C_R   0.518543 0.880266 0.687687 0.555164
C13   C     C_R   0.489520 0.719734 0.477858 0.047084
C14   C     C_R   0.543642 0.367429 0.542881 -0.078313
C15   C     C_R   0.438732 0.622456 0.475002 -0.086687
C16   C     C_R   0.259680 0.000415 0.500022 0.577300
C17   C     C_R   0.740328 0.999835 0.499627 0.586439
C18   C     C_R   0.658658 0.370793 0.614605 0.059849
C19   C     C_R   0.311372 0.611583 0.420471 0.060380
C20   C     C_R   0.462651 0.447381 0.502922 -0.054805
C21   C     C_R   0.509090 0.536302 0.525207 -0.062590
C22   C     C_R   0.619934 0.533806 0.601589 0.236671
C23   C     C_R   0.475283 0.293568 0.179649 -0.141478
C24   C     C_R   0.332670 0.438663 0.448897 0.245861
C25   C     C_R   0.697757 0.455489 0.640939 0.289948
C26   C     C_R   0.254935 0.516485 0.417949 0.286379
C27   C     C_3   0.016274 0.012266 0.409177 0.273571
C28   C     C_3   0.983948 0.988473 0.590015 0.276862
C29   C     C_3   0.963365 0.090096 0.429342 -0.156944
C30   C     C_3   0.036779 0.910635 0.569849 -0.148954
C31   C     C_3   0.876744 0.999688 0.498588 0.018387
C32   C     C_3   0.123362 0.000978 0.500645 0.013783
C33   C     C_3   0.928153 0.922045 0.476596 -0.136507
C34   C     C_R   0.463758 0.712024 0.823101 -0.149247
C35   C     C_3   0.072032 0.078679 0.522570 -0.142932
C36   C     C_R   0.442543 0.188813 0.205844 0.000357
C37   C     C_R   0.520986 0.813625 0.795573 0.001974
C38   C     C_R   0.327487 0.220723 0.035673 -0.126449
C39   C     C_R   0.585409 0.785228 0.972773 -0.128840
C40   C     C_R   0.369162 0.152487 0.133163 -0.122209
C41   C     C_R   0.579025 0.850604 0.870909 -0.126680
C42   C     C_3   0.580099 0.563130 0.730416 -0.114409
C43   C     C_3   0.248847 0.363719 0.335673 -0.145386
C44   C     C_3   0.929101 0.032917 0.244962 -0.120031
C45   C     C_R   0.429555 0.363890 0.083492 0.030255
C46   C     C_3   0.072163 0.969139 0.753743 -0.115718
C47   C     C_R   0.471127 0.643830 0.925464 0.027904
C48   C     C_R   0.356770 0.325902 0.010382 0.051721
C49   C     C_R   0.535409 0.681875 0.000476 0.055326
C50   C     C_R   0.457060 0.470660 0.057417 0.033944
Cu1   Cu    Cu3+1 0.465750 0.918270 0.475680 0.954182
Cu2   Cu    Cu3+1 0.534250 0.081730 0.524320 0.952532
H1    H     H_    0.930062 0.162249 0.371685 0.115800
H2    H     H_    0.597946 0.644796 0.160449 0.115836
H3    H     H_    0.419008 0.687074 0.762808 0.115669
H4    H     H_    0.537977 0.318404 0.235805 0.121903
H5    H     H_    0.621946 0.929490 0.851166 0.132600
H6    H     H_    0.341840 0.071670 0.152144 0.132630
H7    H     H_    0.270855 0.191271 0.980325 0.109267
H8    H     H_    0.633222 0.814844 0.029906 0.107258
H9    H     H_    0.307618 0.544328 0.809278 0.110836
H10   H     H_    0.532516 0.466757 0.210631 0.099104
H11   H     H_    0.879493 0.224212 0.755471 0.304507
H12   H     H_    0.070329 0.838585 0.627541 0.119537
H13   H     H_    0.084371 0.753499 0.286676 0.306675
H14   H     H_    0.602131 0.485909 0.784680 0.144867
H15   H     H_    0.473025 0.561719 0.704399 0.121075
H16   H     H_    0.612763 0.613478 0.772257 0.160302
H17   H     H_    0.336807 0.403444 0.298043 0.103654
H18   H     H_    0.164955 0.405894 0.293077 0.167562
H19   H     H_    0.223440 0.288233 0.330997 0.153568
H20   H     H_    0.884942 0.100333 0.231223 0.118519
H21   H     H_    0.857338 0.962529 0.269704 0.113562
H22   H     H_    0.953206 0.043113 0.171652 0.143754
H23   H     H_    0.588624 0.737801 0.509756 0.205455
H24   H     H_    0.142319 0.040460 0.728692 0.117905
H25   H     H_    0.118182 0.902775 0.766915 0.118679
H26   H     H_    0.048344 0.958105 0.827424 0.142238
H27   H     H_    0.838477 0.529007 0.707114 0.356096
H28   H     H_    0.089341 0.425816 0.419409 0.347839
H29   H     H_    0.445963 0.280715 0.450151 0.193598
H30   H     H_    0.239130 0.849219 0.352807 0.143971
H31   H     H_    0.741815 0.139192 0.668755 0.138781
H32   H     H_    0.866931 0.859232 0.456909 0.128555
H33   H     H_    0.133285 0.141527 0.542167 0.163515
H34   H     H_    0.255019 0.365052 0.857125 0.130033
N1    N     N_R   0.585750 0.204560 0.560800 -0.276686
N2    N     N_R   0.414250 0.795440 0.439200 -0.278831
O1    O     O_R   0.454850 0.022100 0.338110 -0.501449
O2    O     O_3   0.119204 0.688070 0.314154 -0.632441
O3    O     O_3   0.647891 0.602576 0.646903 -0.609946
O4    O     O_3   0.272723 0.348543 0.439385 -0.611873
O5    O     O_3   0.045057 0.024870 0.315496 -0.561184
O6    O     O_3   0.955644 0.975790 0.683870 -0.553902
O7    O     O_3   0.811271 0.459408 0.708779 -0.620128
O8    O     O_3   0.121473 0.499419 0.387757 -0.628167
O9    O     O_R   0.545150 0.977900 0.661890 -0.504897
O10   O     O_R   0.512700 0.160150 0.379180 -0.520602
O11   O     O_R   0.487300 0.839850 0.620820 -0.495860
O12   O     O_R   0.287930 0.931000 0.479440 -0.490401
O13   O     O_R   0.712070 0.069000 0.520560 -0.480256
O14   O     O_R   0.345780 0.069050 0.520520 -0.508204
O15   O     O_R   0.654220 0.930950 0.479480 -0.518108
O16   O     O_3   0.841385 0.287638 0.732406 -0.632181

loop_
_geom_bond_atom_site_label_1
_geom_bond_atom_site_label_2
_ccdc_geom_bond_type
C42   H16   S    
C23   C45   A    
C30   H12   S    
C27   C29   S    
C34   C37   A    
C14   C18   A    
C46   H24   S    
C23   H4    S    
C39   C41   A    
C27   C33   S    
C15   C19   A    
Cu2   O14   S    
C38   C40   A    
C24   C26   A    
C11   C14   A    
Cu1   O15   S    
Cu2   N1    S    
C4    H10   S    
Cu2   O9    S    
C28   O6    S    
C42   O3    S    
C12   C37   S    
C19   C26   A    
C17   O13   A    
C12   O11   A    
C44   O5    S    
C2    C50   A    
C20   C24   A    
C28   C35   S    
C11   N1    A    
C22   C25   A    
C1    O1    A    
C22   O3    S    
C31   C33   S    
C13   H23   S    
H28   O8    S    
C38   C48   A    
C34   H3    S    
C43   H17   S    
C21   C22   A    
C26   O8    S    
C18   C25   A    
C6    H2    S    
C24   O4    S    
C3    H9    S    
Cu1   O11   S    
H13   O2    S    
C5    C48   A    
Cu2   O13   S    
C8    C19   A    
C40   H6    S    
Cu1   Cu2   S    
C32   C35   S    
C14   C20   A    
C36   C40   A    
C47   C49   A    
C46   H26   S    
C16   O12   A    
C10   H30   S    
C11   H29   S    
C4    C50   A    
C1    O10   A    
H27   O7    S    
C46   O6    S    
C7    C18   A    
C10   N2    A    
C44   H22   S    
C12   O9    A    
C9    H31   S    
C5    H34   S    
C16   O14   A    
C39   C49   A    
C25   O7    S    
C43   H18   S    
C7    O16   S    
C13   C15   A    
C42   H15   S    
C17   C31   S    
C27   O5    S    
C4    C6    A    
C8    O2    S    
C45   C48   A    
Cu1   O12   S    
C7    C9    A    
C43   H19   S    
C30   C33   S    
C27   C32   S    
C28   C31   S    
H11   O16   S    
C3    C5    A    
Cu1   N2    S    
C46   H25   S    
C2    C47   A    
C16   C32   S    
C29   C35   S    
C43   O4    S    
C28   C30   S    
C2    C3    A    
C17   O15   A    
C41   H5    S    
C29   C31   S    
C9    N1    A    
C30   C32   S    
C35   H33   S    
C29   H1    S    
C45   C50   A    
C39   H8    S    
C13   N2    A    
Cu2   O10   S    
C44   H20   S    
C6    C49   A    
C37   C41   A    
C44   H21   S    
C33   H32   S    
C38   H7    S    
C15   C21   A    
C20   C21   A    
C8    C10   A    
C23   C36   A    
C42   H14   S    
C34   C47   A    
Cu1   O1    S    
C1    C36   S    
