data_mof_unit_37298.cif
_audit_creation_date              2012-10-26T19:58:18-0400
_audit_creation_method            fapswitch 2.2
_symmetry_space_group_name_H-M    P1
_symmetry_Int_Tables_number       1
_space_group_crystal_system       triclinic
_cell_length_a                    7.524269
_cell_length_b                    8.672304
_cell_length_c                    13.483936
_cell_angle_alpha                 94.857552
_cell_angle_beta                  79.999019
_cell_angle_gamma                 102.819793
_cell_volume                      843.918737457

loop_
_atom_site_label
_atom_site_type_symbol
_atom_type_description
_atom_site_fract_x
_atom_site_fract_y
_atom_site_fract_z
_atom_type_partial_charge
C1    C     C_R   0.544682 0.799858 0.503764 0.550642
C2    C     C_R   0.359211 0.499852 0.802374 0.001565
C3    C     C_2   0.568870 0.967876 0.506994 -0.140484
C4    C     C_R   0.403553 0.487333 0.692751 0.525485
C5    C     C_2   0.429782 0.032052 0.495194 -0.142777
C6    C     C_R   0.454853 0.200114 0.497040 0.547161
C7    C     C_R   0.596628 0.502405 0.306348 0.552291
C8    C     C_R   0.862808 0.426499 0.048012 -0.137607
C9    C     C_R   0.647661 0.484827 0.195456 -0.024578
C10   C     C_R   0.229672 0.591501 0.843464 -0.141743
C11   C     C_R   0.220043 0.648985 0.942998 -0.152478
C12   C     C_R   0.448692 0.503011 0.967786 0.030340
C13   C     C_R   0.327831 0.604664 0.004887 -0.124707
C14   C     C_1   0.984987 0.549575 0.200806 0.232443
C15   C     C_1   0.969860 0.334796 0.411618 0.485168
C16   C     C_1   0.329589 0.359397 0.166819 0.235843
C17   C     C_R   0.472835 0.455732 0.864650 0.026773
C18   C     C_R   0.561978 0.463162 0.029909 0.011135
C19   C     C_R   0.727201 0.417848 0.987164 0.019869
C20   C     C_R   0.750277 0.365895 0.885824 -0.133864
C21   C     C_R   0.615919 0.372876 0.827278 -0.118843
C22   C     C_R   0.509653 0.456137 0.133837 -0.040692
C23   C     C_R   0.831166 0.484696 0.148595 -0.024418
Cu1   Cu    Cu3+1 0.321300 0.483160 0.488710 0.996830
Cu2   Cu    Cu3+1 0.678700 0.516840 0.511290 0.984421
H1    H     H_    0.295899 0.960782 0.483619 0.140785
H2    H     H_    0.014602 0.627498 0.574639 0.224465
H3    H     H_    0.869363 0.317647 0.852572 0.119806
H4    H     H_    0.993747 0.396772 0.016363 0.140880
H5    H     H_    0.146776 0.630327 0.796282 0.130227
H6    H     H_    0.323932 0.656617 0.080573 0.150439
H7    H     H_    0.128350 0.728015 0.972474 0.138150
H8    H     H_    0.631286 0.319007 0.751956 0.145560
H9    H     H_    0.702372 0.039024 0.519179 0.138107
N1    N     N_2   0.947230 0.542220 0.528320 -0.272253
N2    N     N_2   0.052770 0.457780 0.471680 -0.183704
N3    N     N_1   0.104813 0.605231 0.244710 -0.278635
N4    N     N_1   0.902121 0.231372 0.361226 -0.300664
N5    N     N_1   0.187430 0.277318 0.190716 -0.274913
O1    O     O_R   0.383920 0.714220 0.492660 -0.509119
O2    O     O_R   0.685730 0.742660 0.511730 -0.496459
O3    O     O_R   0.275440 0.478800 0.636790 -0.523663
O4    O     O_R   0.577250 0.507240 0.655860 -0.516520
O5    O     O_R   0.314270 0.257340 0.488270 -0.508464
O6    O     O_R   0.616080 0.285780 0.507340 -0.514071
O7    O     O_R   0.422750 0.492760 0.344140 -0.482574
O8    O     O_R   0.724560 0.521200 0.363210 -0.485151

loop_
_geom_bond_atom_site_label_1
_geom_bond_atom_site_label_2
_ccdc_geom_bond_type
C14   C23   S    
C12   C17   A    
C2    C4    S    
Cu1   Cu2   S    
C15   N4    T    
C6    O6    A    
Cu1   O3    S    
Cu2   O8    S    
N1    N2    D    
C3    H9    S    
C3    C5    D    
Cu1   O7    S    
Cu2   O4    S    
C6    O5    A    
C12   C13   A    
C2    C17   A    
C11   C13   A    
Cu1   N2    S    
C4    O3    A    
H2    N1    S    
Cu2   N1    S    
C8    H4    S    
C1    O2    A    
C4    O4    A    
C11   H7    S    
C5    C6    S    
Cu1   O5    S    
C9    C22   A    
C8    C19   A    
C21   H8    S    
C10   C11   A    
C16   N5    T    
C12   C18   A    
C5    H1    S    
C2    C10   A    
C7    O7    A    
Cu2   O6    S    
C15   N2    S    
C8    C23   A    
C20   C21   A    
C14   N3    T    
C18   C19   A    
Cu2   O2    S    
C7    C9    S    
C10   H5    S    
C9    C23   A    
C16   C22   S    
C20   H3    S    
C1    O1    A    
Cu1   O1    S    
C18   C22   A    
C13   H6    S    
C17   C21   A    
C19   C20   A    
C1    C3    S    
C7    O8    A    
