data_mof_unit_51637.cif
_audit_creation_date              2013-03-05T15:55:10-0500
_audit_creation_method            fapswitch 2.2
_symmetry_space_group_name_H-M    P1
_symmetry_Int_Tables_number       1
_space_group_crystal_system       triclinic
_cell_length_a                    12.415232
_cell_length_b                    13.151575
_cell_length_c                    14.323389
_cell_angle_alpha                 76.201566
_cell_angle_beta                  100.783815
_cell_angle_gamma                 116.55911
_cell_volume                      2022.81860651

loop_
_atom_site_label
_atom_site_type_symbol
_atom_site_description
_atom_site_fract_x
_atom_site_fract_y
_atom_site_fract_z
_atom_type_partial_charge
O1    O     O_R   0.972510 0.318130 0.525390 -0.521639
O2    O     O_R   0.806530 0.359650 0.491290 -0.614740
C1    C     C_R   0.855177 0.285899 0.507584 0.831261
O3    O     O_R   0.083010 0.479240 0.641000 -0.554077
O4    O     O_R   0.917030 0.520750 0.606900 -0.581010
C2    C     C_R   0.000067 0.499279 0.668779 0.799854
Cu1   Cu    Cu3+1 0.098280 0.475420 0.520190 0.958462
Cu2   Cu    Cu3+1 0.901720 0.524580 0.479810 0.973701
O5    O     O_R   0.193470 0.640350 0.508710 -0.563160
O6    O     O_R   0.027490 0.681870 0.474610 -0.472909
O7    O     O_R   0.082970 0.479250 0.393100 -0.595351
O8    O     O_R   0.916990 0.520760 0.359000 -0.543642
C3    C     C_R   0.144717 0.714601 0.487346 0.824577
C4    C     C_R   0.998998 0.499258 0.331389 0.758629
C5    C     C_1   0.000554 0.498860 0.771357 -0.172014
C6    C     C_1   0.000155 0.498665 0.856837 0.011463
C7    C     C_1   0.999311 0.498500 0.957482 0.018682
C8    C     C_1   0.998568 0.498386 0.042891 0.009605
C9    C     C_1   0.997901 0.498310 0.143529 -0.011359
C10   C     C_1   0.997835 0.498472 0.228968 -0.213328
C11   C     C_R   0.279624 0.034131 0.378555 0.302709
H1    H     H_    0.467420 0.235497 0.324192 0.177985
C12   C     C_R   0.227293 0.839253 0.469983 -0.231178
C13   C     C_R   0.813763 0.077139 0.565196 0.373571
C14   C     C_R   0.729986 0.963057 0.593155 0.394629
C15   C     C_R   0.606582 0.933133 0.567803 -0.354203
C16   C     C_R   0.564678 0.010750 0.503822 0.060424
C17   C     C_R   0.650894 0.124418 0.472166 -0.000980
C18   C     C_R   0.439626 0.979918 0.471741 0.054083
C19   C     C_R   0.403344 0.062061 0.408120 -0.004847
C20   C     C_R   0.491295 0.170987 0.373833 -0.208045
C21   C     C_R   0.612575 0.199356 0.401611 -0.167523
C22   C     C_R   0.349901 0.868895 0.499306 -0.301641
C23   C     C_R   0.190459 0.925352 0.415643 0.237724
C24   C     C_R   0.773269 0.160954 0.512336 -0.278793
H2    H     H_    0.373139 0.801494 0.542324 0.211270
H3    H     H_    0.546638 0.848617 0.600539 0.168195
H4    H     H_    0.675740 0.280814 0.365491 0.169915
C25   C     C_R   0.342613 0.329334 0.660520 0.244961
H5    H     H_    0.165607 0.314822 0.669909 0.210818
N1    N     N_R   0.246290 0.438200 0.550780 -0.242584
C26   C     C_R   0.752947 0.632860 0.363315 0.708368
C27   C     C_R   0.642599 0.634133 0.319873 -0.410388
C28   C     C_R   0.539428 0.568813 0.367603 -0.198487
C29   C     C_R   0.544799 0.514758 0.463638 0.047755
C30   C     C_R   0.652091 0.500243 0.499706 0.120313
C31   C     C_R   0.443181 0.464185 0.519838 -0.176968
C32   C     C_R   0.442535 0.380722 0.604181 -0.123416
C33   C     C_R   0.541968 0.351135 0.629392 0.438894
C34   C     C_R   0.647081 0.415800 0.581778 -0.273297
C35   C     C_R   0.346790 0.500230 0.499023 0.576588
C36   C     C_R   0.243645 0.355892 0.628799 -0.087339
N2    N     N_R   0.754310 0.561180 0.449760 -0.221553
H6    H     H_    0.455252 0.555345 0.325948 0.172239
H7    H     H_    0.633836 0.682457 0.248725 0.149008
H8    H     H_    0.720732 0.392567 0.608785 0.210655
N3    N     N_R   0.064984 0.905350 0.401645 0.160196
O9    O     O_R   0.001173 0.861947 0.475396 -0.405523
O10   O     O_R   0.020876 0.950380 0.321811 -0.353815
O11   O     O_3   0.538933 0.260003 0.702558 -0.529933
C37   C     C_3   0.514169 0.164067 0.660545 0.076684
H9    H     H_    0.593630 0.179440 0.624950 0.148111
H10   H     H_    0.432960 0.145843 0.606842 0.144681
C38   C     C_3   0.489507 0.057665 0.739014 -0.693617
H11   H     H_    0.409917 0.039470 0.775798 0.274350
H12   H     H_    0.470457 0.981959 0.706481 0.194886
H13   H     H_    0.569553 0.071781 0.792918 0.248174
N4    N     N_R   0.342050 0.255996 0.752583 0.157800
O12   O     O_R   0.423848 0.296646 0.821913 -0.308005
O13   O     O_R   0.246354 0.160883 0.773742 -0.374490
O14   O     O_3   0.376219 0.616546 0.458676 -0.576795
C39   C     C_3   0.323729 0.635790 0.362714 0.146456
H14   H     H_    0.245575 0.654241 0.361153 0.182655
H15   H     H_    0.290872 0.561634 0.324317 0.101284
C40   C     C_3   0.411079 0.747718 0.305694 -0.866690
H16   H     H_    0.504979 0.755999 0.318169 0.274980
H17   H     H_    0.381295 0.751475 0.227353 0.211391
H18   H     H_    0.412033 0.823340 0.328228 0.248956
O15   O     O_3   0.861235 0.702012 0.321599 -0.512358
C41   C     C_3   0.848928 0.703878 0.220933 0.090478
H19   H     H_    0.801054 0.757536 0.180993 0.140486
H20   H     H_    0.800305 0.614722 0.204240 0.126996
C42   C     C_3   0.973770 0.759195 0.184286 -0.721770
H21   H     H_    0.035868 0.726342 0.233763 0.228581
H22   H     H_    0.966506 0.740138 0.111280 0.198151
H23   H     H_    0.012711 0.854139 0.179013 0.248728
O16   O     O_3   0.245139 0.116503 0.319286 -0.569558
C43   C     C_3   0.245675 0.111050 0.221917 0.104412
H24   H     H_    0.187781 0.022631 0.206128 0.154975
H25   H     H_    0.338740 0.136562 0.203957 0.129987
C44   C     C_3   0.197091 0.193666 0.156409 -0.716695
H26   H     H_    0.254853 0.283287 0.169090 0.233249
H27   H     H_    0.197107 0.190316 0.079672 0.214652
H28   H     H_    0.103101 0.168985 0.171300 0.264962
O17   O     O_3   0.935987 0.108000 0.591605 -0.553712
C45   C     C_3   0.978418 0.058027 0.537867 0.160072
H29   H     H_    0.926380 0.043993 0.465820 0.144984
H30   H     H_    0.974124 0.974352 0.580621 0.215975
C46   C     C_3   0.109412 0.135764 0.519842 -0.725336
H31   H     H_    0.167039 0.138652 0.589038 0.248053
H32   H     H_    0.140105 0.101068 0.472180 0.252478
H33   H     H_    0.119138 0.223679 0.483917 0.248364
O18   O     O_3   0.769812 0.886087 0.655942 -0.561447
C47   C     C_3   0.737607 0.787262 0.615046 0.038421
H34   H     H_    0.759977 0.811144 0.538652 0.161569
H35   H     H_    0.639550 0.729902 0.618128 0.167828
C48   C     C_3   0.807635 0.719249 0.673012 -0.680715
H36   H     H_    0.785269 0.691737 0.749175 0.245279
H37   H     H_    0.783473 0.641394 0.642011 0.216206
H38   H     H_    0.906402 0.773130 0.671218 0.253104

loop_
_geom_bond_atom_site_label_1
_geom_bond_atom_site_label_2
_geom_bond_distance
_ccdc_geom_bond_type
O16   C43   1.414863 S    
C11   O16   1.384781 S    
C16   C18   1.430011 A    
C25   N4    1.435232 S    
O17   C45   1.415829 S    
C27   C28   1.381881 A    
C47   H35   1.111783 S    
Cu1   Cu2   2.722522 S    
C29   C30   1.414406 A    
Cu1   O7    1.785418 S    
C15   C16   1.415186 A    
C33   O11   1.382540 S    
C42   H21   1.109349 S    
C39   C40   1.529832 S    
C26   N2    1.368101 A    
C19   C20   1.397123 A    
O7    C4    1.314138 A    
N3    O10   1.300320 A    
C5    C6    1.224687 T    
C45   C46   1.516968 S    
C18   C22   1.401373 A    
C22   H2    1.072513 S    
C3    C12   1.482712 S    
C8    C9    1.442802 S    
C37   H10   1.116821 S    
O5    C3    1.315407 A    
C2    C5    1.466849 S    
C20   C21   1.381647 A    
C17   C24   1.422042 A    
C6    C7    1.443053 S    
C12   C22   1.397742 A    
C45   H30   1.107771 S    
C23   N3    1.441510 S    
C48   H36   1.110552 S    
C21   H4    1.080053 S    
N1    C36   1.351497 A    
C39   H14   1.095761 S    
C25   C36   1.391885 A    
C26   O15   1.392707 S    
C48   H37   1.108129 S    
C35   O14   1.401813 S    
C41   C42   1.523503 S    
C47   H34   1.115752 S    
C29   C31   1.433980 A    
C13   C24   1.412833 A    
H1    C20   1.082355 S    
C38   H13   1.111063 S    
C4    C10   1.466842 S    
C17   C21   1.408255 A    
C13   C14   1.402512 A    
C39   H15   1.111842 S    
C13   O17   1.384958 S    
C44   H26   1.110873 S    
N4    O12   1.301388 A    
C31   C35   1.432515 A    
C11   C23   1.412676 A    
O3    Cu1   1.790398 S    
C14   C15   1.398166 A    
H5    C36   1.082116 S    
C34   H8    1.067812 S    
O11   C37   1.412301 S    
O1    C1    1.314197 A    
C38   H12   1.110808 S    
C37   C38   1.520057 S    
C40   H16   1.104830 S    
C18   C19   1.418566 A    
C44   H27   1.110509 S    
C31   C32   1.423932 A    
C43   C44   1.520769 S    
C1    C24   1.489011 S    
Cu2   O8    1.790398 S    
C12   C23   1.416540 A    
C45   H29   1.118537 S    
C46   H33   1.109409 S    
C7    C8    1.224747 T    
C40   H17   1.110382 S    
O3    C2    1.316889 A    
C32   C33   1.414736 A    
C46   H32   1.104951 S    
C43   H25   1.112275 S    
C48   H38   1.110169 S    
C26   C27   1.400321 A    
C16   C17   1.418966 A    
C28   C29   1.394121 A    
C27   H7    1.079668 S    
Cu1   O5    1.933623 S    
C42   H22   1.110832 S    
O1    Cu1   1.950496 S    
O2    Cu2   1.933624 S    
O8    C4    1.316998 A    
C41   H19   1.110772 S    
O6    C3    1.309437 A    
Cu2   N2    2.039728 S    
O4    Cu2   1.785418 S    
C15   H3    1.073054 S    
C11   C19   1.414166 A    
C30   C34   1.400704 A    
C46   H31   1.106314 S    
C38   H11   1.111075 S    
C9    C10   1.224445 T    
O2    C1    1.312692 A    
O14   C39   1.422791 S    
C44   H28   1.110815 S    
N3    O9    1.300197 A    
O4    C2    1.314198 A    
C30   N2    1.386131 A    
C41   H20   1.114982 S    
Cu1   N1    2.051599 S    
C37   H9    1.111194 S    
C40   H18   1.111139 S    
C14   O18   1.387398 S    
O15   C41   1.416670 S    
C28   H6    1.063516 S    
C42   H23   1.107899 S    
C43   H24   1.112292 S    
Cu2   O6    1.950496 S    
C33   C34   1.398327 A    
O18   C47   1.415296 S    
N4    O13   1.301171 A    
N1    C35   1.385407 A    
C47   C48   1.521965 S    
C25   C32   1.418322 A    
