data_mof_unit_44513.cif
_audit_creation_date              2012-12-10T18:02:06-0500
_audit_creation_method            fapswitch 2.2
_symmetry_space_group_name_H-M    P1
_symmetry_Int_Tables_number       1
_space_group_crystal_system       triclinic
_cell_length_a                    10.829941
_cell_length_b                    9.66711
_cell_length_c                    23.526792
_cell_angle_alpha                 90.103662
_cell_angle_beta                  89.77288
_cell_angle_gamma                 89.310507
_cell_volume                      2462.91745099

loop_
_atom_site_label
_atom_site_type_symbol
_atom_type_description
_atom_site_fract_x
_atom_site_fract_y
_atom_site_fract_z
_atom_type_partial_charge
C1    C     C_R   0.262581 0.501488 0.499028 0.884560
C2    C     C_R   0.737268 0.499343 0.500964 0.892168
C3    C     C_R   0.555878 0.402653 0.237022 0.397837
C4    C     C_R   0.445249 0.401637 0.762823 0.395454
C5    C     C_R   0.565542 0.404100 0.296268 0.323992
C6    C     C_R   0.435919 0.403234 0.703562 0.344818
C7    C     C_R   0.496623 0.502536 0.328617 -0.424044
C8    C     C_R   0.502124 0.502468 0.671505 -0.416803
C9    C     C_R   0.426719 0.606230 0.300050 0.274730
C10   C     C_R   0.569291 0.606126 0.700430 0.274002
C11   C     C_R   0.433924 0.616522 0.240940 0.478908
C12   C     C_R   0.561041 0.616622 0.759533 0.481387
C13   C     C_R   0.493519 0.512345 0.209030 -0.043668
C14   C     C_R   0.504075 0.511913 0.791174 -0.041077
C15   C     C_R   0.065366 0.402617 0.467335 0.336060
C16   C     C_R   0.933387 0.607196 0.528745 0.354454
C17   C     C_R   0.937059 0.394898 0.471619 0.337946
C18   C     C_R   0.062074 0.613934 0.524766 0.375342
C19   C     C_R   0.871360 0.499072 0.501130 -0.373558
C20   C     C_R   0.128267 0.506264 0.497045 -0.370821
C21   C     C_R   0.509648 0.072115 0.450457 0.381460
C22   C     C_R   0.476765 0.926795 0.548744 0.367138
C23   C     C_R   0.493268 0.072894 0.549579 0.362903
C24   C     C_R   0.523755 0.925757 0.451456 0.365893
C25   C     C_R   0.499381 0.500219 0.391252 0.812142
C26   C     C_R   0.500188 0.500314 0.608788 0.825181
C27   C     C_R   0.610955 0.518099 0.881359 0.647515
C28   C     C_R   0.386033 0.514809 0.119051 0.643741
C29   C     C_R   0.391331 0.537926 0.879768 0.581901
C30   C     C_R   0.604481 0.543580 0.120504 0.584820
C31   C     C_R   0.386228 0.538780 0.939598 -0.178265
C32   C     C_R   0.608937 0.549542 0.060687 -0.182400
C33   C     C_R   0.498435 0.541963 0.970113 -0.123360
C34   C     C_R   0.496846 0.542813 0.030196 -0.122822
C35   C     C_R   0.612394 0.540547 0.940549 -0.175075
C36   C     C_R   0.383230 0.534855 0.059769 -0.179239
C37   C     C_R   0.272675 0.536926 0.969495 0.450447
C38   C     C_R   0.721646 0.563373 0.030695 0.466263
C39   C     C_R   0.271015 0.541758 0.028979 0.319403
C40   C     C_R   0.723711 0.557378 0.971205 0.313798
Cu1   Cu    Cu3+1 0.500000 0.640660 0.500000 1.009733
Cu2   Cu    Cu3+1 0.500000 0.359340 0.500000 1.019315
N1    N     N_R   0.502007 0.522026 0.852250 -0.444204
N2    N     N_R   0.494847 0.522847 0.148002 -0.442437
N3    N     N_R   0.500000 0.852070 0.500000 -0.291582
N4    N     N_R   0.500000 0.147930 0.500000 -0.280202
O1    O     O_R   0.319640 0.618740 0.500000 -0.564568
O2    O     O_R   0.680360 0.381260 0.500000 -0.556101
O3    O     O_R   0.680360 0.618740 0.500000 -0.580584
O4    O     O_R   0.319640 0.381260 0.500000 -0.550589
O5    O     O_R   0.499960 0.618810 0.417880 -0.514223
O6    O     O_R   0.500040 0.381190 0.582120 -0.527632
O7    O     O_R   0.500040 0.618810 0.582120 -0.499203
O8    O     O_R   0.499960 0.381190 0.417880 -0.514912
O9    O     O_2   0.716638 0.488858 0.853000 -0.489246
O10   O     O_2   0.282038 0.482595 0.147632 -0.489861
O11   O     O_2   0.287073 0.551759 0.848989 -0.465723
O12   O     O_2   0.708588 0.556018 0.151301 -0.471480
O13   O     O_3   0.161331 0.538057 0.940830 -0.501387
C41   C     C_3   0.118927 0.400886 0.937117 -0.051173
H1    H     H_    0.188051 0.331537 0.915966 0.114642
H2    H     H_    0.034162 0.400225 0.910826 0.224280
H3    H     H_    0.094395 0.359749 0.979766 0.173101
O14   O     O_3   0.832341 0.577427 0.059207 -0.484538
C42   C     C_3   0.858767 0.719682 0.063622 -0.097337
H4    H     H_    0.942559 0.731665 0.090030 0.197075
H5    H     H_    0.782435 0.778356 0.084939 0.117523
H6    H     H_    0.878544 0.765264 0.021238 0.156157
O15   O     O_3   0.157617 0.556768 0.055236 -0.641702
H7    H     H_    0.166678 0.626310 0.085893 0.355797
O16   O     O_3   0.836357 0.572448 0.944638 -0.656799
H8    H     H_    0.824663 0.640332 0.913542 0.361566
O17   O     O_3   0.612962 0.295147 0.207909 -0.641543
H9    H     H_    0.581952 0.292635 0.168413 0.325694
O18   O     O_3   0.391371 0.293274 0.791594 -0.656959
H10   H     H_    0.423131 0.290140 0.830961 0.318062
O19   O     O_3   0.644580 0.308245 0.320641 -0.610143
H11   H     H_    0.678049 0.347558 0.356182 0.354167
O20   O     O_3   0.360117 0.306524 0.678862 -0.629567
H12   H     H_    0.324275 0.346539 0.643828 0.334789
O21   O     O_3   0.350841 0.700260 0.327972 -0.667543
H13   H     H_    0.317620 0.656537 0.362702 0.321170
O22   O     O_3   0.644284 0.699058 0.672776 -0.642352
H14   H     H_    0.681162 0.652480 0.639179 0.361182
O23   O     O_3   0.373103 0.723751 0.213601 -0.526533
C43   C     C_3   0.453348 0.837332 0.210719 -0.221621
H15   H     H_    0.478036 0.875163 0.253891 0.196989
H16   H     H_    0.538376 0.811239 0.185988 0.149331
H17   H     H_    0.405356 0.923308 0.188387 0.185403
O24   O     O_3   0.618897 0.724135 0.787150 -0.520260
C44   C     C_3   0.536358 0.837928 0.789389 -0.215250
H18   H     H_    0.450488 0.811987 0.813068 0.155663
H19   H     H_    0.513423 0.876035 0.746025 0.189285
H20   H     H_    0.581478 0.923630 0.812475 0.187337
O25   O     O_3   0.128815 0.309170 0.433151 -0.570663
C45   C     C_3   0.131181 0.362474 0.377340 -0.238186
H21   H     H_    0.172361 0.283637 0.348527 0.169969
H22   H     H_    0.189311 0.456251 0.375062 0.125482
H23   H     H_    0.036732 0.385855 0.361135 0.197699
O26   O     O_3   0.870281 0.690336 0.567598 -0.539328
C46   C     C_3   0.849040 0.824550 0.545682 -0.191416
H24   H     H_    0.749555 0.850688 0.550360 0.168650
H25   H     H_    0.873907 0.837613 0.500058 0.085883
H26   H     H_    0.900082 0.900428 0.571684 0.168111
O27   O     O_3   0.874892 0.291972 0.442835 -0.539323
C47   C     C_3   0.886772 0.167070 0.473493 -0.211028
H27   H     H_    0.820068 0.091988 0.456232 0.146682
H28   H     H_    0.864667 0.180711 0.519470 0.120729
H29   H     H_    0.980743 0.121363 0.468317 0.175115
O28   O     O_3   0.122839 0.721638 0.551158 -0.533928
C48   C     C_3   0.134055 0.834281 0.512837 -0.259378
H30   H     H_    0.087894 0.820535 0.470871 0.115527
H31   H     H_    0.232840 0.854605 0.504476 0.189940
H32   H     H_    0.095787 0.929154 0.533083 0.142140
O29   O     O_3   0.512334 0.136507 0.398394 -0.504230
C49   C     C_3   0.397592 0.117181 0.371337 -0.166182
H33   H     H_    0.318375 0.140457 0.400257 0.159455
H34   H     H_    0.389903 0.010554 0.354180 0.196603
H35   H     H_    0.391121 0.189090 0.334780 0.173148
O30   O     O_3   0.450806 0.858498 0.598921 -0.523645
C50   C     C_3   0.341851 0.910122 0.625170 -0.114582
H36   H     H_    0.366518 0.974783 0.662365 0.202001
H37   H     H_    0.288234 0.821210 0.641259 0.188903
H38   H     H_    0.280310 0.970969 0.596493 0.121308
O31   O     O_3   0.501186 0.137016 0.601602 -0.513696
C51   C     C_3   0.622918 0.120396 0.621937 -0.209075
H39   H     H_    0.645105 0.010012 0.631059 0.181940
H40   H     H_    0.631098 0.178335 0.662461 0.192029
H41   H     H_    0.691567 0.163727 0.591666 0.126618
O32   O     O_3   0.550025 0.858480 0.401095 -0.511856
C52   C     C_3   0.677564 0.866802 0.389834 -0.227513
H42   H     H_    0.698649 0.804570 0.351261 0.180564
H43   H     H_    0.733023 0.822575 0.425148 0.129699
H44   H     H_    0.705364 0.974922 0.380895 0.191697

loop_
_geom_bond_atom_site_label_1
_geom_bond_atom_site_label_2
_ccdc_geom_bond_type
C38   C40   A    
C51   H39   S    
C40   O16   S    
C8    C26   S    
Cu1   Cu2   S    
O25   C45   S    
C21   O29   S    
C52   H44   S    
O21   H13   S    
C28   O10   S    
O19   H11   S    
C22   O30   S    
C46   H24   S    
C41   H3    S    
C24   N3    A    
C12   O24   S    
C26   O6    A    
C15   O25   S    
C43   H16   S    
C47   H27   S    
O29   C49   S    
C45   H23   S    
C10   O22   S    
C49   H33   S    
C41   H2    S    
O17   H9    S    
O28   C48   S    
C4    O18   S    
C17   C19   A    
C48   H30   S    
C42   H5    S    
C45   H22   S    
C31   C33   A    
C32   C38   A    
C1    O4    A    
C18   C20   A    
C3    C13   A    
C24   O32   S    
C23   O31   S    
O13   C41   S    
C46   H25   S    
C23   N4    A    
C29   N1    A    
C30   N2    A    
Cu1   O3    S    
C38   O14   S    
Cu1   O1    S    
C15   C20   A    
C25   O8    A    
C4    C6    A    
C44   H18   S    
C5    C7    A    
C43   H15   S    
C16   O26   S    
C6    C8    A    
C51   H41   S    
C27   C35   A    
O23   C43   S    
C28   N2    A    
C31   C37   A    
C41   H1    S    
C32   C34   A    
O18   H10   S    
C25   O5    A    
C2    O3    A    
C17   O27   S    
C44   H19   S    
O22   H14   S    
C29   C31   A    
C42   H6    S    
C45   H21   S    
C33   C34   A    
C39   O15   S    
C48   H31   S    
Cu2   O2    S    
C9    C11   A    
Cu1   O7    S    
C50   H36   S    
C37   O13   S    
C10   C12   A    
Cu2   O4    S    
C8    C10   A    
C12   C14   A    
C46   H26   S    
Cu2   N4    S    
O31   C51   S    
C5    O19   S    
C52   H42   S    
C26   O7    A    
C3    C5    A    
O30   C50   S    
C21   N4    A    
C7    C9    A    
C1    C20   S    
C51   H40   S    
C2    C19   S    
C36   C39   A    
C1    O1    A    
C18   O28   S    
C29   O11   S    
C52   H43   S    
C43   H17   S    
C15   C17   A    
O27   C47   S    
C27   O9    S    
C7    C25   S    
C49   H35   S    
C2    O2    A    
O14   C42   S    
C35   C40   A    
O16   H8    S    
C37   C39   A    
Cu2   O8    S    
C44   H20   S    
C30   C32   A    
C11   C13   A    
O24   C44   S    
C47   H28   S    
C11   O23   S    
C16   C19   A    
C30   O12   S    
O26   C46   S    
C33   C35   A    
C49   H34   S    
O32   C52   S    
C48   H32   S    
C34   C36   A    
C4    C14   A    
O15   H7    S    
C3    O17   S    
C50   H37   S    
C6    O20   S    
O20   H12   S    
C27   N1    A    
C22   N3    A    
C28   C36   A    
C16   C18   A    
C42   H4    S    
C21   C24   A    
Cu2   O6    S    
C50   H38   S    
Cu1   N3    S    
C22   C23   A    
Cu1   O5    S    
C13   N2    S    
C9    O21   S    
C14   N1    S    
C47   H29   S    
