data_mof_unit_62824.cif
_audit_creation_date              2012-12-10T21:42:41-0500
_audit_creation_method            fapswitch 2.2
_symmetry_space_group_name_H-M    P1
_symmetry_Int_Tables_number       1
_space_group_crystal_system       triclinic
_cell_length_a                    10.693399
_cell_length_b                    16.174733
_cell_length_c                    16.89748
_cell_angle_alpha                 86.50537
_cell_angle_beta                  91.54096
_cell_angle_gamma                 91.564034
_cell_volume                      2915.18300618

loop_
_atom_site_label
_atom_site_type_symbol
_atom_type_description
_atom_site_fract_x
_atom_site_fract_y
_atom_site_fract_z
_atom_type_partial_charge
Br1   Br    Br    0.668075 0.286180 0.617203 -0.518485
Br2   Br    Br    0.331925 0.713820 0.382797 -0.518485
Br3   Br    Br    0.940938 0.732272 0.549181 -0.545256
Br4   Br    Br    0.059065 0.267725 0.450823 -0.545256
Br5   Br    Br    0.526940 0.294696 0.919127 -0.464793
Br6   Br    Br    0.473059 0.705304 0.080873 -0.464792
C1    C     C_R   0.497088 0.488283 0.652678 0.913417
C2    C     C_R   0.540503 0.449176 0.221920 -0.227281
C3    C     C_R   0.454329 0.545963 0.859591 -0.186058
C4    C     C_R   0.545668 0.454036 0.140408 -0.186057
C5    C     C_R   0.478887 0.470710 0.902640 0.268175
C6    C     C_R   0.521110 0.529290 0.097360 0.268175
C7    C     C_R   0.499123 0.399148 0.862601 0.254850
C8    C     C_R   0.500876 0.600852 0.137399 0.254851
C9    C     C_R   0.503921 0.404256 0.780329 -0.248223
C10   C     C_R   0.496078 0.595744 0.219671 -0.248223
C11   C     C_R   0.432662 0.763719 0.463696 0.371346
C12   C     C_R   0.502912 0.511717 0.347322 0.913418
C13   C     C_R   0.567337 0.236281 0.536304 0.371346
C14   C     C_R   0.422632 0.849689 0.472794 0.013236
C15   C     C_R   0.577368 0.150311 0.527206 0.013236
C16   C     C_R   0.739717 0.499858 0.498129 0.887212
C17   C     C_R   0.260283 0.500142 0.501871 0.887211
C18   C     C_R   0.511248 0.890058 0.522100 0.244601
C19   C     C_R   0.488751 0.109942 0.477900 0.244600
C20   C     C_R   0.596381 0.840366 0.568217 0.033739
C21   C     C_R   0.403618 0.159634 0.431784 0.033740
C22   C     C_R   0.594616 0.753668 0.561887 -0.066250
C23   C     C_R   0.127848 0.500084 0.503589 -0.080398
C24   C     C_R   0.405383 0.246331 0.438113 -0.066249
C25   C     C_R   0.768285 0.692609 0.293903 -0.091731
C26   C     C_R   0.231714 0.307395 0.706100 -0.091733
C27   C     C_R   0.828156 0.625966 0.334848 0.159123
C28   C     C_R   0.171843 0.374037 0.665154 0.159121
C29   C     C_R   0.878755 0.636045 0.412079 0.052613
C30   C     C_R   0.121245 0.363956 0.587923 0.052611
C31   C     C_R   0.870778 0.713391 0.445882 0.287578
C32   C     C_R   0.129224 0.286609 0.554121 0.287579
C33   C     C_R   0.809537 0.778494 0.404321 -0.176921
C34   C     C_R   0.872152 0.499916 0.496411 -0.080398
C35   C     C_R   0.190465 0.221507 0.595684 -0.176919
C36   C     C_R   0.757954 0.767993 0.328848 -0.180476
C37   C     C_R   0.242047 0.232009 0.671157 -0.180473
C38   C     C_R   0.067807 0.565379 0.462298 -0.169061
C39   C     C_R   0.932193 0.434621 0.537701 -0.169060
C40   C     C_3   0.687310 0.104194 0.564785 -0.759337
C41   C     C_3   0.312690 0.895805 0.435215 -0.759338
C42   C     C_3   0.688522 0.879061 0.624645 -0.801135
C43   C     C_3   0.311477 0.120939 0.375356 -0.801133
C44   C     C_3   0.839495 0.545615 0.295292 -0.865775
C45   C     C_R   0.060599 0.433894 0.542025 0.045271
C46   C     C_3   0.160503 0.454390 0.704708 -0.865771
C47   C     C_R   0.939401 0.566106 0.457975 0.045270
C48   C     C_R   0.487298 0.480567 0.738162 -0.086177
C49   C     C_R   0.512702 0.519433 0.261838 -0.086177
C50   C     C_R   0.459495 0.550824 0.778080 -0.227281
H1    H     H_    0.710776 0.818714 0.296989 0.177498
H2    H     H_    0.198151 0.162522 0.569398 0.173708
H3    H     H_    0.120620 0.614968 0.431772 0.206487
H4    H     H_    0.879380 0.385032 0.568228 0.206487
H5    H     H_    0.557621 0.390105 0.253533 0.189556
H6    H     H_    0.442377 0.609895 0.746466 0.189556
H7    H     H_    0.566424 0.398545 0.110987 0.199221
H8    H     H_    0.433573 0.601454 0.889013 0.199221
H9    H     H_    0.720094 0.057959 0.524632 0.239315
H10   H     H_    0.769958 0.145566 0.574308 0.271478
H11   H     H_    0.660334 0.073239 0.622465 0.253816
H12   H     H_    0.289225 0.181289 0.703017 0.177499
H13   H     H_    0.279906 0.942041 0.475368 0.239315
H14   H     H_    0.339665 0.926760 0.377535 0.253817
H15   H     H_    0.230042 0.854433 0.425693 0.271478
H16   H     H_    0.744858 0.831625 0.658594 0.262609
H17   H     H_    0.753748 0.921534 0.590945 0.249111
H18   H     H_    0.638013 0.914257 0.667664 0.247743
H19   H     H_    0.255141 0.168375 0.341406 0.262609
H20   H     H_    0.361986 0.085742 0.332336 0.247742
H21   H     H_    0.246251 0.078466 0.409056 0.249112
H22   H     H_    0.939690 0.530246 0.291894 0.261981
H23   H     H_    0.522324 0.349124 0.749851 0.224380
H24   H     H_    0.789562 0.494905 0.329701 0.232172
H25   H     H_    0.798668 0.549400 0.234071 0.247781
H26   H     H_    0.060307 0.469758 0.708105 0.261981
H27   H     H_    0.201329 0.450606 0.765929 0.247781
H28   H     H_    0.210436 0.505099 0.670299 0.232173
H29   H     H_    0.477677 0.650876 0.250149 0.224380
H30   H     H_    0.657326 0.715215 0.598395 0.191304
H31   H     H_    0.342674 0.284785 0.401606 0.191304
H32   H     H_    0.729703 0.686458 0.234610 0.165406
H33   H     H_    0.270295 0.313547 0.765394 0.165406
H34   H     H_    0.801852 0.837479 0.430608 0.173709
N1    N     N_2   0.486982 0.466007 0.985972 -0.147292
N2    N     N_2   0.513015 0.533993 0.014028 -0.147291
N3    N     N_R   0.515300 0.716920 0.509720 -0.145612
N4    N     N_R   0.484700 0.283080 0.490280 -0.145613
N5    N     N_2   0.511753 0.978106 0.531115 -0.153347
N6    N     N_2   0.488246 0.021894 0.468886 -0.153347
O1    O     O_R   0.494530 0.422540 0.612660 -0.581699
O2    O     O_R   0.505470 0.577460 0.387340 -0.581700
O3    O     O_R   0.504350 0.561840 0.618900 -0.630678
O4    O     O_R   0.495650 0.438160 0.381100 -0.630679
O5    O     O_R   0.678330 0.430350 0.496870 -0.585229
O6    O     O_R   0.321670 0.569650 0.503130 -0.585229
O7    O     O_R   0.688150 0.569660 0.503110 -0.614000
O8    O     O_R   0.311850 0.430340 0.496890 -0.614000
Zn1   Zn    Zn3+2 0.493440 0.406980 0.495830 1.000484
Zn2   Zn    Zn3+2 0.506560 0.593020 0.504170 1.000484

loop_
_geom_bond_atom_site_label_1
_geom_bond_atom_site_label_2
_ccdc_geom_bond_type
C39   H4    S    
C25   C36   A    
C29   C47   S    
C3    H8    S    
C4    H7    S    
N4    Zn1   S    
O4    Zn1   S    
C16   O5    A    
C1    O3    A    
C17   C23   S    
C29   C31   A    
C18   C20   A    
C35   H2    S    
C40   H10   S    
C17   O6    A    
C39   C45   A    
C38   H3    S    
C11   C14   A    
C2    C49   A    
C46   H28   S    
C14   C18   A    
C41   H13   S    
C38   C47   A    
C9    H23   S    
C17   O8    A    
C37   H12   S    
C43   H19   S    
C8    C10   A    
C33   H34   S    
Br5   C7    S    
C20   C42   S    
C2    H5    S    
O1    Zn1   S    
C21   C24   A    
C35   C37   A    
C12   O4    A    
C42   H16   S    
C44   H22   S    
C36   H1    S    
O8    Zn1   S    
C33   C36   A    
O5    Zn1   S    
C34   C39   A    
C48   C50   A    
Br1   C13   S    
C9    C48   A    
C42   H18   S    
C40   H9    S    
C18   N5    S    
N1    N2    D    
C13   N4    A    
C27   C44   S    
C16   O7    A    
C22   N3    A    
C26   C28   A    
C46   H27   S    
C41   H14   S    
N3    Zn2   S    
Br6   C8    S    
C26   H33   S    
C16   C34   S    
C25   C27   A    
C43   H20   S    
C3    C50   A    
C46   H26   S    
C3    C5    A    
C41   H15   S    
C30   C45   S    
C4    C6    A    
C12   C49   S    
C32   C35   A    
C2    C4    A    
C6    C8    A    
C7    C9    A    
C23   C38   A    
C22   H30   S    
C10   H29   S    
C50   H6    S    
C11   N3    A    
C15   C40   S    
C23   C45   A    
O3    Zn2   S    
C15   C19   A    
C25   H32   S    
C1    O1    A    
C13   C15   A    
C20   C22   A    
C42   H17   S    
C6    N2    S    
Br4   C32   S    
C44   H24   S    
C19   C21   A    
C28   C46   S    
O2    Zn2   S    
C30   C32   A    
C10   C49   A    
C40   H11   S    
C24   N4    A    
C5    C7    A    
C27   C29   A    
C26   C37   A    
C43   H21   S    
O6    Zn2   S    
O7    Zn2   S    
C28   C30   A    
C14   C41   S    
C5    N1    S    
Br3   C31   S    
C19   N6    S    
C31   C33   A    
C34   C47   A    
N5    N6    D    
C12   O2    A    
C1    C48   S    
C24   H31   S    
C21   C43   S    
C44   H25   S    
Br2   C11   S    
