data_mof_unit_58664.cif
_audit_creation_date              2012-10-26T21:24:51-0400
_audit_creation_method            fapswitch 2.2
_symmetry_space_group_name_H-M    P1
_symmetry_Int_Tables_number       1
_space_group_crystal_system       triclinic
_cell_length_a                    9.694586
_cell_length_b                    10.84934
_cell_length_c                    15.443883
_cell_angle_alpha                 84.876798
_cell_angle_beta                  73.627076
_cell_angle_gamma                 90.895193
_cell_volume                      1550.87081047

loop_
_atom_site_label
_atom_site_type_symbol
_atom_type_description
_atom_site_fract_x
_atom_site_fract_y
_atom_site_fract_z
_atom_type_partial_charge
C1    C     C_R   0.000213 0.263207 0.496420 0.541262
C2    C     C_R   0.223447 0.527879 0.037499 0.051376
C3    C     C_R   0.322719 0.557825 0.085157 0.033815
C4    C     C_R   0.918269 0.521515 0.668629 0.532268
C5    C     C_R   0.079517 0.494006 0.084125 -0.141788
C6    C     C_R   0.032785 0.486123 0.178389 -0.147299
C7    C     C_R   0.271030 0.552249 0.180521 -0.134980
C8    C     C_R   0.095896 0.062137 0.528183 -0.005745
C9    C     C_R   0.997516 0.129381 0.493796 0.018744
C10   C     C_R   0.893670 0.063908 0.463448 -0.014018
C11   C     C_R   0.893703 0.934440 0.469726 -0.150623
C12   C     C_R   0.665770 0.602821 0.891134 0.052028
C13   C     C_R   0.998990 0.870041 0.499171 -0.010007
C14   C     C_R   0.096963 0.934752 0.530447 0.012065
C15   C     C_3   0.257181 0.933545 0.501289 -0.263604
C16   C     C_R   0.001171 0.737086 0.498647 0.536319
C17   C     C_3   0.257042 0.073393 0.498050 -0.270162
C18   C     C_R   0.598983 0.585699 0.445851 0.143678
C19   C     C_R   0.545210 0.423088 0.563831 0.098608
C20   C     C_R   0.395437 0.426253 0.565117 0.108899
C21   C     C_R   0.453661 0.584408 0.444987 0.143411
C22   C     C_3   0.495913 0.601564 0.344224 -0.286955
C23   C     C_R   0.765977 0.621263 0.940725 0.035340
C24   C     C_3   0.651758 0.605755 0.345198 -0.277094
C25   C     C_R   0.082470 0.503781 0.327507 0.536331
C26   C     C_R   0.867984 0.570071 0.759809 -0.004932
C27   C     C_R   0.128755 0.513645 0.227408 -0.008006
C28   C     C_R   0.913356 0.631594 0.896474 -0.152865
C29   C     C_R   0.963833 0.604806 0.807014 -0.158554
C30   C     C_R   0.722248 0.602360 0.794918 0.003929
C31   C     C_3   0.792136 0.125478 0.415175 -0.258790
C32   C     C_3   0.874106 0.187170 0.321582 -0.410707
C33   C     C_3   0.593001 0.315724 0.620841 -0.242513
C34   C     C_R   0.516219 0.583649 0.939868 0.032946
C35   C     C_3   0.549497 0.304142 0.725229 -0.334571
C36   C     C_3   0.654697 0.228597 0.764127 -0.457890
C37   C     C_3   0.287585 0.341650 0.638552 -0.211422
C38   C     C_3   0.236260 0.397565 0.729411 -0.293438
C39   C     C_3   0.106721 0.322523 0.793891 -0.442355
C40   C     C_3   0.658796 0.682464 0.729565 -0.254624
C41   C     C_3   0.595312 0.802260 0.766236 -0.455670
C42   C     C_R   0.470248 0.587795 0.036042 0.028181
C43   C     C_R   0.574186 0.617608 0.080034 -0.145500
C44   C     C_R   0.718923 0.632938 0.033286 -0.143274
C45   C     C_R   0.412481 0.553044 0.896488 -0.146739
C46   C     C_R   0.269130 0.528932 0.943816 -0.150310
Cu1   Cu    Cu3+1 0.140670 0.499980 0.500000 0.903256
Cu2   Cu    Cu3+1 0.859330 0.500020 0.500000 0.882776
H1    H     H_    0.795277 0.651761 0.070524 0.109148
H2    H     H_    0.461088 0.690980 0.318059 0.113834
H3    H     H_    0.711662 0.526598 0.314555 0.147174
H4    H     H_    0.706829 0.698300 0.321240 0.120170
H5    H     H_    0.922343 0.456576 0.212747 0.113314
H6    H     H_    0.193870 0.508107 0.906752 0.102846
H7    H     H_    0.989987 0.656517 0.931916 0.111370
H8    H     H_    0.076460 0.619542 0.774455 0.112492
H9    H     H_    0.548380 0.627908 0.151254 0.100227
H10   H     H_    0.439225 0.545963 0.825471 0.099015
H11   H     H_    0.797456 0.233303 0.289013 0.125775
H12   H     H_    0.003726 0.470537 0.047662 0.106076
H13   H     H_    0.954808 0.257621 0.326440 0.174627
H14   H     H_    0.930244 0.116501 0.278102 0.142363
H15   H     H_    0.713952 0.056073 0.404978 0.117455
H16   H     H_    0.724104 0.192148 0.456004 0.171134
H17   H     H_    0.663878 0.135016 0.739577 0.148424
H18   H     H_    0.762896 0.276036 0.744091 0.156367
H19   H     H_    0.614882 0.218154 0.839343 0.149983
H20   H     H_    0.548705 0.397320 0.748670 0.173629
H21   H     H_    0.445326 0.251780 0.753510 0.167617
H22   H     H_    0.571942 0.225564 0.597136 0.093510
H23   H     H_    0.817047 0.883918 0.445394 0.129923
H24   H     H_    0.703764 0.326860 0.609389 0.255286
H25   H     H_    0.017800 0.314483 0.762336 0.156610
H26   H     H_    0.139219 0.228002 0.811487 0.142898
H27   H     H_    0.065452 0.367245 0.857362 0.142238
H28   H     H_    0.317268 0.406733 0.765135 0.128613
H29   H     H_    0.214470 0.494041 0.715323 0.182867
H30   H     H_    0.192288 0.319627 0.619319 0.218448
H31   H     H_    0.329103 0.248797 0.648263 0.088157
H32   H     H_    0.493640 0.783779 0.821267 0.160628
H33   H     H_    0.673830 0.853174 0.791744 0.157940
H34   H     H_    0.300391 0.889663 0.555507 0.135041
H35   H     H_    0.571160 0.862626 0.710807 0.129893
H36   H     H_    0.746181 0.714840 0.667545 0.179776
H37   H     H_    0.581401 0.629530 0.704831 0.142090
H38   H     H_    0.300798 0.899324 0.433496 0.139602
H39   H     H_    0.302196 0.109361 0.549706 0.122524
H40   H     H_    0.300579 0.120659 0.428382 0.145872
H41   H     H_    0.468259 0.517809 0.315104 0.146433
H42   H     H_    0.338815 0.577599 0.220375 0.107426
N1    N     N_R   0.648210 0.500930 0.499430 -0.246377
N2    N     N_R   0.352300 0.500890 0.499430 -0.238810
O1    O     O_R   0.118810 0.319640 0.500000 -0.519204
O2    O     O_R   0.881230 0.319680 0.499990 -0.538521
O3    O     O_R   0.055580 0.499970 0.629840 -0.513878
O4    O     O_R   0.818000 0.500010 0.629830 -0.524716
O5    O     O_R   0.118770 0.680320 0.500010 -0.493464
O6    O     O_R   0.881190 0.680360 0.500000 -0.515300
O7    O     O_R   0.182000 0.499990 0.370170 -0.498256
O8    O     O_R   0.944420 0.500030 0.370160 -0.501084

loop_
_geom_bond_atom_site_label_1
_geom_bond_atom_site_label_2
_ccdc_geom_bond_type
C44   H1    S    
C24   H4    S    
C3    C42   A    
C18   C21   A    
Cu1   N2    S    
C40   H36   S    
C35   C36   S    
C34   C42   A    
C41   H32   S    
C36   H19   S    
Cu1   O7    S    
C38   H28   S    
C45   C46   A    
C2    C46   A    
C20   N2    A    
C12   C23   A    
Cu2   O2    S    
C18   C24   S    
C18   N1    A    
C28   C29   A    
C32   H13   S    
C3    C7    A    
C38   C39   S    
C36   H18   S    
C16   O5    A    
C41   H35   S    
C17   H40   S    
C7    C27   A    
C39   H26   S    
C33   H24   S    
C4    O4    A    
C10   C31   S    
C25   O7    A    
C6    C27   A    
C8    C9    A    
Cu2   N1    S    
C39   H27   S    
C9    C10   A    
C22   H2    S    
C24   H3    S    
C13   C14   A    
C28   H7    S    
C15   H34   S    
Cu2   O8    S    
C45   H10   S    
C31   H15   S    
C1    C9    S    
C19   C33   S    
C36   H17   S    
C1    O2    A    
C7    H42   S    
C23   C44   A    
C40   H37   S    
C43   C44   A    
C37   C38   S    
C4    O3    A    
C37   H31   S    
C25   O8    A    
Cu1   Cu2   S    
C41   H33   S    
C46   H6    S    
Cu1   O1    S    
C30   C40   S    
C34   C45   A    
C23   C28   A    
C33   H22   S    
C15   H38   S    
C40   C41   S    
C38   H29   S    
C26   C30   A    
C22   C24   S    
C2    C5    A    
C42   C43   A    
C6    H5    S    
C12   C34   A    
C15   C17   S    
C8    C14   A    
Cu2   O4    S    
C5    H12   S    
C12   C30   A    
C17   H39   S    
C31   H16   S    
C31   C32   S    
C4    C26   S    
C29   H8    S    
C25   C27   S    
Cu2   O6    S    
C37   H30   S    
C8    C17   S    
Cu1   O5    S    
C19   C20   A    
C2    C3    A    
C32   H14   S    
C20   C37   S    
C11   C13   A    
C16   O6    A    
C5    C6    A    
C35   H20   S    
C33   C35   S    
C22   H41   S    
C11   H23   S    
C39   H25   S    
C19   N1    A    
C10   C11   A    
C43   H9    S    
C35   H21   S    
C26   C29   A    
C1    O1    A    
C13   C16   S    
Cu1   O3    S    
C14   C15   S    
C32   H11   S    
C21   C22   S    
C21   N2    A    
