data_mof_unit_44706.cif
_audit_creation_date              2012-10-26T20:24:20-0400
_audit_creation_method            fapswitch 2.2
_symmetry_space_group_name_H-M    P1
_symmetry_Int_Tables_number       1
_space_group_crystal_system       triclinic
_cell_length_a                    15.831115
_cell_length_b                    10.824973
_cell_length_c                    9.592215
_cell_angle_alpha                 88.365229
_cell_angle_beta                  91.500813
_cell_angle_gamma                 93.144429
_cell_volume                      1640.18880853

loop_
_atom_site_label
_atom_site_type_symbol
_atom_type_description
_atom_site_fract_x
_atom_site_fract_y
_atom_site_fract_z
_atom_type_partial_charge
C1    C     C_R   0.496633 0.259884 0.501554 0.541391
C2    C     C_3   0.471978 0.918672 0.638062 -0.229276
C3    C     C_3   0.442638 0.068361 0.379235 -0.228782
C4    C     C_R   0.340658 0.506182 0.497669 0.538328
C5    C     C_3   0.591597 0.081047 0.489884 -0.126433
C6    C     C_3   0.497896 0.120954 0.503107 0.011561
C7    C     C_3   0.501969 0.877577 0.495397 0.002408
C8    C     C_3   0.438910 0.925966 0.383129 -0.206984
C9    C     C_3   0.592541 0.937277 0.471750 -0.085042
C10   C     C_3   0.498759 0.629332 0.079449 -0.023242
C11   C     C_3   0.510643 0.632968 0.911839 0.205124
C12   C     C_3   0.084040 0.518356 0.489317 0.033136
C13   C     C_3   0.580830 0.453129 0.091232 -0.129705
C14   C     C_3   0.432526 0.415774 0.078394 0.277396
C15   C     C_3   0.577526 0.437855 0.924347 0.344933
C16   C     C_R   0.501351 0.739522 0.498229 0.523110
C17   C     C_3   0.420071 0.449097 0.917215 0.236135
C18   C     C_R   0.659764 0.501450 0.501507 0.554834
C19   C     C_3   0.975213 0.451794 0.607252 0.019914
C20   C     C_3   0.025818 0.399962 0.489608 0.038685
C21   C     C_1   0.251489 0.517028 0.490847 -0.016683
C22   C     C_1   0.749602 0.505630 0.504323 0.039759
C23   C     C_3   0.975210 0.632010 0.498118 -0.143974
C24   C     C_3   0.034260 0.570374 0.608622 -0.157247
C25   C     C_2   0.049195 0.267849 0.485992 0.212476
C26   C     C_2   0.641386 0.155982 0.380490 0.277230
C27   C     C_2   0.630454 0.897035 0.337596 0.217651
C28   C     C_2   0.947706 0.380035 0.735295 0.196636
C29   C     C_2   0.420485 0.698643 0.109015 0.212990
C30   C     C_3   0.618829 0.796657 0.939611 -0.010630
C31   C     C_3   0.683567 0.874877 0.855715 -0.344418
C32   C     C_3   0.729880 0.438592 0.914023 -0.017843
C33   C     C_3   0.799943 0.538779 0.934136 -0.336320
C34   C     C_3   0.917076 0.512842 0.498488 0.055633
C35   C     C_3   0.322771 0.303865 0.201817 -0.004887
C36   C     C_3   0.226587 0.298440 0.209017 -0.366793
C37   C     C_3   0.298862 0.321004 0.869308 -0.018746
C38   C     C_3   0.244630 0.310238 0.737277 -0.318285
C39   C     C_2   0.932721 0.399879 0.251645 0.207582
C40   C     C_2   0.576034 0.301130 0.886343 0.247241
C41   C     C_3   0.331681 0.026790 0.768065 0.004909
C42   C     C_3   0.380531 0.024270 0.908522 -0.403094
C43   C     C_3   0.026544 0.580149 0.378708 -0.139846
C44   C     C_3   0.967486 0.461348 0.380544 0.020161
C45   C     C_1   0.175919 0.521086 0.487551 -0.028022
C46   C     C_1   0.825287 0.509420 0.503378 0.032765
C47   C     C_3   0.460941 0.060053 0.641022 0.158886
Cu1   Cu    Cu3+1 0.500040 0.499860 0.642410 1.047179
Cu2   Cu    Cu3+1 0.499960 0.500140 0.357590 0.982813
H1    H     H_    0.413578 0.862653 0.661251 0.130970
H2    H     H_    0.634912 0.518048 0.120809 0.146294
H3    H     H_    0.453604 0.319610 0.085768 0.139410
H4    H     H_    0.373053 0.522581 0.907252 0.112386
H5    H     H_    0.594839 0.365476 0.148010 0.154615
H6    H     H_    0.048430 0.632698 0.284105 0.114385
H7    H     H_    0.953405 0.727557 0.501890 0.120605
H8    H     H_    0.062553 0.614999 0.702956 0.102288
H9    H     H_    0.499195 0.098146 0.730204 0.157499
H10   H     H_    0.518060 0.893833 0.721285 0.115985
H11   H     H_    0.999701 0.194714 0.480221 0.151876
H12   H     H_    0.377046 0.098902 0.384846 0.136321
H13   H     H_    0.617583 0.162761 0.273698 0.179709
H14   H     H_    0.681400 0.833782 0.342757 0.099243
H15   H     H_    0.974415 0.404933 0.836550 0.085431
H16   H     H_    0.418200 0.793496 0.070996 0.046289
H17   H     H_    0.654732 0.763315 0.033014 0.152471
H18   H     H_    0.567224 0.855825 0.969065 0.144588
H19   H     H_    0.726141 0.929386 0.927688 0.142579
H20   H     H_    0.722548 0.815035 0.794121 0.166241
H21   H     H_    0.652116 0.941896 0.785614 0.117412
H22   H     H_    0.748042 0.377562 0.829910 0.180076
H23   H     H_    0.373520 0.889603 0.406723 0.131046
H24   H     H_    0.724670 0.381717 0.012102 0.155628
H25   H     H_    0.782570 0.602486 0.016166 0.153295
H26   H     H_    0.859733 0.496207 0.966654 0.129066
H27   H     H_    0.809962 0.592407 0.834920 0.147028
H28   H     H_    0.347916 0.291992 0.309375 0.176177
H29   H     H_    0.340491 0.222520 0.143259 0.066950
H30   H     H_    0.196145 0.294047 0.104009 0.103225
H31   H     H_    0.205138 0.213588 0.268439 0.160217
H32   H     H_    0.205182 0.380802 0.260711 0.196784
H33   H     H_    0.269605 0.391467 0.931841 0.144177
H34   H     H_    0.624390 0.101434 0.591617 0.106176
H35   H     H_    0.291341 0.232532 0.928146 0.122297
H36   H     H_    0.190931 0.241464 0.753796 0.127266
H37   H     H_    0.215966 0.399606 0.716267 0.127315
H38   H     H_    0.281667 0.283115 0.647562 0.236281
H39   H     H_    0.975710 0.371817 0.173728 0.088960
H40   H     H_    0.602194 0.276692 0.788495 0.143343
H41   H     H_    0.307180 0.932787 0.739878 0.115630
H42   H     H_    0.272372 0.072671 0.783249 0.147551
H43   H     H_    0.336777 0.993989 0.992989 0.091662
H44   H     H_    0.431591 0.958530 0.907728 0.119300
H45   H     H_    0.634655 0.900429 0.555643 0.071054
H46   H     H_    0.408751 0.117082 0.932462 0.223888
H47   H     H_    0.468175 0.103121 0.277674 0.142097
H48   H     H_    0.452922 0.893343 0.278566 0.178351
H49   H     H_    0.548910 0.684477 0.134426 0.126495
H50   H     H_    0.459252 0.686885 0.862706 0.089745
N1    N     N_3   0.501840 0.500250 0.143650 -0.283235
N2    N     N_3   0.501160 0.503300 0.856280 -0.224392
O1    O     O_R   0.500050 0.317570 0.620260 -0.477225
O2    O     O_2   0.708429 0.210526 0.411874 -0.477765
O3    O     O_2   0.603803 0.932208 0.223616 -0.572168
O4    O     O_2   0.896711 0.291823 0.725864 -0.506878
O5    O     O_2   0.360198 0.653716 0.172194 -0.438507
O6    O     O_3   0.587617 0.693620 0.862665 -0.491778
O7    O     O_3   0.654216 0.495703 0.872258 -0.512282
O8    O     O_3   0.353296 0.420532 0.144395 -0.502561
O9    O     O_3   0.386482 0.345997 0.841245 -0.516625
O10   O     O_2   0.856610 0.380671 0.233813 -0.489672
O11   O     O_2   0.556335 0.217118 0.968662 -0.617800
O12   O     O_R   0.499980 0.317810 0.379740 -0.548423
O13   O     O_3   0.374879 0.089937 0.655446 -0.546198
O14   O     O_R   0.379110 0.499870 0.620240 -0.496363
O15   O     O_R   0.379040 0.500110 0.379720 -0.396215
O16   O     O_R   0.500020 0.682190 0.620260 -0.492397
O17   O     O_R   0.499950 0.682430 0.379740 -0.497967
O18   O     O_R   0.620960 0.499890 0.620280 -0.439528
O19   O     O_R   0.620890 0.500130 0.379760 -0.523063
O20   O     O_2   0.123088 0.241666 0.490318 -0.571250

loop_
_geom_bond_atom_site_label_1
_geom_bond_atom_site_label_2
_ccdc_geom_bond_type
C14   O8    S    
Cu2   O12   S    
C17   H4    S    
C30   O6    S    
C47   O13   S    
C42   H44   S    
C41   C42   S    
C4    O14   A    
C35   C36   S    
C41   O13   S    
C8    H48   S    
C3    C6    S    
C17   O9    S    
C7    C8    S    
C40   O11   D    
C38   H37   S    
C12   C43   S    
C30   C31   S    
C5    H34   S    
Cu2   O19   S    
C20   C25   S    
C27   O3    D    
C23   C43   S    
C11   H50   S    
C10   H49   S    
C17   N2    S    
C2    H1    S    
C13   H2    S    
C33   H26   S    
C31   H21   S    
C14   H3    S    
C2    C7    S    
C24   H8    S    
C23   C24   S    
C37   H35   S    
C3    H47   S    
C34   C46   S    
C25   H11   S    
C40   H40   S    
Cu1   O18   S    
C36   H32   S    
C30   H18   S    
C35   O8    S    
C39   O10   D    
C41   H41   S    
C14   C17   S    
C1    O12   A    
C39   H39   S    
C20   C44   S    
C32   H22   S    
C21   C45   T    
C3    H12   S    
C31   H19   S    
C8    H23   S    
C6    C47   S    
C38   H36   S    
C42   H46   S    
C23   H7    S    
C34   C44   S    
C3    C8    S    
C36   H31   S    
C32   H24   S    
C2    H10   S    
C35   H28   S    
C1    C6    S    
C18   O18   A    
C15   O7    S    
C43   C44   S    
C5    C9    S    
C37   C38   S    
C16   O17   A    
C26   O2    D    
C33   H27   S    
Cu2   O17   S    
C28   O4    D    
C23   C34   S    
Cu1   O1    S    
C12   C20   S    
C11   N2    S    
C15   N2    S    
C10   N1    S    
C19   C28   S    
C37   O9    S    
C30   H17   S    
C27   H14   S    
C36   H30   S    
Cu1   O14   S    
C29   H16   S    
C28   H15   S    
C43   H6    S    
C7    C16   S    
C41   H42   S    
C13   C15   S    
C11   O6    S    
C29   O5    D    
C39   C44   S    
C18   O19   A    
C9    C27   S    
C13   H5    S    
C7    C9    S    
Cu1   Cu2   S    
C22   C46   T    
C18   C22   S    
C4    O15   A    
C12   C45   S    
C19   C34   S    
C14   N1    S    
Cu1   O16   S    
C2    C47   S    
C12   C24   S    
C35   H29   S    
C38   H38   S    
C32   C33   S    
C19   C20   S    
C19   C24   S    
C26   H13   S    
C16   O16   A    
Cu2   N1    S    
C4    C21   S    
C10   C29   S    
C5    C6    S    
C13   N1    S    
Cu1   N2    S    
C1    O1    A    
C42   H43   S    
C37   H33   S    
C15   C40   S    
C10   C11   S    
C5    C26   S    
C33   H25   S    
C31   H20   S    
Cu2   O15   S    
C32   O7    S    
C25   O20   D    
C9    H45   S    
C47   H9    S    
