data_mof_unit_13464.cif
_audit_creation_date              2012-12-11T15:38:57-0500
_audit_creation_method            fapswitch 2.2
_symmetry_space_group_name_H-M    P1
_symmetry_Int_Tables_number       1
_space_group_crystal_system       triclinic
_cell_length_a                    14.310246
_cell_length_b                    14.8358
_cell_length_c                    33.210625
_cell_angle_alpha                 97.875963
_cell_angle_beta                  90.340122
_cell_angle_gamma                 118.789974
_cell_volume                      6099.87584551

loop_
_atom_site_label
_atom_site_type_symbol
_atom_type_description
_atom_site_fract_x
_atom_site_fract_y
_atom_site_fract_z
_atom_type_partial_charge
C1    C     C_R   0.616937 0.910255 0.437011 0.539609
C2    C     C_R   0.711988 0.436974 0.949414 0.543199
C3    C     C_R   0.596870 0.836406 0.773385 -0.133970
C4    C     C_R   0.608897 0.849582 0.732778 -0.151136
C5    C     C_R   0.624160 0.779162 0.704652 0.030399
C6    C     C_R   0.623004 0.691264 0.717446 0.258908
C7    C     C_R   0.610126 0.678731 0.758429 -0.067435
C8    C     C_R   0.600377 0.752587 0.786891 -0.019504
C9    C     C_R   0.556123 0.733766 0.631876 -0.144204
C10   C     C_R   0.554754 0.765403 0.594468 -0.172521
C11   C     C_R   0.723649 0.924790 0.615723 0.262605
C12   C     C_3   0.008307 0.524680 0.117971 -0.097462
C13   C     C_R   0.710504 0.739504 0.950173 0.539908
C14   C     C_3   0.425516 0.719409 0.168593 -0.131907
C15   C     C_3   0.755822 0.146409 0.702795 -0.126204
C16   C     C_3   0.468114 0.365449 0.819068 -0.131761
C17   C     C_3   0.006518 0.957295 0.720197 -0.099369
C18   C     C_3   0.874540 0.737114 0.783341 -0.105879
C19   C     C_3   0.061844 0.640278 0.536040 -0.107706
C20   C     C_3   0.905755 0.043081 0.621797 -0.120265
C21   C     C_R   0.828838 0.434981 0.165259 -0.130564
C22   C     C_R   0.826149 0.446653 0.123987 0.229119
C23   C     C_R   0.770096 0.348370 0.245610 -0.146055
C24   C     C_R   0.760884 0.332291 0.285976 -0.132495
C25   C     C_R   0.734466 0.393648 0.314447 -0.021561
C26   C     C_R   0.723597 0.475414 0.302632 -0.050314
C27   C     C_R   0.735422 0.494321 0.262429 0.255526
C28   C     C_R   0.754108 0.426704 0.233091 0.022837
C29   C     C_R   0.747020 0.429905 0.189120 -0.064881
C30   C     C_R   0.611628 0.351195 0.370067 -0.118428
C31   C     C_R   0.594178 0.205486 0.456649 0.543692
C32   C     C_R   0.576557 0.304437 0.404683 -0.125751
C33   C     C_R   0.739271 0.293233 0.411775 -0.129602
C34   C     C_R   0.773900 0.339375 0.377121 -0.120476
C35   C     C_R   0.708635 0.365234 0.355230 0.029701
C36   C     C_R   0.638364 0.271526 0.424913 0.020595
C37   C     C_R   0.246020 0.877941 0.393075 0.018966
C38   C     C_R   0.234261 0.958872 0.380275 -0.126722
C39   C     C_R   0.211700 0.956407 0.339030 -0.112091
C40   C     C_R   0.722235 0.892596 0.653931 -0.113121
C41   C     C_R   0.200035 0.872924 0.310170 0.041807
C42   C     C_R   0.204682 0.788944 0.322859 -0.112286
C43   C     C_R   0.295861 0.892779 0.434327 0.536254
C44   C     C_R   0.227275 0.791188 0.364080 -0.127965
C45   C     C_R   0.205503 0.814947 0.161787 -0.124929
C46   C     C_R   0.176605 0.794102 0.119939 -0.141045
C47   C     C_R   0.085807 0.896522 0.130240 -0.124527
C48   C     C_R   0.114608 0.917094 0.172104 -0.112038
C49   C     C_R   0.170867 0.872940 0.188065 0.040303
C50   C     C_1   0.182611 0.876937 0.231345 -0.030519
C51   C     C_R   0.637146 0.799343 0.662342 -0.023727
C52   C     C_1   0.190041 0.876060 0.267397 -0.028275
C53   C     C_R   0.111871 0.830338 0.104089 0.022938
C54   C     C_R   0.637490 0.878240 0.395484 0.020230
C55   C     C_R   0.614280 0.905256 0.551659 0.559280
C56   C     C_R   0.552560 0.799740 0.368378 -0.131469
C57   C     C_R   0.564754 0.787079 0.326669 -0.102856
C58   C     C_R   0.661960 0.852005 0.311799 0.044869
C59   C     C_R   0.749144 0.924971 0.338799 -0.115390
C60   C     C_R   0.737162 0.937962 0.380483 -0.124471
C61   C     C_R   0.778326 0.917706 0.175045 -0.173630
C62   C     C_R   0.634265 0.863541 0.586894 0.032737
C63   C     C_R   0.793724 0.905579 0.133639 -0.146917
C64   C     C_R   0.616945 0.754011 0.120938 -0.099706
C65   C     C_R   0.600138 0.767451 0.162317 0.295023
C66   C     C_R   0.683717 0.846250 0.189606 0.044444
C67   C     C_R   0.589590 0.199070 0.571008 0.542699
C68   C     C_1   0.675960 0.849037 0.232705 0.026262
C69   C     C_1   0.669774 0.849711 0.268774 -0.000385
C70   C     C_R   0.715160 0.820588 0.106581 -0.024506
C71   C     C_R   0.621799 0.246951 0.614273 -0.032406
C72   C     C_R   0.558266 0.280480 0.636815 -0.137996
C73   C     C_R   0.052534 0.781530 0.063657 0.535874
C74   C     C_R   0.572955 0.301871 0.679316 -0.145454
C75   C     C_R   0.650631 0.289342 0.699761 0.041186
C76   C     C_R   0.718120 0.260749 0.677606 0.285199
C77   C     C_R   0.705036 0.242141 0.634930 -0.103307
C78   C     C_R   0.759432 0.342084 0.845107 -0.172329
C79   C     C_R   0.288883 0.886879 0.548537 0.553983
C80   C     C_R   0.771837 0.371506 0.887306 -0.148674
C81   C     C_R   0.588417 0.338153 0.886726 -0.108170
C82   C     C_R   0.576154 0.310089 0.844153 0.288589
C83   C     C_R   0.663302 0.315076 0.823394 0.041071
C84   C     C_R   0.743782 0.486441 0.066357 0.588380
C85   C     C_1   0.658655 0.304323 0.779785 0.014287
C86   C     C_1   0.655450 0.298283 0.743330 0.014840
C87   C     C_R   0.688177 0.374925 0.908265 -0.023559
C88   C     C_R   0.069341 0.754847 0.908623 0.019839
C89   C     C_R   0.096516 0.850820 0.896369 -0.124693
C90   C     C_R   0.117190 0.864395 0.856165 -0.069778
C91   C     C_R   0.737494 0.449984 0.106346 0.068130
C92   C     C_R   0.110473 0.782108 0.827736 0.048776
C93   C     C_R   0.092363 0.689309 0.840628 -0.134631
C94   C     C_R   0.072039 0.675727 0.880949 -0.129255
C95   C     C_R   0.742898 0.789242 0.066384 0.541890
C96   C     C_R   0.183692 0.767239 0.761427 -0.177086
C97   C     C_R   0.187936 0.774566 0.720230 -0.179628
C98   C     C_R   0.123631 0.806462 0.701233 0.002229
C99   C     C_R   0.052877 0.830085 0.723516 0.305688
C100  C     C_R   0.044436 0.817109 0.764915 0.282311
C101  C     C_R   0.113727 0.790043 0.784150 -0.007435
C102  C     C_R   0.185038 0.923359 0.649336 -0.114622
C103  C     C_R   0.649472 0.433441 0.129728 0.200726
C104  C     C_R   0.226170 0.942945 0.611697 -0.189419
C105  C     C_R   0.163106 0.757775 0.590724 0.266738
C106  C     C_R   0.021647 0.731995 0.947434 0.542466
C107  C     C_R   0.124546 0.739381 0.628929 -0.091344
C108  C     C_R   0.138830 0.822306 0.658704 0.024749
C109  C     C_R   0.221482 0.861515 0.583053 0.016030
C110  C     C_R   0.661073 0.744117 0.912066 0.021978
C111  C     C_R   0.586765 0.652376 0.886719 -0.132648
C112  C     C_R   0.560921 0.655387 0.846422 -0.129572
C113  C     C_R   0.608808 0.750067 0.831094 0.025721
C114  C     C_R   0.676060 0.842551 0.857618 -0.112096
C115  C     C_R   0.655884 0.424316 0.170953 -0.125503
C116  C     C_R   0.701653 0.839607 0.897682 -0.118226
Cr1   Cr    Cr6+3 0.424820 0.846020 0.489780 1.028554
Cr2   Cr    Cr6+3 0.657880 0.078580 0.505700 1.034431
Cr3   Cr    Cr6+3 0.417280 0.075360 0.504550 1.008081
Cr4   Cr    Cr6+3 0.903360 0.812540 0.006510 1.017635
Cr5   Cr    Cr6+3 0.914630 0.587050 0.006280 1.041226
Cr6   Cr    Cr6+3 0.673560 0.582680 0.008540 1.044756
H1    H     H_    0.498739 0.289118 0.414248 0.127400
H2    H     H_    0.035442 0.925051 0.118973 0.126533
H3    H     H_    0.207723 0.021549 0.329497 0.108487
H4    H     H_    0.870266 0.957813 0.123479 0.136697
H5    H     H_    0.842497 0.979482 0.195997 0.113043
H6    H     H_    0.824836 0.975170 0.327462 0.105800
H7    H     H_    0.804065 0.998868 0.400596 0.127769
H8    H     H_    0.474702 0.752859 0.378935 0.126780
H9    H     H_    0.555492 0.687682 0.100635 0.143509
H10   H     H_    0.496966 0.730161 0.305870 0.123751
H11   H     H_    0.849601 0.399085 0.902984 0.140715
H12   H     H_    0.895747 0.432093 0.179145 0.116105
H13   H     H_    0.849579 0.350774 0.366370 0.105803
H14   H     H_    0.826922 0.346201 0.829171 0.125703
H15   H     H_    0.755483 0.216941 0.618308 0.169334
H16   H     H_    0.493595 0.284936 0.621773 0.143048
H17   H     H_    0.522174 0.338036 0.902373 0.136799
H18   H     H_    0.520591 0.323778 0.696301 0.134093
H19   H     H_    0.096084 0.913411 0.917278 0.125599
H20   H     H_    0.051015 0.600878 0.889614 0.127994
H21   H     H_    0.088242 0.660939 0.636051 0.132814
H22   H     H_    0.768367 0.267929 0.294427 0.118626
H23   H     H_    0.789359 0.269908 0.427034 0.125766
H24   H     H_    0.243956 0.758190 0.703261 0.135462
H25   H     H_    0.236078 0.745019 0.775759 0.132608
H26   H     H_    0.133461 0.937341 0.846758 0.143926
H27   H     H_    0.197403 0.988248 0.672297 0.124297
H28   H     H_    0.269094 0.022956 0.606404 0.137838
H29   H     H_    0.087339 0.625180 0.818974 0.112982
H30   H     H_    0.554414 0.577710 0.897096 0.119906
H31   H     H_    0.784313 0.296045 0.223665 0.119130
H32   H     H_    0.758697 0.911607 0.916645 0.131268
H33   H     H_    0.783522 0.942926 0.678178 0.097244
H34   H     H_    0.198168 0.743388 0.100445 0.109224
H35   H     H_    0.607170 0.915789 0.723228 0.105958
H36   H     H_    0.587443 0.893383 0.794500 0.118215
H37   H     H_    0.507281 0.583393 0.826725 0.091297
H38   H     H_    0.614490 0.614248 0.768432 0.112357
H39   H     H_    0.489848 0.661556 0.638088 0.141118
H40   H     H_    0.486963 0.715692 0.572483 0.149440
H41   H     H_    0.715149 0.916665 0.846705 0.111377
H42   H     H_    0.590252 0.414741 0.189288 0.142110
H43   H     H_    0.705225 0.524408 0.324690 0.135670
H44   H     H_    0.559787 0.370116 0.353413 0.108915
H45   H     H_    0.249195 0.780556 0.173884 0.090968
H46   H     H_    0.506447 0.418297 0.132880 0.328279
H47   H     H_    0.009675 0.597167 0.133134 0.122736
H48   H     H_    0.064636 0.546336 0.093739 0.150041
H49   H     H_    0.037973 0.492145 0.139880 0.101600
H50   H     H_    0.406225 0.709235 0.135209 0.105983
H51   H     H_    0.446988 0.799790 0.183314 0.115412
H52   H     H_    0.352077 0.664604 0.181597 0.137019
H53   H     H_    0.724542 0.092454 0.673285 0.147044
H54   H     H_    0.691975 0.124360 0.724330 0.111757
H55   H     H_    0.821166 0.136858 0.716128 0.132764
H56   H     H_    0.195274 0.723712 0.300703 0.107432
H57   H     H_    0.536782 0.423648 0.804658 0.109642
H58   H     H_    0.458596 0.401957 0.849176 0.105910
H59   H     H_    0.394684 0.340003 0.799031 0.142751
H60   H     H_    0.091925 0.011359 0.731424 0.098620
H61   H     H_    0.953601 0.953405 0.744958 0.175534
H62   H     H_    0.986651 0.991332 0.696036 0.103142
H63   H     H_    0.816638 0.748928 0.802288 0.147345
H64   H     H_    0.887121 0.676601 0.795036 0.118741
H65   H     H_    0.838613 0.709344 0.751263 0.175951
H66   H     H_    0.069992 0.702192 0.518521 0.113524
H67   H     H_    0.236155 0.727857 0.372831 0.124919
H68   H     H_    0.988000 0.612955 0.552637 0.113592
H69   H     H_    0.053047 0.573227 0.513733 0.142398
H70   H     H_    0.658100 0.641893 0.665218 0.338473
H71   H     H_    0.916578 0.972933 0.616839 0.124229
H72   H     H_    0.923923 0.079482 0.654392 0.106667
H73   H     H_    0.964893 0.100729 0.604299 0.147430
H74   H     H_    0.758094 0.596122 0.227021 0.333673
H75   H     H_    0.248407 0.026906 0.401757 0.125892
H76   H     H_    0.087474 0.962141 0.192216 0.109454
O1    O     O_R   0.318160 0.824460 0.443680 -0.522070
O2    O     O_R   0.668160 0.499860 0.053480 -0.448414
O3    O     O_R   0.689170 0.693840 0.050110 -0.496365
O4    O     O_R   0.525040 0.857250 0.449830 -0.504424
O5    O     O_R   0.803860 0.812940 0.962540 -0.513621
O6    O     O_R   0.982950 0.787950 0.964120 -0.498184
O7    O     O_R   0.007050 0.649970 0.960540 -0.520774
O8    O     O_R   0.807910 0.482370 0.965590 -0.499221
O9    O     O_R   0.643310 0.460980 0.963840 -0.521245
O10   O     O_R   0.666140 0.657800 0.967020 -0.504001
O11   O     O_3   0.830520 0.660760 0.007110 -0.253173
O12   O     O_R   0.645130 0.163230 0.552140 -0.499719
O13   O     O_R   0.684760 0.998800 0.456360 -0.520154
O14   O     O_R   0.647540 0.166310 0.470260 -0.503667
O15   O     O_R   0.500960 0.181750 0.467450 -0.518346
O16   O     O_R   0.331100 0.981120 0.457080 -0.502274
O17   O     O_R   0.315560 0.821140 0.532010 -0.457259
O18   O     O_R   0.522630 0.854180 0.531710 -0.515466
O19   O     O_R   0.682160 0.995480 0.544690 -0.452361
O20   O     O_3   0.559210 0.429244 0.112264 -0.666882
O21   O     O_3   0.905875 0.448930 0.099746 -0.546124
O22   O     O_3   0.507388 0.695801 0.176780 -0.553351
O23   O     O_R   0.498360 0.178430 0.555780 -0.515662
O24   O     O_3   0.797369 0.251216 0.697449 -0.561464
O25   O     O_3   0.479144 0.277414 0.822742 -0.563834
O26   O     O_3   0.986344 0.856228 0.703373 -0.560181
O27   O     O_3   0.970199 0.832868 0.786760 -0.587842
O28   O     O_3   0.153235 0.674774 0.562931 -0.548970
O29   O     O_3   0.638212 0.618556 0.691887 -0.718337
O30   O     O_3   0.802456 0.021263 0.607917 -0.556196
O31   O     O_3   0.726838 0.578147 0.253187 -0.701502
O32   O     O_R   0.328690 0.978040 0.538950 -0.515282
O33   O     O_3   0.499990 0.999990 0.500010 -0.244699
O34   O     O_R   0.828710 0.851830 0.052170 -0.516845
O35   O     O_R   0.005980 0.823990 0.047210 -0.502270
O36   O     O_R   0.031900 0.688850 0.050170 -0.514864
O37   O     O_R   0.830940 0.518420 0.048680 -0.459806

loop_
_geom_bond_atom_site_label_1
_geom_bond_atom_site_label_2
_ccdc_geom_bond_type
C66   C68   S    
C22   O21   S    
C26   H43   S    
C93   C94   A    
C39   H3    S    
C112  H37   S    
C1    O13   A    
C97   H24   S    
C21   H12   S    
C57   H10   S    
C47   H2    S    
C111  C112  A    
C9    C51   A    
Cr5   O7    S    
C75   C76   A    
C11   C62   A    
C111  H30   S    
Cr4   O34   S    
C106  O7    A    
C81   C82   A    
C114  H41   S    
C7    C8    A    
C55   O19   A    
C54   C60   A    
C45   C46   A    
C84   O2    A    
C105  C107  A    
C26   C27   A    
C13   C110  S    
C30   C35   A    
C32   C36   A    
Cr6   O3    S    
C28   C29   S    
C19   O28   S    
C77   H15   S    
C14   H51   S    
C5    C6    A    
C19   H66   S    
C78   C80   A    
C98   C99   A    
C55   C62   S    
C18   H65   S    
Cr3   O23   S    
C33   C36   A    
C98   C108  S    
C56   C57   A    
C24   H22   S    
C67   O12   A    
Cr2   O14   S    
C34   C35   A    
C41   C42   A    
C104  H28   S    
C115  H42   S    
C67   O23   A    
Cr6   O2    S    
C110  C111  A    
C92   C93   A    
C90   H26   S    
Cr3   O32   S    
C17   H60   S    
C27   O31   S    
H70   O29   S    
C31   O14   A    
C4    H35   S    
C68   C69   T    
Cr5   O37   S    
C3    H36   S    
C50   C52   T    
C23   C24   A    
C63   C70   A    
C40   H33   S    
C102  C108  A    
C2    O8    A    
C84   C91   S    
C64   C70   A    
C9    C10   A    
C20   H73   S    
C73   O35   A    
Cr1   O1    S    
C16   H57   S    
Cr3   O33   S    
C47   C53   A    
C88   C89   A    
C72   H16   S    
C38   H75   S    
C29   C115  A    
C59   C60   A    
C10   H40   S    
C21   C22   A    
C96   C97   A    
C32   H1    S    
C14   O22   S    
C10   C62   A    
C42   C44   A    
Cr5   O8    S    
C1    O4    A    
C61   C66   A    
C20   H72   S    
C112  C113  A    
C25   C26   A    
C97   C98   A    
C12   H49   S    
C54   C56   A    
C38   C39   A    
C88   C94   A    
C13   O10   A    
C74   C75   A    
C79   C109  S    
C94   H20   S    
C47   C48   A    
Cr6   O10   S    
C84   O37   A    
C76   C77   A    
C30   H44   S    
C72   C74   A    
C3    C8    A    
C5    C51   S    
C55   O18   A    
C16   H59   S    
C11   O30   S    
C12   H48   S    
C7    H38   S    
C103  O20   S    
Cr1   O17   S    
C59   H6    S    
C85   C86   T    
C74   H18   S    
Cr1   O33   S    
C80   H11   S    
C13   O5    A    
C48   H76   S    
Cr2   O13   S    
C37   C43   S    
Cr1   O18   S    
C103  C115  A    
C1    C54   S    
C79   O32   A    
C37   C38   A    
C18   O27   S    
Cr4   O35   S    
C88   C106  S    
C17   H61   S    
C75   C86   S    
C90   C92   A    
C99   C100  A    
C64   H9    S    
C45   C49   A    
Cr2   O33   S    
C22   C91   A    
C6    O29   S    
Cr2   O19   S    
C61   C63   A    
C33   C34   A    
C3    C4    A    
Cr6   O11   S    
C2    C87   S    
C61   H5    S    
C105  O28   S    
C24   C25   A    
C9    H39   S    
C45   H45   S    
C100  O27   S    
C73   O36   A    
C81   C87   A    
C33   H23   S    
C8    C113  S    
C25   C35   S    
C31   O15   A    
C92   C101  S    
C14   H50   S    
C48   C49   A    
C83   C85   S    
C82   C83   A    
Cr5   O11   S    
C15   H55   S    
Cr4   O6    S    
C49   C50   S    
C93   H29   S    
C23   C28   A    
C107  C108  A    
C107  H21   S    
Cr1   O4    S    
C44   H67   S    
C110  C116  A    
C20   H71   S    
C71   C77   A    
C113  C114  A    
Cr4   O11   S    
C81   H17   S    
C96   H25   S    
C105  C109  A    
C99   O26   S    
C102  C104  A    
C41   C52   S    
C116  H32   S    
Cr6   O9    S    
C53   C73   S    
C12   O21   S    
C91   C103  A    
C4    C5    A    
C60   H7    S    
C78   C83   A    
C65   O22   S    
C114  C116  A    
C58   C69   S    
Cr3   O15   S    
C12   H47   S    
C82   O25   S    
C80   C87   A    
C40   C51   A    
C46   H34   S    
C18   H63   S    
C95   O34   A    
C20   O30   S    
C15   H53   S    
Cr2   O12   S    
C76   O24   S    
C64   C65   A    
C15   O24   S    
C23   H31   S    
C70   C95   S    
C58   C59   A    
C71   C72   A    
C14   H52   S    
C17   O26   S    
C95   O3    A    
C30   C32   A    
C17   H62   S    
C57   C58   A    
C104  C109  A    
C21   C29   A    
C34   H13   S    
C42   H56   S    
C89   H19   S    
C46   C53   A    
C79   O17   A    
C100  C101  A    
C18   H64   S    
C6    C7    A    
C67   C71   S    
C65   C66   A    
C11   C40   A    
C63   H4    S    
C19   H68   S    
C106  O6    A    
C37   C44   A    
H74   O31   S    
C39   C41   A    
Cr3   O16   S    
Cr5   O36   S    
C27   C28   A    
Cr4   O5    S    
C31   C36   S    
C102  H27   S    
C16   O25   S    
C43   O1    A    
C2    O9    A    
H46   O20   S    
C89   C90   A    
C96   C101  A    
C43   O16   A    
C78   H14   S    
C56   H8    S    
C16   H58   S    
C19   H69   S    
C15   H54   S    
