data_mof_unit_65526.cif
_audit_creation_date              2012-12-10T21:01:52-0500
_audit_creation_method            fapswitch 2.2
_symmetry_space_group_name_H-M    P1
_symmetry_Int_Tables_number       1
_space_group_crystal_system       triclinic
_cell_length_a                    22.213534
_cell_length_b                    22.224548
_cell_length_c                    22.209601
_cell_angle_alpha                 108.475414
_cell_angle_beta                  109.999986
_cell_angle_gamma                 110.012378
_cell_volume                      8431.2975274

loop_
_atom_site_label
_atom_site_type_symbol
_atom_type_description
_atom_site_fract_x
_atom_site_fract_y
_atom_site_fract_z
_atom_type_partial_charge
C1    C     C_R   0.699627 0.849952 0.349955 0.834555
C2    C     C_R   0.300373 0.150048 0.650045 0.834551
C3    C     C_3   0.550248 0.502920 0.478211 -0.297951
C4    C     C_3   0.449752 0.497080 0.521789 -0.297945
C5    C     C_3   0.499749 0.536012 0.462792 -0.035958
C6    C     C_3   0.500250 0.463988 0.537208 -0.035957
C7    C     C_1   0.499793 0.576813 0.422519 0.076333
C8    C     C_1   0.500207 0.423187 0.577480 0.076326
C9    C     C_3   0.975241 0.451869 0.022137 -0.148107
C10   C     C_3   0.024759 0.548128 0.977861 -0.148129
C11   C     C_3   0.024610 0.452558 0.986866 -0.121278
C12   C     C_3   0.975390 0.547439 0.013133 -0.121312
C13   C     C_1   0.220934 0.610315 0.110324 -0.101238
C14   C     C_1   0.779066 0.389684 0.889676 -0.101288
C15   C     C_3   0.024870 0.536367 0.072346 -0.109627
C16   C     C_3   0.975129 0.463630 0.927652 -0.109659
C17   C     C_3   0.072949 0.536408 0.036432 0.139715
C18   C     C_3   0.927051 0.463588 0.963567 0.139711
C19   C     C_1   0.154126 0.576924 0.076956 0.025869
C20   C     C_1   0.845874 0.423074 0.923043 0.025814
C21   C     C_R   0.256863 0.468959 0.994187 -0.345160
C22   C     C_R   0.743137 0.531040 0.005813 -0.345162
C23   C     C_R   0.300392 0.650122 0.150126 0.824940
C24   C     C_R   0.699608 0.349877 0.849873 0.824940
C25   C     C_R   0.324407 0.471424 0.008642 0.346513
C26   C     C_R   0.675593 0.528577 0.991358 0.346512
C27   C     C_R   0.359310 0.492135 0.970317 -0.027807
C28   C     C_R   0.640690 0.507865 0.029683 -0.027806
C29   C     C_R   0.324985 0.508848 0.917109 -0.343079
C30   C     C_R   0.675014 0.491151 0.082891 -0.343078
C31   C     C_R   0.257502 0.506274 0.903011 0.376063
C32   C     C_R   0.742497 0.493725 0.096989 0.376060
C33   C     C_R   0.223534 0.486465 0.941717 0.606710
C34   C     C_R   0.776466 0.513534 0.058283 0.606707
C35   C     C_R   0.434904 0.446927 0.932671 -0.218025
C36   C     C_R   0.565096 0.553073 0.067329 -0.218026
C37   C     C_R   0.501706 0.447891 0.946405 -0.032702
C38   C     C_R   0.498294 0.552109 0.053594 -0.032700
C39   C     C_R   0.567806 0.501998 0.014016 0.112125
C40   C     C_R   0.432193 0.498001 0.985984 0.112125
C41   C     C_3   0.024629 0.989741 0.558463 -0.305592
C42   C     C_3   0.975371 0.010259 0.441537 -0.305592
C43   C     C_3   0.975315 0.024105 0.543303 0.765683
C44   C     C_3   0.024685 0.975895 0.456697 0.765674
C45   C     C_R   0.500506 0.890235 0.390692 0.892396
C46   C     C_R   0.499495 0.109764 0.609308 0.892360
C47   C     C_1   0.778974 0.889627 0.389482 -0.089588
C48   C     C_1   0.221026 0.110373 0.610518 -0.089590
C49   C     C_3   0.975189 0.927711 0.476644 -0.297814
C50   C     C_3   0.024810 0.072289 0.523356 -0.297806
C51   C     C_3   0.926758 0.963113 0.462837 -0.039226
C52   C     C_3   0.073242 0.036887 0.537163 -0.039226
C53   C     C_1   0.845711 0.922863 0.422637 0.076409
C54   C     C_1   0.154289 0.077137 0.577363 0.076409
C55   C     C_3   0.469048 0.040931 0.016202 -0.245742
C56   C     C_3   0.530952 0.959069 0.983798 -0.245738
C57   C     C_3   0.430742 0.956409 0.980940 0.472717
C58   C     C_3   0.569258 0.043591 0.019059 0.472718
C59   C     C_1   0.500087 0.889521 0.110531 -0.091873
C60   C     C_1   0.499913 0.110478 0.889469 -0.091867
C61   C     C_3   0.539501 0.047980 0.072843 -0.239156
C62   C     C_3   0.460499 0.952020 0.927157 -0.239151
C63   C     C_3   0.500294 0.963519 0.036706 0.023008
C64   C     C_3   0.499706 0.036481 0.963294 0.023008
C65   C     C_1   0.500193 0.922918 0.077199 0.056246
C66   C     C_1   0.499807 0.077082 0.922801 0.056249
C67   C     C_R   0.499529 0.609290 0.109806 0.851427
C68   C     C_R   0.500470 0.390710 0.890194 0.851429
C69   C     C_R   0.284642 0.829525 0.232913 -0.198333
C70   C     C_R   0.715328 0.170542 0.767114 -0.198353
C71   C     C_R   0.349685 0.885673 0.299039 -0.141315
C72   C     C_R   0.650283 0.114392 0.700991 -0.141301
C73   C     C_R   0.361901 0.885210 0.365213 0.122850
C74   C     C_R   0.638107 0.114792 0.634797 0.122883
C75   C     C_R   0.308346 0.827865 0.364376 -0.084621
C76   C     C_R   0.691710 0.172078 0.635613 -0.084668
C77   C     C_R   0.243320 0.771657 0.298026 0.445820
C78   C     C_R   0.756742 0.228285 0.701959 0.445812
C79   C     C_R   0.231477 0.772622 0.232378 -0.164138
C80   C     C_R   0.768541 0.227383 0.767626 -0.164082
C81   C     C_R   0.432368 0.996956 0.488994 0.354660
C82   C     C_R   0.567636 0.003041 0.511013 0.354610
C83   C     C_R   0.499805 0.053494 0.553743 -0.200093
C84   C     C_R   0.500199 0.946505 0.446263 -0.200079
C85   C     C_R   0.567626 0.056804 0.565079 -0.122026
C86   C     C_R   0.432381 0.943196 0.434929 -0.122074
C87   C     C_R   0.500035 0.849867 0.150246 0.813851
C88   C     C_R   0.499965 0.150133 0.849754 0.813843
C89   C     C_R   0.500004 0.650234 0.349840 0.848971
C90   C     C_R   0.499996 0.349766 0.650160 0.848967
C91   C     C_3   0.482450 0.432495 0.457271 0.756120
C92   C     C_3   0.517550 0.567505 0.542729 0.756127
C93   C     C_3   0.431664 0.465116 0.440517 -0.297915
C94   C     C_3   0.568335 0.534884 0.559483 -0.297923
C95   C     C_1   0.499867 0.610375 0.389352 -0.093959
C96   C     C_1   0.500132 0.389624 0.610648 -0.093970
H1    H     H_    0.375909 0.436224 0.390994 0.201496
H2    H     H_    0.624091 0.563776 0.609006 0.201492
H3    H     H_    0.351256 0.524837 0.887360 0.217862
H4    H     H_    0.648743 0.475162 0.112640 0.217862
H5    H     H_    0.384110 0.404771 0.881017 0.170854
H6    H     H_    0.615890 0.595229 0.118983 0.170852
H7    H     H_    0.045339 0.982378 0.607177 0.200276
H8    H     H_    0.954661 0.017622 0.392823 0.200275
H9    H     H_    0.045672 0.131910 0.543596 0.203422
H10   H     H_    0.954328 0.868090 0.456404 0.203418
H11   H     H_    0.443037 0.074272 0.028698 0.195876
H12   H     H_    0.556963 0.925728 0.971301 0.195878
H13   H     H_    0.427517 0.912916 0.867098 0.197962
H14   H     H_    0.572483 0.087084 0.132902 0.197960
H15   H     H_    0.181291 0.729223 0.180964 0.160260
H16   H     H_    0.818730 0.270782 0.819037 0.160261
H17   H     H_    0.275561 0.829975 0.182011 0.173632
H18   H     H_    0.724375 0.170142 0.818029 0.173586
H19   H     H_    0.390743 0.929236 0.298735 0.149012
H20   H     H_    0.609190 0.070877 0.701312 0.148931
H21   H     H_    0.317602 0.826547 0.414986 0.179206
H22   H     H_    0.682490 0.173349 0.584988 0.179256
H23   H     H_    0.409261 0.495290 0.540722 0.201862
H24   H     H_    0.590739 0.504710 0.459278 0.201860
H25   H     H_    0.045877 0.414100 0.976542 0.185343
H26   H     H_    0.954123 0.585897 0.023456 0.185336
H27   H     H_    0.953860 0.411803 0.039814 0.181510
H28   H     H_    0.046140 0.588194 0.960184 0.181505
H29   H     H_    0.953712 0.433218 0.867705 0.211655
H30   H     H_    0.046287 0.566779 0.132294 0.211679
H31   H     H_    0.230064 0.453389 0.023678 0.205428
H32   H     H_    0.769936 0.546611 0.976323 0.205425
O1    O     O_3   0.500050 0.750060 0.250070 -0.509040
O2    O     O_3   0.499950 0.249940 0.749930 -0.509037
O3    O     O_R   0.456830 0.822700 0.365800 -0.642994
O4    O     O_R   0.543170 0.177300 0.634200 -0.642967
O5    O     O_R   0.543260 0.634320 0.177440 -0.628580
O6    O     O_R   0.456740 0.365680 0.822560 -0.628579
O7    O     O_R   0.664430 0.884240 0.341140 -0.605375
O8    O     O_R   0.335570 0.115760 0.658860 -0.605372
O9    O     O_R   0.335680 0.659000 0.115900 -0.628252
O10   O     O_R   0.664320 0.341000 0.884100 -0.628245
O11   O     O_R   0.664480 0.780430 0.323540 -0.639899
O12   O     O_R   0.335520 0.219570 0.676460 -0.639897
O13   O     O_R   0.335610 0.676590 0.219700 -0.627710
O14   O     O_R   0.664390 0.323410 0.780300 -0.627734
O15   O     O_R   0.543050 0.908950 0.365840 -0.600160
O16   O     O_R   0.456950 0.091050 0.634160 -0.600159
O17   O     O_R   0.457060 0.634290 0.091200 -0.641876
O18   O     O_R   0.542940 0.365710 0.908800 -0.641874
O19   O     O_R   0.543140 0.884190 0.219790 -0.636826
O20   O     O_R   0.456860 0.115810 0.780210 -0.636824
O21   O     O_R   0.543170 0.659080 0.323490 -0.621187
O22   O     O_R   0.456830 0.340920 0.676510 -0.621183
O23   O     O_R   0.456990 0.780350 0.115960 -0.621359
O24   O     O_R   0.543010 0.219650 0.884040 -0.621361
O25   O     O_R   0.456900 0.676640 0.341050 -0.621674
O26   O     O_R   0.543100 0.323360 0.658950 -0.621689
Zn1   Zn    Zn3+2 0.438420 0.731820 0.293400 1.023823
Zn2   Zn    Zn3+2 0.561580 0.268180 0.706600 1.023796
Zn3   Zn    Zn3+2 0.561600 0.855040 0.293450 1.037060
Zn4   Zn    Zn3+2 0.438400 0.144960 0.706550 1.037056
Zn5   Zn    Zn3+2 0.438510 0.706680 0.145100 1.010972
Zn6   Zn    Zn3+2 0.561490 0.293320 0.854900 1.010967
Zn7   Zn    Zn3+2 0.561670 0.706730 0.268320 1.027880
Zn8   Zn    Zn3+2 0.438330 0.293270 0.731680 1.027880
Cl1   Cl    Cl    0.216085 0.528468 0.837075 -0.452008
Cl2   Cl    Cl    0.783914 0.471530 0.162923 -0.452020
F1    F     F_    0.948441 0.048584 0.587739 -0.609404
F2    F     F_    0.051559 0.951417 0.412261 -0.609422
Cl3   Cl    Cl    0.337963 0.897716 0.955692 -0.534454
Cl4   Cl    Cl    0.662037 0.102284 0.044308 -0.534443
F3    F     F_    0.464195 0.361696 0.413381 -0.622020
F4    F     F_    0.535805 0.638304 0.586619 -0.622013
Cl5   Cl    Cl    0.176980 0.699557 0.296960 -0.555799
Cl6   Cl    Cl    0.823147 0.300302 0.702996 -0.555678
Cl7   Cl    Cl    0.348149 0.996225 0.472893 -0.543836
Cl8   Cl    Cl    0.651849 0.003757 0.527116 -0.543875
F5    F     F_    0.158115 0.483872 0.928423 -0.629145
F6    F     F_    0.841884 0.516127 0.071577 -0.629152
Cl9   Cl    Cl    0.363129 0.447180 0.074065 -0.594275
Cl10  Cl    Cl    0.636871 0.552820 0.925936 -0.594282

loop_
_geom_bond_atom_site_label_1
_geom_bond_atom_site_label_2
_ccdc_geom_bond_type
C44   C49   S    
C38   C40   A    
C63   C65   S    
O7    Zn3   S    
C3    C91   S    
C27   C29   A    
C88   O24   A    
C32   Cl2   S    
C68   O6    A    
C75   H21   S    
C41   H7    S    
C35   H5    S    
C90   O22   A    
O24   Zn6   S    
C60   C88   S    
C57   C62   S    
C70   H18   S    
C48   C54   T    
C69   H17   S    
C74   C76   A    
C36   H6    S    
C67   O5    A    
O2    Zn2   S    
C76   C78   A    
O2    Zn8   S    
C10   H28   S    
C46   O4    A    
O17   Zn5   S    
C29   H3    S    
C25   Cl9   S    
C46   C83   S    
O18   Zn6   S    
C94   H2    S    
C10   C17   S    
O12   Zn8   S    
C6    C91   S    
C37   C68   S    
C30   H4    S    
C71   C73   A    
O5    Zn7   S    
C13   C23   S    
C18   C20   S    
O2    Zn6   S    
C14   C24   S    
C69   C71   A    
C56   H12   S    
C62   C64   S    
C9    H27   S    
C22   H32   S    
C82   Cl8   S    
C24   O14   A    
C6    C94   S    
C15   H30   S    
C8    C96   T    
C67   O17   A    
C50   H9    S    
C50   C52   S    
C31   C33   A    
C4    H23   S    
C57   C63   S    
O25   Zn1   S    
C58   Cl4   S    
C16   H29   S    
C41   C43   S    
C41   C52   S    
O26   Zn2   S    
C81   C86   A    
C1    O11   A    
C42   C51   S    
C47   C53   T    
O8    Zn4   S    
C44   C52   S    
C58   C61   S    
C43   F1    S    
C60   C66   T    
C87   O23   A    
C55   C64   S    
C73   C75   A    
C11   H25   S    
C42   C44   S    
O22   Zn8   S    
C61   H14   S    
C10   C12   S    
C41   C49   S    
C81   C83   A    
C52   C54   S    
O15   Zn3   S    
C59   C87   S    
C26   Cl10  S    
C58   C64   S    
C22   C34   A    
C31   Cl1   S    
C56   C63   S    
O9    Zn5   S    
C70   C80   A    
C14   C20   T    
O11   Zn7   S    
C12   H26   S    
C4    C6    S    
C92   F4    S    
O1    Zn1   S    
C91   F3    S    
C1    C47   S    
C13   C19   T    
C6    C8    S    
C28   C39   S    
C49   C51   S    
C2    O8    A    
O6    Zn8   S    
C55   H11   S    
C51   C53   S    
C32   C34   A    
C89   C95   S    
C91   C93   S    
C9    C11   S    
C11   C16   S    
C89   O25   A    
C12   C15   S    
C27   C40   S    
C77   Cl5   S    
C46   O16   A    
C80   H16   S    
C61   C63   S    
C88   O20   A    
C77   C79   A    
C71   H19   S    
C16   C18   S    
C44   F2    S    
C75   C77   A    
C87   O19   A    
C42   C50   S    
C72   C74   A    
C83   C85   A    
C81   Cl7   S    
C45   O3    A    
C82   C84   A    
C55   C57   S    
C56   C62   S    
C69   C79   A    
C45   C84   S    
O21   Zn7   S    
C55   C61   S    
O16   Zn4   S    
O19   Zn3   S    
C93   H1    S    
O1    Zn5   S    
C68   O18   A    
C5    C7    S    
C15   C17   S    
C21   C25   A    
C11   C17   S    
C35   C37   A    
C23   O9    A    
C36   C39   A    
O13   Zn1   S    
C84   C86   A    
C3    C5    S    
C42   H8    S    
C5    C93   S    
C43   C50   S    
C90   C96   S    
C49   H10   S    
C57   Cl3   S    
C25   C27   A    
C82   C85   A    
C7    C95   T    
C72   H20   S    
C26   C28   A    
O3    Zn1   S    
C79   H15   S    
O1    Zn3   S    
O2    Zn4   S    
C24   O10   A    
C36   C38   A    
C35   C40   A    
C9    C15   S    
C2    O12   A    
C28   C30   A    
C37   C39   A    
C10   C16   S    
C59   C65   T    
C90   O26   A    
C30   C32   A    
C43   C51   S    
C92   C94   S    
C62   H13   S    
O1    Zn7   S    
C89   O21   A    
O4    Zn2   S    
C56   C58   S    
C21   H31   S    
C3    C94   S    
C78   C80   A    
C74   C85   S    
C33   F5    S    
C76   H22   S    
C73   C86   S    
C5    C92   S    
C34   F6    S    
C3    H24   S    
O23   Zn5   S    
C4    C93   S    
C17   C19   S    
O10   Zn6   S    
C9    C18   S    
C21   C33   A    
C38   C67   S    
O20   Zn4   S    
C29   C31   A    
C2    C48   S    
C22   C26   A    
C12   C18   S    
C45   O15   A    
C23   O13   A    
C70   C72   A    
O14   Zn2   S    
C78   Cl6   S    
C1    O7    A    
C64   C66   S    
C4    C92   S    
