data_mof_unit_35421.cif
_audit_creation_date              2012-12-11T14:36:11-0500
_audit_creation_method            fapswitch 2.2
_symmetry_space_group_name_H-M    P1
_symmetry_Int_Tables_number       1
_space_group_crystal_system       triclinic
_cell_length_a                    13.478815
_cell_length_b                    13.488069
_cell_length_c                    27.507594
_cell_angle_alpha                 90.82537
_cell_angle_beta                  90.149942
_cell_angle_gamma                 60.073958
_cell_volume                      4333.67964368

loop_
_atom_site_label
_atom_site_type_symbol
_atom_type_description
_atom_site_fract_x
_atom_site_fract_y
_atom_site_fract_z
_atom_type_partial_charge
C1    C     C_R   0.620203 0.101423 0.570230 0.545778
C2    C     C_1   0.647939 0.707302 0.658713 -0.013523
C3    C     C_3   0.086821 0.140475 0.737995 -0.095479
C4    C     C_R   0.599562 0.779763 0.568810 0.544560
C5    C     C_3   0.176016 0.061665 0.775809 -0.102413
C6    C     C_1   0.097328 0.200808 0.901885 -0.016295
C7    C     C_1   0.230545 0.137813 0.617811 -0.008789
C8    C     C_3   0.059113 0.246347 0.770273 -0.095084
C9    C     C_3   0.148716 0.167408 0.807252 0.048495
C10   C     C_3   0.153277 0.259398 0.743995 -0.093382
C11   C     C_3   0.180598 0.153801 0.712462 0.055892
C12   C     C_1   0.630420 0.733540 0.616596 -0.005470
C13   C     C_3   0.242442 0.180693 0.781660 -0.107760
C14   C     C_3   0.270281 0.074758 0.749400 -0.106677
C15   C     C_1   0.125548 0.181141 0.859708 -0.059015
C16   C     C_R   0.277982 0.121801 0.569788 0.546302
C17   C     C_1   0.203066 0.146423 0.660016 -0.047477
C18   C     C_3   0.629082 0.277203 0.740107 -0.099211
C19   C     C_3   0.554935 0.258881 0.778015 -0.100731
C20   C     C_1   0.691397 0.207718 0.902943 -0.015058
C21   C     C_1   0.635308 0.133654 0.618394 -0.012416
C22   C     C_3   0.737106 0.204566 0.771095 -0.100738
C23   C     C_3   0.710998 0.559902 0.767882 -0.091359
C24   C     C_3   0.662802 0.185973 0.808170 0.051043
C25   C     C_3   0.758477 0.094779 0.743465 -0.097897
C26   C     C_3   0.650700 0.167569 0.713246 0.052509
C27   C     C_3   0.684414 0.076403 0.781257 -0.100617
C28   C     C_R   0.622013 0.098966 0.431014 0.546216
C29   C     C_3   0.576363 0.148977 0.750296 -0.103049
C30   C     C_1   0.674497 0.196654 0.860690 -0.057881
C31   C     C_1   0.643635 0.152639 0.660711 -0.054544
C32   C     C_R   0.733571 0.706670 0.358660 -0.136186
C33   C     C_R   0.745199 0.691163 0.308197 0.016258
C34   C     C_3   0.678311 0.656664 0.805997 0.013666
C35   C     C_R   0.762316 0.667558 0.206511 0.015492
C36   C     C_R   0.853580 0.660832 0.233753 -0.132305
C37   C     C_R   0.844618 0.673723 0.284329 -0.133610
C38   C     C_R   0.773789 0.643730 0.156625 -0.135330
C39   C     C_R   0.683975 0.642805 0.130944 -0.004366
C40   C     C_R   0.601416 0.776582 0.430052 0.546973
C41   C     C_R   0.547390 0.718991 0.354353 -0.128165
C42   C     C_R   0.554437 0.711198 0.304224 0.007669
C43   C     C_R   0.653327 0.697733 0.280865 0.063621
C44   C     C_R   0.461591 0.721990 0.277144 -0.106643
C45   C     C_3   0.598136 0.637904 0.740421 -0.132628
C46   C     C_R   0.466497 0.719406 0.226735 -0.118353
C47   C     C_R   0.566446 0.700447 0.203159 0.005269
C48   C     C_R   0.660297 0.689978 0.230138 0.064715
C49   C     C_R   0.577401 0.681991 0.153357 -0.134815
C50   C     C_R   0.632639 0.724944 0.381502 -0.002004
C51   C     C_R   0.211577 0.057510 0.358434 -0.134857
C52   C     C_R   0.277329 0.120868 0.431208 0.548371
C53   C     C_R   0.183610 0.072094 0.309044 0.014831
C54   C     C_R   0.144094 0.097311 0.208386 0.014619
C55   C     C_R   0.162180 0.997364 0.231286 -0.127549
C56   C     C_3   0.660784 0.686718 0.711076 0.088874
C57   C     C_R   0.182539 0.984566 0.281285 -0.127353
C58   C     C_R   0.120839 0.112695 0.158618 -0.133452
C59   C     C_R   0.100250 0.214651 0.136693 -0.003484
C60   C     C_R   0.182341 0.250526 0.363337 -0.127569
C61   C     C_R   0.159383 0.264443 0.314014 0.011117
C62   C     C_R   0.161937 0.174268 0.286456 0.063032
C63   C     C_R   0.140463 0.364769 0.291442 -0.123522
C64   C     C_3   0.770944 0.611074 0.738440 0.274282
C65   C     C_R   0.126471 0.374947 0.241375 -0.118531
C66   C     C_R   0.128529 0.286054 0.213654 0.011304
C67   C     C_3   0.565569 0.733876 0.779331 -0.120404
C68   C     C_R   0.144999 0.185710 0.236134 0.062517
C69   C     C_R   0.109766 0.298185 0.164003 -0.126225
C70   C     C_R   0.216292 0.144817 0.384983 -0.004120
C71   C     C_R   0.565842 0.236792 0.362971 -0.134367
C72   C     C_R   0.571198 0.255408 0.313351 -0.035886
C73   C     C_R   0.581882 0.290089 0.212937 0.009387
C74   C     C_R   0.502696 0.381277 0.243658 0.243130
C75   C     C_R   0.496326 0.361462 0.293036 -0.069135
C76   C     C_3   0.741289 0.705745 0.776962 -0.095954
C77   C     C_R   0.593788 0.303827 0.162995 -0.132002
C78   C     C_3   0.628213 0.783025 0.749356 -0.136446
C79   C     C_R   0.677757 0.212836 0.135061 -0.009707
C80   C     C_R   0.725069 0.042794 0.353143 -0.123979
C81   C     C_R   0.728161 0.058465 0.303656 0.020821
C82   C     C_R   0.651216 0.165322 0.283459 0.048113
C83   C     C_R   0.804655 0.967194 0.273959 -0.122863
C84   C     C_R   0.805418 0.981419 0.224181 -0.121912
C85   C     C_R   0.731943 0.088012 0.203871 0.017935
C86   C     C_R   0.654350 0.181282 0.233362 0.027737
C87   C     C_R   0.740257 0.103838 0.154842 -0.126284
C88   C     C_1   0.696683 0.608780 0.900383 -0.013826
C89   C     C_1   0.687413 0.635335 0.858299 -0.057232
C90   C     C_R   0.641551 0.129821 0.382728 0.003682
C91   C     C_R   0.049284 0.236123 0.949755 0.545653
C92   C     C_R   0.711499 0.563071 0.948243 0.544103
C93   C     C_R   0.722174 0.225408 0.950899 0.544584
C94   C     C_R   0.047217 0.245927 0.088759 0.547652
C95   C     C_R   0.707373 0.576495 0.085862 0.546432
C96   C     C_R   0.718033 0.233983 0.089170 0.547210
Cr1   Cr    Cr6+3 0.417550 0.169090 0.500530 1.026071
Cr2   Cr    Cr6+3 0.669180 0.913420 0.499920 1.028322
Cr3   Cr    Cr6+3 0.413260 0.917540 0.499520 1.022171
Cr4   Cr    Cr6+3 0.909170 0.177380 0.020380 1.022027
Cr5   Cr    Cr6+3 0.912710 0.429210 0.018220 1.021473
Cr6   Cr    Cr6+3 0.657170 0.432570 0.019030 1.023135
H1    H     H_    0.800929 0.732483 0.792074 0.104014
H2    H     H_    0.803597 0.227431 0.780214 0.102151
H3    H     H_    0.855576 0.615853 0.138994 0.122006
H4    H     H_    0.799768 0.710627 0.379629 0.117298
H5    H     H_    0.932079 0.644495 0.216005 0.098626
H6    H     H_    0.915747 0.668740 0.304778 0.098134
H7    H     H_    0.506814 0.684704 0.133198 0.127652
H8    H     H_    0.394056 0.727481 0.206273 0.119145
H9    H     H_    0.469517 0.731834 0.371638 0.130408
H10   H     H_    0.113533 0.048074 0.137561 0.121346
H11   H     H_    0.236774 0.976081 0.375190 0.121376
H12   H     H_    0.306598 0.196853 0.800013 0.104526
H13   H     H_    0.161066 0.929035 0.210528 0.106226
H14   H     H_    0.593693 0.874873 0.741240 0.101449
H15   H     H_    0.197599 0.906303 0.298228 0.101275
H16   H     H_    0.093841 0.377288 0.147461 0.132120
H17   H     H_    0.113308 0.452540 0.224373 0.110945
H18   H     H_    0.139041 0.434213 0.312346 0.106361
H19   H     H_    0.183551 0.319172 0.383873 0.131073
H20   H     H_    0.543568 0.385396 0.145706 0.129310
H21   H     H_    0.500780 0.303833 0.385778 0.118459
H22   H     H_    0.434417 0.430869 0.315928 0.130180
H23   H     H_    0.143805 0.340734 0.730370 0.121390
H24   H     H_    0.803040 0.032677 0.132896 0.128913
H25   H     H_    0.480277 0.785278 0.796853 0.115301
H26   H     H_    0.865461 0.909830 0.201706 0.105123
H27   H     H_    0.863369 0.884683 0.289210 0.104924
H28   H     H_    0.782960 0.959236 0.367844 0.129962
H29   H     H_    0.539404 0.610273 0.725050 0.107139
H30   H     H_    0.746474 0.467780 0.775700 0.098024
H31   H     H_    0.185786 0.980243 0.789479 0.106020
H32   H     H_    0.022632 0.124418 0.719612 0.107076
H33   H     H_    0.357491 0.003876 0.740204 0.101031
H34   H     H_    0.971857 0.317043 0.779508 0.103823
H35   H     H_    0.933118 0.512039 0.742795 0.308362
H36   H     H_    0.385104 0.733003 0.294967 0.112296
H37   H     H_    0.467650 0.508391 0.201392 0.317124
H38   H     H_    0.471149 0.325997 0.792808 0.106191
H39   H     H_    0.606831 0.359494 0.722736 0.106564
H40   H     H_    0.509956 0.126030 0.741132 0.101091
H41   H     H_    0.706723 0.994045 0.798583 0.105138
H42   H     H_    0.842330 0.027631 0.728731 0.108909
O1    O     O_R   0.301710 0.195650 0.554160 -0.504074
O2    O     O_R   0.635520 0.542770 0.964420 -0.507476
O3    O     O_R   0.665950 0.325030 0.970100 -0.494423
O4    O     O_R   0.522390 0.158990 0.550460 -0.495421
O5    O     O_R   0.816620 0.158530 0.074540 -0.520053
O6    O     O_R   0.004460 0.188870 0.069750 -0.499776
O7    O     O_R   0.025800 0.341780 0.072300 -0.522035
O8    O     O_R   0.807650 0.528950 0.067500 -0.503056
O9    O     O_R   0.633420 0.550490 0.071810 -0.521992
O10   O     O_R   0.664000 0.332180 0.069640 -0.501059
O11   O     O_3   0.826350 0.346390 0.019210 -0.244111
O12   O     O_R   0.658900 0.818120 0.449760 -0.501437
O13   O     O_R   0.694390 0.003530 0.554040 -0.503926
O14   O     O_R   0.657700 0.819660 0.549320 -0.490149
O15   O     O_R   0.501930 0.803280 0.552920 -0.509628
O16   O     O_R   0.318170 0.023580 0.549580 -0.496267
O17   O     O_R   0.303010 0.193990 0.446760 -0.519967
O18   O     O_R   0.523600 0.157450 0.450900 -0.499673
O19   O     O_R   0.695690 0.001860 0.446640 -0.522878
O20   O     O_3   0.877788 0.546907 0.715897 -0.697268
O21   O     O_3   0.429366 0.490229 0.227485 -0.722079
O22   O     O_R   0.503220 0.801620 0.445520 -0.523373
O23   O     O_R   0.319370 0.022040 0.450020 -0.501965
O24   O     O_3   0.499990 0.000010 0.499990 -0.246997
O25   O     O_R   0.818720 0.150820 0.967160 -0.508316
O26   O     O_R   0.006410 0.181720 0.970200 -0.495240
O27   O     O_R   0.027890 0.334070 0.964920 -0.506599
O28   O     O_R   0.809600 0.521790 0.967960 -0.496363

loop_
_geom_bond_atom_site_label_1
_geom_bond_atom_site_label_2
_ccdc_geom_bond_type
C84   H26   S    
C66   C68   A    
C20   C93   S    
C63   C65   A    
C1    C21   S    
C23   C45   S    
Cr3   O15   S    
C27   C29   S    
C41   C42   A    
C35   C36   A    
C18   C26   S    
C24   C27   S    
C64   O20   S    
C2    C12   T    
C79   C87   A    
Cr2   O19   S    
C28   O18   A    
C47   C49   A    
C20   C30   T    
C85   C86   A    
C5    H31   S    
C8    H34   S    
C21   C31   T    
C93   O25   A    
C51   H11   S    
C83   C84   A    
C58   H10   S    
C71   H21   S    
C36   C37   A    
C76   C78   S    
C83   H27   S    
C52   O23   A    
C38   C39   A    
C11   C14   S    
C66   C69   A    
C54   C68   A    
C14   H33   S    
Cr5   O11   S    
C6    C91   S    
C69   H16   S    
C56   C78   S    
Cr5   O28   S    
C61   C63   A    
C18   C19   S    
C73   C74   A    
H37   O21   S    
C9    C13   S    
C77   H20   S    
C6    C15   T    
C54   C55   A    
C96   O10   A    
Cr2   O14   S    
C45   C56   S    
C8    C9    S    
C7    C17   T    
C22   C25   S    
C45   C67   S    
C27   H41   S    
C56   C64   S    
Cr5   O27   S    
C59   C94   S    
C4    C12   S    
C10   H23   S    
C43   C48   A    
Cr6   O10   S    
C40   O22   A    
C13   H12   S    
Cr2   O12   S    
C52   O17   A    
Cr3   O22   S    
C76   H1    S    
C85   C87   A    
C26   C31   S    
C32   H4    S    
C13   C14   S    
C36   H5    S    
C61   C62   A    
C67   C78   S    
C42   C44   A    
C72   C75   A    
C35   C48   A    
C81   C83   A    
C44   C46   A    
C81   C82   A    
Cr3   O23   S    
C77   C79   A    
C65   H17   S    
C4    O14   A    
C80   H28   S    
C74   C75   A    
C92   O2    A    
C75   H22   S    
C33   C43   A    
C88   C92   S    
C35   C38   A    
C3    C11   S    
C84   C85   A    
C37   H6    S    
C3    C8    S    
C53   C57   A    
C19   H38   S    
Cr4   O6    S    
C58   C59   A    
C82   C86   A    
Cr4   O26   S    
Cr5   O7    S    
C33   C37   A    
C74   O21   S    
C60   C61   A    
C95   O9    A    
C9    C15   S    
C5    C9    S    
Cr2   O24   S    
C67   H25   S    
Cr6   O3    S    
C53   C62   A    
C1    O4    A    
C40   O12   A    
C47   C48   A    
Cr2   O13   S    
C60   C70   A    
C23   C34   S    
C39   C95   S    
C64   C76   S    
C25   C26   S    
C88   C89   T    
Cr6   O9    S    
C32   C50   A    
C5    C14   S    
C59   C69   A    
Cr4   O11   S    
C23   C64   S    
C51   C70   A    
C45   H29   S    
Cr1   O17   S    
C55   C57   A    
Cr1   O4    S    
C22   C24   S    
C25   H42   S    
C94   O6    A    
C42   C43   A    
C29   H40   S    
C19   C29   S    
C41   C50   A    
C57   H15   S    
Cr3   O24   S    
C54   C58   A    
C46   C47   A    
C7    C16   S    
C44   H36   S    
C91   O26   A    
C39   C49   A    
Cr4   O25   S    
C18   C22   S    
Cr1   O1    S    
C18   H39   S    
C78   H14   S    
C80   C81   A    
C3    C5    S    
C10   C13   S    
C11   C17   S    
C34   C67   S    
H35   O20   S    
C91   O27   A    
Cr4   O5    S    
C25   C27   S    
Cr1   O24   S    
Cr5   O8    S    
C62   C68   A    
C3    H32   S    
C32   C33   A    
C38   H3    S    
C1    O13   A    
C19   C24   S    
C94   O7    A    
C22   H2    S    
C71   C72   A    
C46   H8    S    
C2    C56   S    
Cr6   O2    S    
C63   H18   S    
C71   C90   A    
C55   H13   S    
C92   O28   A    
C40   C50   S    
C96   O5    A    
C23   H30   S    
C93   O3    A    
C65   C66   A    
C80   C90   A    
C60   H19   S    
C24   C30   S    
C73   C86   A    
C34   C89   S    
C52   C70   S    
C10   C11   S    
C4    O15   A    
C79   C96   S    
C16   O16   A    
C26   C29   S    
C8    C10   S    
Cr1   O18   S    
C41   H9    S    
C73   C77   A    
C16   O1    A    
C49   H7    S    
C28   C90   S    
C95   O8    A    
C51   C53   A    
Cr3   O16   S    
Cr6   O11   S    
C87   H24   S    
C72   C82   A    
C28   O19   A    
C34   C76   S    
