data_mof_unit_11363.cif
_audit_creation_date              2012-12-10T19:14:20-0500
_audit_creation_method            fapswitch 2.2
_symmetry_space_group_name_H-M    P1
_symmetry_Int_Tables_number       1
_space_group_crystal_system       triclinic
_cell_length_a                    10.625756
_cell_length_b                    10.019874
_cell_length_c                    18.686999
_cell_angle_alpha                 91.575712
_cell_angle_beta                  89.409133
_cell_angle_gamma                 89.38035
_cell_volume                      1988.6004895

loop_
_atom_site_label
_atom_site_type_symbol
_atom_type_description
_atom_site_fract_x
_atom_site_fract_y
_atom_site_fract_z
_atom_type_partial_charge
C1    C     C_R   0.258698 0.500154 0.499771 0.860389
C2    C     C_R   0.686475 0.512211 0.073278 0.350313
C3    C     C_R   0.644508 0.609795 0.811507 -0.141625
C4    C     C_R   0.549154 0.393733 0.825515 -0.125675
C5    C     C_R   0.603004 0.611142 0.741353 -0.210766
C6    C     C_R   0.506255 0.396403 0.755193 -0.114325
C7    C     C_R   0.533439 0.505013 0.712183 -0.054978
C8    C     C_R   0.618802 0.500741 0.854100 0.072637
C9    C     C_3   0.073690 0.566726 0.431497 -0.346582
C10   C     C_3   0.071621 0.577505 0.566810 -0.439056
C11   C     C_3   0.928533 0.570574 0.432037 -0.052963
C12   C     C_3   0.926435 0.574561 0.568511 -0.030350
C13   C     C_3   0.073066 0.353470 0.500663 -0.392898
C14   C     C_3   0.121801 0.499595 0.499685 0.076737
C15   C     C_3   0.878362 0.497754 0.499818 0.142684
C16   C     C_R   0.502699 0.498526 0.363567 0.901102
C17   C     C_3   0.930379 0.351995 0.498968 -0.369934
C18   C     C_3   0.387640 0.078876 0.461808 0.227104
C19   C     C_3   0.380117 0.922789 0.470890 0.231982
C20   C     C_3   0.617860 0.075531 0.465554 0.003739
C21   C     C_3   0.610614 0.916770 0.457761 -0.006295
C22   C     C_3   0.494162 0.085785 0.574604 0.450512
C23   C     C_3   0.507677 0.920986 0.574743 0.422447
C24   C     C_R   0.741365 0.499190 0.499955 0.831780
C25   C     C_R   0.504373 0.501584 0.635173 0.835607
C26   C     C_R   0.527904 0.615824 0.244735 0.352930
C27   C     C_R   0.590553 0.385267 0.249343 0.327076
C28   C     C_R   0.595590 0.627103 0.180805 -0.195602
C29   C     C_R   0.664816 0.399048 0.188227 -0.194870
C30   C     C_R   0.662188 0.517753 0.151065 -0.045746
C31   C     C_R   0.533601 0.497568 0.284328 -0.208032
C32   C     C_R   0.656544 0.503313 0.929431 0.282662
H1    H     H_    0.899361 0.295299 0.450505 0.180588
H2    H     H_    0.894130 0.296426 0.545442 0.213181
H3    H     H_    0.300571 0.124058 0.485253 0.103811
H4    H     H_    0.302823 0.909379 0.510132 0.059045
H5    H     H_    0.697079 0.095591 0.502463 0.199549
H6    H     H_    0.699013 0.878764 0.481131 0.198186
H7    H     H_    0.581699 0.715757 0.149765 0.206115
H8    H     H_    0.704707 0.309748 0.162450 0.198591
H9    H     H_    0.698538 0.693289 0.832002 0.167400
H10   H     H_    0.526025 0.309085 0.857770 0.159440
H11   H     H_    0.631111 0.692785 0.709310 0.225812
H12   H     H_    0.452594 0.313502 0.734506 0.165568
H13   H     H_    0.112121 0.511739 0.383306 0.212891
H14   H     H_    0.112579 0.533825 0.615702 0.177485
H15   H     H_    0.108253 0.670705 0.429272 0.217805
H16   H     H_    0.102844 0.683217 0.565886 0.170800
H17   H     H_    0.898072 0.677342 0.436563 0.168290
H18   H     H_    0.891466 0.679731 0.567323 0.200612
H19   H     H_    0.110442 0.294714 0.453459 0.215739
H20   H     H_    0.105556 0.303475 0.549804 0.177552
N1    N     N_R   0.675432 0.393623 0.037003 -0.145291
N2    N     N_R   0.688447 0.626027 0.035593 -0.155900
N3    N     N_R   0.660715 0.389126 0.966486 -0.156253
N4    N     N_R   0.674572 0.621525 0.964916 -0.159845
N5    N     N_3   0.499750 0.138610 0.498490 -0.143223
N6    N     N_3   0.499750 0.861390 0.498490 -0.134999
O1    O     O_R   0.314910 0.616040 0.499990 -0.595809
O2    O     O_R   0.314910 0.383960 0.499990 -0.634336
O3    O     O_R   0.500100 0.616080 0.398110 -0.554421
O4    O     O_R   0.500100 0.383920 0.398110 -0.545209
O5    O     O_R   0.685320 0.616040 0.499960 -0.615329
O6    O     O_R   0.685320 0.383960 0.499960 -0.616206
O7    O     O_R   0.500130 0.616000 0.601840 -0.598011
O8    O     O_R   0.500130 0.384000 0.601840 -0.560589
Zn1   Zn    Zn3+2 0.500150 0.654960 0.499970 0.988771
Zn2   Zn    Zn3+2 0.500150 0.345040 0.499970 0.993528
Cl1   Cl    Cl    0.402992 0.728751 0.255416 -0.478847
Cl2   Cl    Cl    0.516955 0.231617 0.249299 -0.508482
Cl3   Cl    Cl    0.365526 0.129548 0.372940 -0.436789
Cl4   Cl    Cl    0.310548 0.834628 0.398668 -0.480638
C33   C     C_3   0.668562 0.140438 0.397636 -0.705931
H21   H     H_    0.613850 0.109181 0.351098 0.319493
H22   H     H_    0.674063 0.248808 0.400461 0.274337
H23   H     H_    0.767444 0.107102 0.387632 0.176448
C34   C     C_3   0.627430 0.859343 0.380651 -0.675131
H24   H     H_    0.543260 0.875714 0.348052 0.333041
H25   H     H_    0.708453 0.903532 0.352620 0.192312
H26   H     H_    0.658973 0.754433 0.380796 0.238898
Cl5   Cl    Cl    0.620212 0.156879 0.628398 -0.558168
Cl6   Cl    Cl    0.658307 0.868734 0.611655 -0.634123
C35   C     C_3   0.370235 0.138002 0.613215 -0.882410
H27   H     H_    0.378598 0.134728 0.672254 0.254927
H28   H     H_    0.342179 0.239610 0.599945 0.273737
H29   H     H_    0.285879 0.080710 0.597506 0.163416
C36   C     C_3   0.408418 0.856211 0.627196 -0.749203
H30   H     H_    0.346069 0.784686 0.599349 0.233258
H31   H     H_    0.453839 0.805509 0.672091 0.266296
H32   H     H_    0.343927 0.920409 0.658932 0.189959
C37   C     C_3   0.877013 0.516194 0.360135 -0.903377
H33   H     H_    0.908471 0.411819 0.348662 0.260841
H34   H     H_    0.772853 0.520618 0.359851 0.207905
H35   H     H_    0.911229 0.578662 0.315913 0.271301
C38   C     C_3   0.878578 0.517664 0.639564 -0.819503
H36   H     H_    0.921585 0.418594 0.649597 0.253004
H37   H     H_    0.903162 0.586558 0.684745 0.248705
H38   H     H_    0.775086 0.507414 0.639377 0.249385

loop_
_geom_bond_atom_site_label_1
_geom_bond_atom_site_label_2
_ccdc_geom_bond_type
C23   N6    S    
O8    Zn2   S    
C36   H30   S    
C9    H13   S    
C23   Cl6   S    
C27   C29   A    
C33   H21   S    
C38   H36   S    
C4    C8    A    
C22   N5    S    
C38   H38   S    
C34   H24   S    
C16   C31   S    
C16   O4    A    
O6    Zn2   S    
C19   H4    S    
C1    O1    A    
C2    N2    A    
C18   C19   S    
O1    Zn1   S    
C13   H19   S    
C11   C15   S    
C21   H6    S    
O7    Zn1   S    
C10   H14   S    
C12   C38   S    
C18   H3    S    
C32   N3    A    
C34   H25   S    
C5    H11   S    
C26   C31   A    
C24   O6    A    
C23   C36   S    
C13   C14   S    
C33   H22   S    
C19   Cl4   S    
C17   H1    S    
O5    Zn1   S    
N1    N3    A    
C19   N6    S    
N2    N4    A    
C27   C31   A    
C8    C32   S    
C22   Cl5   S    
C25   O7    A    
C4    C6    A    
C3    C8    A    
C10   C14   S    
C1    O2    A    
C37   H33   S    
C5    C7    A    
C28   H7    S    
C9    C14   S    
C29   C30   A    
C11   H17   S    
C37   H34   S    
C13   H20   S    
O3    Zn1   S    
C18   N5    S    
C35   H27   S    
C12   C15   S    
C9    C11   S    
C27   Cl2   S    
C10   C12   S    
C15   C24   S    
C35   H28   S    
C9    H15   S    
C24   O5    A    
C36   H31   S    
C10   H16   S    
C33   H23   S    
C17   H2    S    
N5    Zn2   S    
C34   H26   S    
C18   Cl3   S    
C15   C17   S    
C3    H9    S    
C25   O8    A    
C3    C5    A    
C2    N1    A    
C12   H18   S    
C38   H37   S    
C6    C7    A    
O4    Zn2   S    
C26   C28   A    
C7    C25   S    
C13   C17   S    
C2    C30   S    
C22   C35   S    
C28   C30   A    
C21   N6    S    
C37   H35   S    
C20   H5    S    
C4    H10   S    
C29   H8    S    
C20   C33   S    
C11   C37   S    
N6    Zn1   S    
C35   H29   S    
C20   C21   S    
O2    Zn2   S    
C16   O3    A    
C36   H32   S    
C21   C34   S    
C26   Cl1   S    
C22   C23   S    
C6    H12   S    
C1    C14   S    
C20   N5    S    
C32   N4    A    
