data_mof_unit_62599.cif
_audit_creation_date              2012-10-26T19:28:36-0400
_audit_creation_method            fapswitch 2.2
_symmetry_space_group_name_H-M    P1
_symmetry_Int_Tables_number       1
_space_group_crystal_system       triclinic
_cell_length_a                    10.476447
_cell_length_b                    11.732361
_cell_length_c                    13.942445
_cell_angle_alpha                 89.999915
_cell_angle_beta                  84.764497
_cell_angle_gamma                 89.999922
_cell_volume                      1706.56459673

loop_
_atom_site_label
_atom_site_type_symbol
_atom_type_description
_atom_site_fract_x
_atom_site_fract_y
_atom_site_fract_z
_atom_type_partial_charge
C1    C     C_R   0.500000 0.716673 0.500000 0.550502
C2    C     C_1   0.543202 0.508465 0.127736 0.031476
C3    C     C_1   0.500000 0.838054 0.500000 0.002349
C4    C     C_1   0.500000 0.161944 0.500000 0.000705
C5    C     C_1   0.500000 0.940266 0.500000 -0.015943
C6    C     C_1   0.500000 0.059731 0.500000 -0.016528
C7    C     C_1   0.927915 0.500002 0.499996 0.126107
C8    C     C_1   0.072085 0.500002 0.500004 0.126107
C9    C     C_2   0.313183 0.518216 0.024797 0.581430
C10   C     C_2   0.686807 0.518425 0.975207 0.581435
C11   C     C_R   0.500000 0.283327 0.500000 0.547725
C12   C     C_R   0.479446 0.500087 0.683383 0.551625
C13   C     C_R   0.520554 0.500090 0.316617 0.551621
C14   C     C_1   0.533360 0.503770 0.214093 0.049404
C15   C     C_1   0.466639 0.503751 0.785907 0.049413
C16   C     C_2   0.553747 0.515250 0.024111 0.019548
C17   C     C_2   0.446245 0.515193 0.975891 0.019550
C18   C     C_1   0.456795 0.508428 0.872265 0.031487
Cu1   Cu    Cu3+1 0.374700 0.500000 0.500000 1.039206
Cu2   Cu    Cu3+1 0.625300 0.500000 0.500000 1.039204
H1    H     H_    0.194426 0.559666 0.141901 0.357500
H2    H     H_    0.805505 0.559977 0.858100 0.357488
N1    N     N_1   0.813590 0.500000 0.499990 -0.180255
N2    N     N_1   0.186410 0.500000 0.500010 -0.180254
O1    O     O_R   0.394190 0.662800 0.500010 -0.487663
O2    O     O_R   0.288729 0.562046 0.117961 -0.691161
O3    O     O_2   0.776445 0.485241 0.018311 -0.475271
O4    O     O_R   0.711197 0.562246 0.882035 -0.691177
O5    O     O_R   0.605810 0.337200 0.499990 -0.488846
O6    O     O_R   0.605810 0.662800 0.499990 -0.487661
O7    O     O_R   0.394190 0.337200 0.500010 -0.488843
O8    O     O_R   0.379230 0.500000 0.637850 -0.489964
O9    O     O_R   0.620770 0.500000 0.362150 -0.489962
O10   O     O_R   0.590850 0.500000 0.637840 -0.477546
O11   O     O_R   0.409150 0.500000 0.362160 -0.477543
O12   O     O_2   0.223597 0.484897 0.981704 -0.475266

loop_
_geom_bond_atom_site_label_1
_geom_bond_atom_site_label_2
_ccdc_geom_bond_type
C10   O3    D    
C9    O12   D    
H1    O2    S    
C12   C15   S    
C13   O9    A    
C15   C18   T    
C2    C16   S    
Cu1   Cu2   S    
Cu2   N1    S    
Cu1   O7    S    
C17   C18   S    
C11   O7    A    
C7    C8    S    
Cu2   O6    S    
C13   C14   S    
C12   O8    A    
C4    C11   S    
C1    O1    A    
C7    N1    T    
Cu1   O8    S    
C9    C17   S    
C1    O6    A    
C8    N2    T    
C9    O2    S    
C13   O11   A    
Cu2   O5    S    
C5    C6    S    
C2    C14   T    
Cu2   O9    S    
Cu1   O1    S    
C12   O10   A    
Cu2   O10   S    
C11   O5    A    
C4    C6    T    
C10   O4    S    
C10   C16   S    
Cu1   O11   S    
H2    O4    S    
C3    C5    T    
Cu1   N2    S    
C16   C17   D    
C1    C3    S    
