data_mof_unit_7500.cif
_audit_creation_date              2012-12-11T14:49:48-0500
_audit_creation_method            fapswitch 2.2
_symmetry_space_group_name_H-M    P1
_symmetry_Int_Tables_number       1
_space_group_crystal_system       triclinic
_cell_length_a                    16.795865
_cell_length_b                    16.693599
_cell_length_c                    19.741381
_cell_angle_alpha                 116.645576
_cell_angle_beta                  63.089659
_cell_angle_gamma                 100.531473
_cell_volume                      4410.17797267

loop_
_atom_site_label
_atom_site_type_symbol
_atom_type_description
_atom_site_fract_x
_atom_site_fract_y
_atom_site_fract_z
_atom_type_partial_charge
C1    C     C_R   0.023436 0.760839 0.027095 -0.118435
C2    C     C_R   0.234828 0.582874 0.836478 0.311898
C3    C     C_R   0.193395 0.433277 0.033592 -0.146384
C4    C     C_R   0.748848 0.475680 0.169101 -0.140929
C5    C     C_R   0.015262 0.327193 0.753520 0.562828
C6    C     C_R   0.273569 0.442730 0.972266 0.056185
C7    C     C_R   0.979868 0.244740 0.752832 -0.033891
C8    C     C_R   0.231276 0.560615 0.761689 0.017741
C9    C     C_R   0.983011 0.231347 0.045375 0.055658
C10   C     C_R   0.005657 0.085234 0.670809 -0.310478
C11   C     C_R   0.977247 0.166067 0.683210 -0.047679
C12   C     C_R   0.742397 0.532024 0.248303 0.085742
C13   C     C_R   0.958759 0.173776 0.624173 0.558540
C14   C     C_R   0.990017 0.105954 0.543860 -0.064850
C15   C     C_R   0.023377 0.024894 0.529120 -0.020505
C16   C     C_R   0.814406 0.511657 0.914753 -0.127493
C17   C     C_R   0.027233 0.013261 0.593965 0.069942
C18   C     C_R   0.991293 0.118670 0.477946 -0.177969
C19   C     C_R   0.022157 0.050263 0.398399 -0.223172
C20   C     C_R   0.049157 0.968064 0.385041 0.191380
C21   C     C_R   0.050901 0.954987 0.450054 0.028152
C22   C     C_R   0.075346 0.870609 0.436911 -0.077715
C23   C     C_R   0.738725 0.463441 0.939794 0.052075
C24   C     C_R   0.081255 0.860043 0.501458 0.574805
C25   C     C_R   0.056539 0.931701 0.579980 -0.321610
C26   C     C_R   0.066429 0.896358 0.309443 -0.264264
C27   C     C_R   0.076969 0.810812 0.300776 0.108110
C28   C     C_R   0.012955 0.660975 0.238553 -0.143108
C29   C     C_R   0.086523 0.797700 0.361627 -0.239121
C30   C     C_R   0.331630 0.484012 0.617978 -0.277952
C31   C     C_R   0.301443 0.565350 0.687309 0.109601
C32   C     C_R   0.336628 0.646491 0.683591 -0.197297
C33   C     C_R   0.405760 0.645891 0.609103 -0.045865
C34   C     C_R   0.060324 0.737137 0.235183 0.082772
C35   C     C_R   0.437478 0.562806 0.539293 -0.002536
C36   C     C_R   0.398467 0.481888 0.543844 0.186469
C37   C     C_R   0.444130 0.725928 0.602852 0.526957
C38   C     C_R   0.518398 0.722273 0.529847 -0.361255
C39   C     C_R   0.552772 0.639588 0.460796 0.033615
C40   C     C_R   0.747914 0.433253 0.990749 -0.131006
C41   C     C_R   0.509572 0.559717 0.465541 -0.021409
C42   C     C_R   0.540087 0.475677 0.397360 0.165172
C43   C     C_R   0.498398 0.396462 0.401593 -0.191206
C44   C     C_R   0.427902 0.399521 0.474952 -0.218170
C45   C     C_R   0.259697 0.510644 0.956624 -0.142450
C46   C     C_R   0.629892 0.633784 0.387609 0.266749
C47   C     C_R   0.660267 0.547929 0.322139 0.061367
C48   C     C_R   0.614333 0.470889 0.326574 -0.329876
C49   C     C_R   0.669656 0.436476 0.908030 0.127889
C50   C     C_R   0.359354 0.397032 0.936740 0.128701
C51   C     C_R   0.452352 0.326633 0.960116 -0.220679
C52   C     C_R   0.079619 0.737759 0.160545 -0.150346
C53   C     C_R   0.368525 0.341734 0.969539 -0.171324
C54   C     C_R   0.435981 0.422428 0.881474 -0.278301
C55   C     C_R   0.518952 0.413869 0.877304 0.187045
C56   C     C_R   0.943184 0.251246 0.832682 -0.240534
C57   C     C_R   0.526079 0.369598 0.920707 0.184175
C58   C     C_R   0.602699 0.378646 0.933215 -0.286139
C59   C     C_R   0.666182 0.472567 0.857341 -0.161376
C60   C     C_R   0.591656 0.459759 0.840637 -0.233584
C61   C     C_R   0.799391 0.181479 0.181673 0.094814
C62   C     C_R   0.926618 0.863950 0.026830 0.129262
C63   C     C_R   0.845798 0.953957 0.007957 -0.227784
C64   C     C_R   0.827255 0.544199 0.246226 -0.127821
C65   C     C_R   0.886423 0.872851 0.981532 -0.169795
C66   C     C_R   0.926800 0.938723 0.098639 -0.279519
C67   C     C_R   0.156293 0.512146 0.761905 -0.218765
C68   C     C_R   0.885652 0.020283 0.125886 0.187220
C69   C     C_R   0.844191 0.027732 0.080442 0.189506
C70   C     C_R   0.801134 0.108638 0.108902 -0.275110
C71   C     C_R   0.840835 0.174457 0.226251 -0.159005
C72   C     C_R   0.883954 0.094285 0.198611 -0.218257
C73   C     C_R   0.944602 0.691928 0.950936 -0.125373
C74   C     C_R   0.964761 0.776062 0.001378 0.047428
C75   C     C_3   0.035153 0.340127 0.155752 -1.065425
C76   C     C_3   0.287096 0.658293 0.873702 -1.059846
C77   C     C_3   0.131332 0.307039 0.627871 0.244548
C78   C     C_R   0.019615 0.312957 0.079545 0.306438
C79   C     C_3   0.164218 0.327994 0.552115 -0.863528
C80   C     C_3   0.828205 0.237688 0.659558 0.248289
C81   C     C_3   0.772885 0.235622 0.745093 -0.958504
C82   C     C_3   0.198682 0.768298 0.453323 0.291272
C83   C     C_3   0.233721 0.799380 0.520064 -0.999177
C84   C     C_3   0.353297 0.845142 0.658467 0.243011
C85   C     C_3   0.312904 0.932347 0.734491 -0.870762
C86   C     C_3   0.677994 0.717398 0.379533 -1.027921
C87   C     C_R   0.948990 0.243952 0.998591 -0.205783
H1    H     H_    0.054486 0.810634 0.065244 0.093340
H2    H     H_    0.059433 0.905780 0.261463 0.117930
H3    H     H_    0.096929 0.730541 0.352050 0.150792
H4    H     H_    0.059343 0.923173 0.630165 0.162194
H5    H     H_    0.303840 0.421699 0.622434 0.131261
H6    H     H_    0.310057 0.708980 0.737949 0.165495
H7    H     H_    0.548739 0.784900 0.528659 0.176731
H8    H     H_    0.836264 0.533334 0.865185 0.099709
H9    H     H_    0.639376 0.405553 0.275458 0.143689
H10   H     H_    0.521859 0.331985 0.348898 0.128089
H11   H     H_    0.397425 0.337503 0.478305 0.127575
H12   H     H_    0.904538 0.201837 0.855041 0.137951
H13   H     H_    0.605235 0.346959 0.969382 0.122047
H14   H     H_    0.718055 0.514984 0.834564 0.120186
H15   H     H_    0.457603 0.290175 0.991651 0.128823
H16   H     H_    0.587479 0.492928 0.806039 0.132489
H17   H     H_    0.311061 0.316762 0.008629 0.117402
H18   H     H_    0.430897 0.459841 0.850835 0.119713
H19   H     H_    0.768814 0.115668 0.075163 0.120205
H20   H     H_    0.994311 0.635847 0.285469 0.100953
H21   H     H_    0.839313 0.231329 0.282408 0.121273
H22   H     H_    0.814865 0.958692 0.972126 0.129287
H23   H     H_    0.127776 0.496209 0.718303 0.181973
H24   H     H_    0.915394 0.089960 0.234235 0.124259
H25   H     H_    0.886105 0.817071 0.925502 0.119515
H26   H     H_    0.956603 0.933126 0.134891 0.119279
H27   H     H_    0.709512 0.382899 0.011587 0.087841
H28   H     H_    0.124568 0.781643 0.133739 0.095838
H29   H     H_    0.845222 0.581446 0.298144 0.115976
H30   H     H_    0.901268 0.677972 0.920104 0.095120
H31   H     H_    0.307120 0.534863 0.911688 0.124071
H32   H     H_    0.975119 0.325948 0.204292 0.260301
H33   H     H_    0.093128 0.301583 0.139852 0.248458
H34   H     H_    0.906424 0.197897 0.971409 0.115614
H35   H     H_    0.047355 0.413089 0.182069 0.253003
H36   H     H_    0.359354 0.639849 0.838975 0.256143
H37   H     H_    0.275796 0.719662 0.870503 0.256370
H38   H     H_    0.264770 0.674415 0.940697 0.251483
H39   H     H_    0.125923 0.233133 0.605640 0.087729
H40   H     H_    0.182016 0.328327 0.653873 0.072494
H41   H     H_    0.173038 0.401181 0.570368 0.248235
H42   H     H_    0.229313 0.292817 0.504548 0.200084
H43   H     H_    0.115166 0.304960 0.524248 0.267382
H44   H     H_    0.817648 0.175767 0.609922 0.080761
H45   H     H_    0.180989 0.385981 0.059919 0.123066
H46   H     H_    0.802894 0.294743 0.659674 0.138683
H47   H     H_    0.790789 0.292231 0.792980 0.277712
H48   H     H_    0.700724 0.240949 0.762251 0.237946
H49   H     H_    0.785455 0.171709 0.743592 0.242434
H50   H     H_    0.234121 0.803201 0.411124 0.069325
H51   H     H_    0.215929 0.695842 0.413703 0.124884
H52   H     H_    0.198454 0.764917 0.562231 0.271115
H53   H     H_    0.306320 0.783173 0.489848 0.220057
H54   H     H_    0.223543 0.872953 0.557420 0.248851
H55   H     H_    0.297634 0.798954 0.651641 0.095539
H56   H     H_    0.016376 0.080330 0.719082 0.158093
H57   H     H_    0.388953 0.860091 0.602335 0.100842
H58   H     H_    0.366472 0.980601 0.742579 0.258816
H59   H     H_    0.265978 0.962167 0.726048 0.207551
H60   H     H_    0.275836 0.919365 0.791435 0.253045
H61   H     H_    0.734585 0.703510 0.317572 0.259577
H62   H     H_    0.630958 0.763534 0.387997 0.250497
H63   H     H_    0.704546 0.751545 0.427699 0.256499
H64   H     H_    0.968749 0.181282 0.487575 0.156008
H65   H     H_    0.694600 0.449876 0.150557 0.106314
H66   H     H_    0.021102 0.060220 0.348182 0.124202
N1    N     N_R   0.036080 0.671900 0.995420 -0.039144
N2    N     N_R   0.867430 0.509300 0.948100 -0.040227
N3    N     N_R   0.003360 0.617250 0.167070 -0.039317
N4    N     N_R   0.825450 0.461270 0.995400 -0.037500
N5    N     N_R   0.045340 0.665280 0.119770 -0.037776
N6    N     N_R   0.883740 0.497640 0.167070 -0.040513
N7    N     N_R   0.987050 0.628910 0.948110 -0.039096
N8    N     N_R   0.174550 0.538730 0.004600 -0.040555
N9    N     N_R   0.954660 0.334720 0.880230 -0.065515
N10   N     N_R   0.116260 0.502360 0.832930 -0.060701
N11   N     N_R   0.012950 0.371090 0.051890 -0.058218
N12   N     N_R   0.963920 0.328100 0.004580 -0.051221
N13   N     N_R   0.165290 0.545350 0.880240 -0.061763
N14   N     N_R   0.132570 0.490700 0.051900 -0.038649
N15   N     N_R   0.996640 0.382750 0.832930 -0.097049
N16   N     N_R   0.834710 0.454650 0.119760 -0.040878
Ni1   Ni    Ni4+2 0.104370 0.604370 0.000010 0.207464
Ni2   Ni    Ni4+2 0.895630 0.395630 0.999990 0.200401
Ni3   Ni    Ni4+2 0.991920 0.505780 0.891500 0.233943
Ni4   Ni    Ni4+2 0.008080 0.494220 0.108500 0.210223
O1    O     O_3   0.048991 0.353131 0.688517 -0.613481
O2    O     O_3   0.919593 0.251876 0.643325 -0.617177
O3    O     O_3   0.104473 0.778303 0.490530 -0.641095
O4    O     O_3   0.412828 0.807932 0.669903 -0.626351

loop_
_geom_bond_atom_site_label_1
_geom_bond_atom_site_label_2
_ccdc_geom_bond_type
C45   H31   S    
N12   Ni2   S    
C66   C68   A    
C79   H41   S    
C63   C65   A    
C78   N11   A    
C77   O1    S    
C64   H29   S    
C66   H26   S    
N2    N4    A    
C75   H35   S    
C41   C42   A    
C14   C18   A    
C35   C36   A    
C3    C6    A    
C83   H52   S    
C3    N14   A    
C81   H47   S    
C39   C41   A    
C61   C70   A    
C26   H2    S    
C7    C11   S    
C73   N7    A    
C26   C27   A    
C50   C54   A    
C83   H54   S    
C1    C74   A    
C21   C22   A    
N11   N12   A    
C22   C29   A    
C85   H58   S    
C82   H50   S    
C86   H63   S    
C30   C31   A    
C12   C64   A    
C23   C49   S    
C27   C29   A    
C84   H57   S    
C10   C17   A    
C23   C40   A    
C79   H42   S    
C56   N9    A    
N1    Ni1   S    
C15   C17   A    
C18   C19   A    
C5    O1    S    
C5    N15   A    
C45   N8    A    
C83   H53   S    
C46   C47   A    
C44   H11   S    
N2    Ni3   S    
C40   H27   S    
N9    Ni2   S    
C63   C69   A    
C68   C69   A    
C51   C57   A    
C71   H21   S    
C4    C12   A    
C60   H16   S    
C48   H9    S    
C2    N13   A    
C77   H40   S    
N14   Ni4   S    
C61   C71   A    
C1    H1    S    
C32   H6    S    
C72   H24   S    
C28   C34   A    
C59   C60   A    
C80   H44   S    
C13   C14   A    
C76   H38   S    
N16   Ni2   S    
C1    N1    A    
C7    C56   A    
C12   C47   S    
C29   H3    S    
C81   H48   S    
C77   C79   S    
C27   C34   S    
C52   N5    A    
C38   C39   A    
C4    H65   S    
N3    Ni4   S    
C25   H4    S    
C50   C53   A    
C73   H30   S    
C4    N16   A    
C62   C66   A    
C6    C45   A    
C3    H45   S    
C59   H14   S    
C85   H60   S    
C40   N4    A    
N10   N13   A    
C58   H13   S    
C24   C25   A    
C30   H5    S    
C70   H19   S    
C86   H62   S    
C5    C7    A    
N5    Ni1   S    
C79   H43   S    
C33   C37   A    
C80   H46   S    
C51   H15   S    
C76   H37   S    
C63   H22   S    
C43   C44   A    
C65   H25   S    
N1    N7    A    
C37   C38   A    
C67   H23   S    
C47   C48   A    
C84   H55   S    
C68   C72   A    
C38   H7    S    
C16   N2    A    
N7    Ni3   S    
C75   H32   S    
N11   Ni4   S    
C42   C48   A    
C85   H59   S    
N10   Ni3   S    
C28   H20   S    
N8    N14   A    
C39   C46   A    
N9    N15   A    
N8    Ni1   S    
C82   O3    S    
N13   Ni1   S    
C16   C23   A    
C55   C57   A    
C19   H66   S    
N15   Ni3   S    
C22   C24   A    
C36   C44   A    
C42   C43   A    
C18   H64   S    
C24   O3    S    
C73   C74   A    
C2    C76   S    
C81   H49   S    
C87   H34   S    
C52   H28   S    
C13   O2    S    
C54   C55   A    
C16   H8    S    
N6    N16   A    
C62   C65   A    
C8    C31   S    
C31   C32   A    
C2    C8    A    
C84   C85   S    
C43   H10   S    
C80   O2    S    
C80   C81   S    
C86   H61   S    
C37   O4    S    
C34   C52   A    
C49   C59   A    
C30   C36   A    
C17   C25   A    
C32   C33   A    
C19   C20   A    
N3    N5    A    
C71   C72   A    
C82   H51   S    
N4    Ni2   S    
C11   C13   A    
C57   C58   A    
C87   N12   A    
C20   C26   A    
C54   H18   S    
C64   N6    A    
C33   C35   A    
C9    C78   A    
C75   H33   S    
C69   C70   A    
C35   C41   A    
C75   C78   S    
C10   C11   A    
C49   C58   A    
C84   O4    S    
C6    C50   S    
C67   N10   A    
C15   C21   A    
C20   C21   A    
C8    C67   A    
C82   C83   S    
N6    Ni4   S    
C28   N3    A    
C14   C15   A    
C62   C74   S    
C53   H17   S    
C56   H12   S    
C51   C53   A    
C55   C60   A    
C9    C87   A    
C77   H39   S    
C76   H36   S    
C10   H56   S    
C46   C86   S    
