data_mof_unit_58025.cif
_audit_creation_date              2012-12-10T19:29:23-0500
_audit_creation_method            fapswitch 2.2
_symmetry_space_group_name_H-M    P1
_symmetry_Int_Tables_number       1
_space_group_crystal_system       triclinic
_cell_length_a                    22.311177
_cell_length_b                    22.317356
_cell_length_c                    14.977333
_cell_angle_alpha                 90.002136
_cell_angle_beta                  90.106427
_cell_angle_gamma                 90.000169
_cell_volume                      7457.59782805

loop_
_atom_site_label
_atom_site_type_symbol
_atom_type_description
_atom_site_fract_x
_atom_site_fract_y
_atom_site_fract_z
_atom_type_partial_charge
C1    C     C_R   0.418864 0.918866 0.499932 0.901353
C2    C     C_1   0.662856 0.837181 0.500228 -0.032503
C3    C     C_3   0.241769 0.757062 0.254540 -0.782685
C4    C     C_3   0.588490 0.862794 0.997765 -0.768710
C5    C     C_3   0.411510 0.137214 0.002232 -0.768706
C6    C     C_3   0.414760 0.860597 0.001187 -0.806034
C7    C     C_3   0.585231 0.139414 0.998818 -0.806069
C8    C     C_3   0.088471 0.362774 0.997767 -0.768709
C9    C     C_3   0.911529 0.637218 0.002236 -0.768708
C10   C     C_3   0.914746 0.360600 0.001179 -0.806064
C11   C     C_3   0.085264 0.639388 0.998815 -0.806029
C12   C     C_1   0.662863 0.162812 0.500243 -0.033100
C13   C     C_1   0.337142 0.837183 0.499763 -0.033111
C14   C     C_1   0.837144 0.662819 0.499772 -0.032503
C15   C     C_1   0.162857 0.337182 0.500230 -0.032476
C16   C     C_1   0.162858 0.662817 0.500237 -0.033111
C17   C     C_1   0.837137 0.337187 0.499757 -0.033099
C18   C     C_1   0.499812 0.000031 0.190035 0.073081
C19   C     C_1   0.500187 0.999972 0.809965 0.073044
C20   C     C_1   0.999813 0.500028 0.190035 0.073045
C21   C     C_R   0.581137 0.081134 0.500069 0.901351
C22   C     C_1   0.000188 0.499969 0.809965 0.073083
C23   C     C_3   0.473362 0.950833 0.970249 0.225260
C24   C     C_3   0.526635 0.049172 0.029751 0.225177
C25   C     C_3   0.529448 0.952571 0.029903 0.244596
C26   C     C_3   0.470549 0.047435 0.970097 0.244560
C27   C     C_3   0.973356 0.450832 0.970248 0.225172
C28   C     C_3   0.026646 0.549162 0.029752 0.225254
C29   C     C_3   0.029443 0.452560 0.029903 0.244562
C30   C     C_3   0.970560 0.547434 0.970097 0.244595
C31   C     C_3   0.702331 0.729899 0.545390 0.167434
C32   C     C_R   0.581135 0.918865 0.500066 0.901370
C33   C     C_3   0.297197 0.269633 0.453087 0.167418
C34   C     C_3   0.297799 0.729767 0.455041 0.167913
C35   C     C_3   0.703368 0.269076 0.548643 0.167919
C36   C     C_3   0.202803 0.230366 0.546912 0.167419
C37   C     C_3   0.797669 0.770101 0.454609 0.167434
C38   C     C_3   0.796632 0.230924 0.451357 0.167919
C39   C     C_3   0.202201 0.770232 0.544959 0.167913
C40   C     C_3   0.227731 0.200233 0.462343 0.168210
C41   C     C_3   0.771880 0.799376 0.539272 0.168231
C42   C     C_3   0.772702 0.199807 0.535775 0.168124
C43   C     C_R   0.418864 0.081134 0.499934 0.901367
C44   C     C_3   0.228230 0.799258 0.460272 0.168131
C45   C     C_3   0.728120 0.700624 0.460728 0.168230
C46   C     C_3   0.272269 0.299767 0.537657 0.168210
C47   C     C_3   0.271770 0.700741 0.539728 0.168131
C48   C     C_3   0.727297 0.300193 0.464225 0.168124
C49   C     C_1   0.374616 0.125360 0.499810 -0.181515
C50   C     C_1   0.625383 0.874639 0.500189 -0.181506
C51   C     C_1   0.625387 0.125356 0.500199 -0.182941
C52   C     C_1   0.374616 0.874641 0.499803 -0.182935
C53   C     C_1   0.874617 0.625361 0.499810 -0.181506
C54   C     C_R   0.918863 0.418866 0.499931 0.901350
C55   C     C_1   0.125384 0.374640 0.500190 -0.181515
C56   C     C_1   0.125384 0.625359 0.500197 -0.182935
C57   C     C_1   0.874613 0.374644 0.499801 -0.182941
C58   C     C_3   0.266534 0.238637 0.584419 0.167581
C59   C     C_3   0.734327 0.762220 0.415485 0.167525
C60   C     C_3   0.732472 0.239616 0.415742 0.168226
C61   C     C_3   0.265433 0.762471 0.584533 0.168214
C62   C     C_3   0.765673 0.737780 0.584515 0.167525
C63   C     C_3   0.233466 0.261362 0.415580 0.167581
C64   C     C_3   0.234567 0.737529 0.415467 0.168215
C65   C     C_R   0.081136 0.581134 0.500068 0.901353
C66   C     C_3   0.767528 0.260384 0.584257 0.168225
C67   C     C_3   0.291911 0.208054 0.499844 -0.116691
C68   C     C_3   0.708087 0.791945 0.500154 -0.116715
C69   C     C_3   0.708092 0.208049 0.500166 -0.116846
C70   C     C_3   0.291911 0.791947 0.499839 -0.116866
C71   C     C_3   0.791913 0.708055 0.499846 -0.116715
C72   C     C_3   0.208089 0.291946 0.500156 -0.116691
C73   C     C_3   0.208089 0.708053 0.500160 -0.116866
C74   C     C_3   0.791907 0.291950 0.499834 -0.116846
C75   C     C_3   0.442111 0.998304 0.029956 -0.273710
C76   C     C_R   0.081136 0.418865 0.500066 0.901367
C77   C     C_3   0.557886 0.001702 0.970044 -0.273735
C78   C     C_3   0.942113 0.498307 0.029955 -0.273734
C79   C     C_3   0.057889 0.501687 0.970044 -0.273706
C80   C     C_3   0.499480 0.000078 0.090174 -0.089824
C81   C     C_3   0.500518 0.999927 0.909826 -0.089816
C82   C     C_3   0.999482 0.500073 0.090174 -0.089815
C83   C     C_3   0.000520 0.499922 0.909826 -0.089823
C84   C     C_3   0.143875 0.143965 0.397101 -0.782869
C85   C     C_3   0.855061 0.854964 0.607657 -0.783012
C86   C     C_3   0.857303 0.142806 0.597348 -0.782196
C87   C     C_R   0.918865 0.581135 0.499934 0.901369
C88   C     C_3   0.145241 0.854636 0.391002 -0.782233
C89   C     C_3   0.644939 0.645036 0.392343 -0.783012
C90   C     C_3   0.356125 0.356034 0.602899 -0.782871
C91   C     C_3   0.354760 0.645363 0.608997 -0.782229
C92   C     C_3   0.642697 0.357193 0.402651 -0.782197
C93   C     C_3   0.653308 0.653395 0.637609 -0.779832
C94   C     C_3   0.345263 0.345186 0.358055 -0.779646
C95   C     C_3   0.347089 0.652994 0.363631 -0.781886
C96   C     C_3   0.656443 0.343502 0.646867 -0.781734
C97   C     C_3   0.154737 0.154814 0.641945 -0.779645
C98   C     C_1   0.337143 0.162818 0.499770 -0.032476
C99   C     C_3   0.846692 0.846605 0.362391 -0.779833
C100  C     C_3   0.843557 0.156498 0.353133 -0.781732
C101  C     C_3   0.152911 0.847005 0.636369 -0.781885
C102  C     C_3   0.741071 0.742211 0.254639 -0.779707
C103  C     C_3   0.261424 0.260270 0.744937 -0.779801
C104  C     C_3   0.258232 0.742937 0.745459 -0.782684
C105  C     C_3   0.735693 0.263108 0.255696 -0.782661
C106  C     C_3   0.238576 0.239729 0.255063 -0.779800
C107  C     C_3   0.758929 0.757789 0.745361 -0.779705
C108  C     C_3   0.764307 0.236892 0.744304 -0.782659
H1    H     H_    0.605081 0.003028 0.946839 0.156208
H2    H     H_    0.863296 0.894094 0.651745 0.231962
H3    H     H_    0.221449 0.802408 0.253505 0.259637
H4    H     H_    0.539028 0.878328 0.113494 0.220140
H5    H     H_    0.616132 0.828066 0.031324 0.232381
H6    H     H_    0.618065 0.889106 0.952909 0.243332
H7    H     H_    0.553177 0.840184 0.957753 0.257391
H8    H     H_    0.460969 0.121676 0.886502 0.220179
H9    H     H_    0.383867 0.171941 0.968673 0.232389
H10   H     H_    0.446823 0.159824 0.042242 0.257362
H11   H     H_    0.381935 0.110903 0.047092 0.243279
H12   H     H_    0.418666 0.905642 0.880334 0.231179
H13   H     H_    0.884109 0.859145 0.547976 0.259923
H14   H     H_    0.398605 0.818805 0.968926 0.240890
H15   H     H_    0.375625 0.884903 0.029205 0.236190
H16   H     H_    0.445818 0.848051 0.055926 0.247402
H17   H     H_    0.581333 0.094362 0.119666 0.231364
H18   H     H_    0.601388 0.181203 0.031083 0.240875
H19   H     H_    0.554169 0.151963 0.944086 0.247343
H20   H     H_    0.624365 0.115110 0.970788 0.236127
H21   H     H_    0.039010 0.378316 0.113493 0.220179
H22   H     H_    0.116104 0.328039 0.031326 0.232389
H23   H     H_    0.118054 0.389081 0.952915 0.243277
H24   H     H_    0.867418 0.813774 0.644756 0.246784
H25   H     H_    0.053156 0.340173 0.957749 0.257362
H26   H     H_    0.960993 0.621680 0.886511 0.220141
H27   H     H_    0.883895 0.671953 0.968677 0.232380
H28   H     H_    0.946843 0.659819 0.042257 0.257391
H29   H     H_    0.881946 0.610909 0.047084 0.243329
H30   H     H_    0.918651 0.405652 0.880333 0.231365
H31   H     H_    0.898581 0.318814 0.968912 0.240873
H32   H     H_    0.875618 0.384910 0.029212 0.236127
H33   H     H_    0.945807 0.348043 0.055909 0.247342
H34   H     H_    0.081348 0.594345 0.119669 0.231180
H35   H     H_    0.779855 0.106616 0.541438 0.226119
H36   H     H_    0.101424 0.681178 0.031076 0.240891
H37   H     H_    0.054210 0.651937 0.944073 0.247401
H38   H     H_    0.124397 0.615076 0.970802 0.236189
H39   H     H_    0.866482 0.102729 0.639067 0.231820
H40   H     H_    0.870485 0.183164 0.635833 0.247274
H41   H     H_    0.885025 0.139966 0.536111 0.259912
H42   H     H_    0.221276 0.892241 0.449106 0.226227
H43   H     H_    0.137128 0.893638 0.346619 0.231860
H44   H     H_    0.116020 0.858983 0.450469 0.259898
H45   H     H_    0.394916 0.996978 0.053161 0.156217
H46   H     H_    0.132996 0.813338 0.354082 0.247284
H47   H     H_    0.721143 0.607608 0.450203 0.226344
H48   H     H_    0.636704 0.605907 0.348254 0.231962
H49   H     H_    0.632582 0.686227 0.355245 0.246783
H50   H     H_    0.615891 0.640855 0.452023 0.259922
H51   H     H_    0.279340 0.392878 0.545921 0.226243
H52   H     H_    0.364803 0.395612 0.645897 0.231943
H53   H     H_    0.384563 0.359594 0.542481 0.259940
H54   H     H_    0.368860 0.315229 0.640655 0.246815
H55   H     H_    0.278724 0.607759 0.550895 0.226226
H56   H     H_    0.105084 0.503005 0.946839 0.156216
H57   H     H_    0.362872 0.606363 0.653384 0.231859
H58   H     H_    0.367006 0.686662 0.645913 0.247284
H59   H     H_    0.383979 0.641014 0.549529 0.259896
H60   H     H_    0.720145 0.393384 0.458562 0.226119
H61   H     H_    0.633518 0.397271 0.360934 0.231820
H62   H     H_    0.614975 0.360032 0.463888 0.259913
H63   H     H_    0.629516 0.316837 0.364164 0.247274
H64   H     H_    0.630212 0.743685 0.631580 0.229090
H65   H     H_    0.607880 0.638997 0.658737 0.232467
H66   H     H_    0.682106 0.656988 0.697803 0.260673
H67   H     H_    0.894918 0.496988 0.053161 0.156206
H68   H     H_    0.671876 0.618638 0.592576 0.246118
H69   H     H_    0.368427 0.254963 0.365591 0.229083
H70   H     H_    0.390466 0.359357 0.335564 0.232390
H71   H     H_    0.327162 0.380400 0.402721 0.246205
H72   H     H_    0.315847 0.340990 0.298614 0.260727
H73   H     H_    0.370161 0.743304 0.369217 0.228039
H74   H     H_    0.392578 0.638542 0.342873 0.232317
H75   H     H_    0.318455 0.656402 0.303241 0.260143
H76   H     H_    0.328404 0.618368 0.408776 0.246382
H77   H     H_    0.633181 0.253377 0.637599 0.228120
H78   H     H_    0.220661 0.107122 0.454078 0.226243
H79   H     H_    0.611517 0.357398 0.670906 0.232245
H80   H     H_    0.674015 0.379236 0.602649 0.246512
H81   H     H_    0.686557 0.338624 0.705409 0.260151
H82   H     H_    0.131573 0.245036 0.634408 0.229083
H83   H     H_    0.109534 0.140643 0.664434 0.232390
H84   H     H_    0.184152 0.159010 0.701386 0.260726
H85   H     H_    0.172839 0.119600 0.597279 0.246205
H86   H     H_    0.869788 0.756315 0.368420 0.229090
H87   H     H_    0.892120 0.861003 0.341263 0.232467
H88   H     H_    0.828124 0.881362 0.407424 0.246119
H89   H     H_    0.135197 0.104387 0.354103 0.231942
H90   H     H_    0.817894 0.843012 0.302197 0.260674
H91   H     H_    0.866819 0.246623 0.362401 0.228119
H92   H     H_    0.888483 0.142601 0.329094 0.232245
H93   H     H_    0.813443 0.161376 0.294591 0.260151
H94   H     H_    0.825985 0.120764 0.397350 0.246512
H95   H     H_    0.129840 0.756695 0.630783 0.228039
H96   H     H_    0.107423 0.861457 0.657130 0.232317
H97   H     H_    0.171594 0.881632 0.591223 0.246382
H98   H     H_    0.181547 0.843598 0.696758 0.260144
H99   H     H_    0.670323 0.784690 0.319296 0.230100
H100  H     H_    0.131140 0.184770 0.359344 0.246815
H101  H     H_    0.731640 0.764075 0.189549 0.232859
H102  H     H_    0.720748 0.696864 0.254020 0.259076
H103  H     H_    0.790333 0.737990 0.262214 0.247278
H104  H     H_    0.331514 0.217141 0.679646 0.230034
H105  H     H_    0.271527 0.239069 0.810291 0.232770
H106  H     H_    0.212090 0.264411 0.738388 0.247262
H107  H     H_    0.281736 0.305620 0.744072 0.259077
H108  H     H_    0.329162 0.785230 0.680978 0.229712
H109  H     H_    0.267482 0.764990 0.810466 0.232058
H110  H     H_    0.278552 0.697592 0.746495 0.259638
H111  H     H_    0.115437 0.140406 0.457519 0.259940
H112  H     H_    0.208991 0.738695 0.737606 0.247222
H113  H     H_    0.666380 0.219213 0.321684 0.229691
H114  H     H_    0.724820 0.242664 0.190076 0.231944
H115  H     H_    0.785094 0.267183 0.261060 0.247196
H116  H     H_    0.715400 0.308436 0.258261 0.259668
H117  H     H_    0.168486 0.282859 0.320354 0.230035
H118  H     H_    0.228472 0.260930 0.189708 0.232771
H119  H     H_    0.218264 0.194380 0.255928 0.259077
H120  H     H_    0.287909 0.235589 0.261611 0.247262
H121  H     H_    0.829677 0.715310 0.680704 0.230101
H122  H     H_    0.778857 0.892392 0.549797 0.226344
H123  H     H_    0.768360 0.735926 0.810451 0.232860
H124  H     H_    0.709667 0.762010 0.737786 0.247277
H125  H     H_    0.779253 0.803136 0.745979 0.259076
H126  H     H_    0.833620 0.280787 0.678315 0.229692
H127  H     H_    0.775180 0.257336 0.809924 0.231943
H128  H     H_    0.784601 0.191564 0.741739 0.259668
H129  H     H_    0.714906 0.232817 0.738940 0.247196
H130  H     H_    0.170838 0.714770 0.319022 0.229713
H131  H     H_    0.232519 0.735009 0.189534 0.232058
H132  H     H_    0.291009 0.761304 0.262394 0.247222
N1    N     N_1   0.500020 0.000000 0.268010 -0.092322
N2    N     N_2   0.293368 0.354717 0.578575 -0.294205
N3    N     N_2   0.292329 0.646345 0.582833 -0.294305
N4    N     N_2   0.705728 0.355605 0.425294 -0.294417
N5    N     N_2   0.649123 0.710629 0.592718 -0.295045
N6    N     N_2   0.349912 0.288413 0.404131 -0.295148
N7    N     N_2   0.351143 0.710362 0.408175 -0.294843
N8    N     N_2   0.651243 0.287273 0.599453 -0.294950
N9    N     N_2   0.150088 0.211586 0.595869 -0.295148
N10   N     N_2   0.850877 0.789371 0.407282 -0.295046
N11   N     N_2   0.848757 0.212727 0.400547 -0.294950
N12   N     N_1   0.499980 0.000000 0.731990 -0.092333
N13   N     N_2   0.148857 0.789638 0.591826 -0.294843
N14   N     N_2   0.715833 0.778041 0.325725 -0.292499
N15   N     N_2   0.285942 0.223725 0.674098 -0.292441
N16   N     N_2   0.283670 0.778559 0.674304 -0.293583
N17   N     N_2   0.712008 0.225742 0.326211 -0.293532
N18   N     N_2   0.214057 0.276274 0.325901 -0.292441
N19   N     N_2   0.784167 0.721959 0.674275 -0.292499
N20   N     N_2   0.787992 0.274258 0.673789 -0.293533
N21   N     N_2   0.216330 0.721441 0.325696 -0.293583
N22   N     N_2   0.561718 0.901233 0.064320 -0.300046
N23   N     N_1   0.000020 0.500000 0.268010 -0.092333
N24   N     N_2   0.438279 0.098773 0.935679 -0.299954
N25   N     N_2   0.444913 0.897303 0.935669 -0.302144
N26   N     N_2   0.555083 0.102702 0.064334 -0.302054
N27   N     N_2   0.061704 0.401217 0.064320 -0.299953
N28   N     N_2   0.938298 0.598777 0.935681 -0.300046
N29   N     N_2   0.944900 0.397307 0.935664 -0.302054
N30   N     N_2   0.055103 0.602688 0.064333 -0.302145
N31   N     N_1   0.999980 0.500000 0.731990 -0.092322
N32   N     N_2   0.206632 0.145283 0.421424 -0.294206
N33   N     N_2   0.792557 0.853901 0.581896 -0.294068
N34   N     N_2   0.794272 0.144395 0.574706 -0.294417
N35   N     N_2   0.207671 0.853655 0.417167 -0.294305
N36   N     N_2   0.707443 0.646099 0.418104 -0.294068
O1    O     O_R   0.438390 0.938390 0.574460 -0.611875
O2    O     O_R   0.561600 0.061610 0.574480 -0.612964
O3    O     O_R   0.561600 0.938390 0.574480 -0.611066
O4    O     O_R   0.438400 0.061610 0.425520 -0.611142
O5    O     O_R   0.938400 0.438390 0.425520 -0.612964
O6    O     O_R   0.061600 0.561610 0.574480 -0.612912
O7    O     O_R   0.061600 0.438390 0.574480 -0.611142
O8    O     O_R   0.938400 0.561610 0.425520 -0.611066
O9    O     O_R   0.561610 0.061610 0.425540 -0.611824
O10   O     O_R   0.561610 0.938390 0.425540 -0.611711
O11   O     O_R   0.438390 0.061610 0.574460 -0.611629
O12   O     O_R   0.938390 0.438390 0.574460 -0.611824
O13   O     O_R   0.061610 0.561610 0.425540 -0.611875
O14   O     O_R   0.061610 0.438390 0.425540 -0.611629
O15   O     O_R   0.938390 0.561610 0.574460 -0.611711
O16   O     O_R   0.438400 0.938390 0.425520 -0.612911
Zn1   Zn    Zn3+2 0.500000 1.000000 0.599450 0.976083
Zn2   Zn    Zn3+2 0.500000 0.000000 0.400550 0.976068
Zn3   Zn    Zn3+2 0.000000 0.500000 0.599450 0.976069
Zn4   Zn    Zn3+2 0.000000 0.500000 0.400550 0.976083

loop_
_geom_bond_atom_site_label_1
_geom_bond_atom_site_label_2
_ccdc_geom_bond_type
C61   C70   S    
C22   N31   T    
C47   N3    S    
C12   C69   S    
C108  H128  S    
C20   C82   S    
H17   N26   S    
C27   C29   S    
C25   C80   S    
C103  N15   S    
C14   C71   S    
C96   H80   S    
C76   O7    A    
O15   Zn3   S    
C31   C62   S    
C6    H16   S    
C79   H56   S    
C48   N4    S    
C100  N11   S    
C86   H39   S    
H34   N30   S    
H30   N29   S    
C89   H50   S    
H60   N4    S    
C44   C64   S    
H126  N20   S    
C15   C72   S    
C35   N8    S    
C40   C63   S    
C5    H11   S    
C4    N22   S    
O14   Zn4   S    
C86   N34   S    
C30   C78   S    
C91   H59   S    
C88   N35   S    
C24   C26   S    
H117  N18   S    
C38   C42   S    
C66   N20   S    
C8    N27   S    
C85   H24   S    
C38   C74   S    
C19   N12   T    
C26   N24   S    
C13   C70   S    
O8    Zn4   S    
C92   H63   S    
C54   O12   A    
C37   N10   S    
C66   C74   S    
C99   H87   S    
C93   H66   S    
O10   Zn2   S    
C107  N19   S    
C105  H114  S    
C94   H70   S    
O12   Zn3   S    
C97   H85   S    
C30   C83   S    
C28   C79   S    
C75   H45   S    
C87   O8    A    
C104  H112  S    
C91   H58   S    
C67   C98   S    
C95   N7    S    
C49   C98   T    
C2    C68   S    
C9    H29   S    
C24   C80   S    
C97   H84   S    
C43   O4    A    
H69   N6    S    
C3    H3    S    
C3    N21   S    
C10   N29   S    
O9    Zn2   S    
C5    N24   S    
C87   O15   A    
N23   Zn4   S    
C106  H118  S    
C85   H13   S    
C65   O6    A    
H12   N25   S    
C7    H20   S    
C2    C50   T    
C11   H36   S    
C34   C70   S    
H51   N2    S    
C76   O14   A    
H21   N27   S    
C102  H101  S    
C33   C63   S    
C3    H132  S    
C27   C78   S    
C54   O5    A    
C39   C73   S    
C100  H94   S    
C107  H125  S    
C108  H127  S    
H108  N16   S    
C104  H110  S    
C36   N9    S    
C107  H124  S    
C46   C58   S    
C59   N14   S    
C90   H52   S    
C33   C46   S    
C88   H44   S    
C96   H79   S    
O6    Zn3   S    
C10   H32   S    
C6    H15   S    
C6    N25   S    
C99   N10   S    
H113  N17   S    
C35   C48   S    
C101  H97   S    
C93   H65   S    
C91   H57   S    
C48   C60   S    
C41   C68   S    
C43   O11   A    
C40   N32   S    
H26   N28   S    
C31   C68   S    
C39   C61   S    
C9    N28   S    
O11   Zn1   S    
O13   Zn4   S    
C28   N30   S    
C107  H123  S    
C84   N32   S    
C90   H53   S    
C28   C82   S    
C16   C73   S    
C48   C74   S    
C4    H5    S    
C36   C40   S    
C60   C69   S    
H42   N35   S    
C47   C73   S    
C85   H2    S    
C63   N18   S    
C92   H62   S    
N1    Zn2   S    
C64   N21   S    
C43   C49   S    
C89   H48   S    
C97   N9    S    
C35   C66   S    
C105  H115  S    
O2    Zn1   S    
C99   H88   S    
C23   N25   S    
H82   N9    S    
N12   Zn1   S    
C1    O16   A    
C5    H9    S    
C102  N14   S    
C10   H33   S    
C88   H46   S    
C96   H81   S    
C7    N26   S    
C101  N13   S    
C16   C56   T    
C1    O1    A    
H8    N24   S    
C84   H111  S    
C59   C68   S    
H35   N34   S    
C13   C52   T    
C100  H93   S    
C84   H100  S    
O4    Zn2   S    
C38   N11   S    
C29   C79   S    
C77   C81   S    
C92   H61   S    
C64   C73   S    
C32   C50   S    
C44   N35   S    
C8    H23   S    
C34   C64   S    
C26   C75   S    
C58   N15   S    
C53   C87   S    
C94   H72   S    
C63   C72   S    
C77   H1    S    
C92   N4    S    
C94   N6    S    
C103  H106  S    
N31   Zn3   S    
H86   N10   S    
C37   C59   S    
C32   O3    A    
C93   N5    S    
H4    N22   S    
H77   N8    S    
C38   C60   S    
C55   C76   S    
C9    H27   S    
C18   N1    T    
H91   N11   S    
O5    Zn4   S    
C27   N29   S    
C91   N3    S    
C26   C81   S    
C37   C71   S    
H122  N33   S    
C8    H22   S    
C17   C74   S    
C29   N27   S    
C11   N30   S    
C25   C77   S    
C90   H54   S    
C30   N28   S    
C10   H31   S    
C6    H14   S    
C19   C81   S    
C90   N2    S    
C45   N36   S    
C36   C58   S    
C100  H92   S    
C21   C51   S    
C12   C51   T    
C41   N33   S    
C44   C70   S    
C33   C67   S    
C106  N18   S    
C75   C80   S    
C65   O13   A    
C103  H105  S    
C45   C59   S    
C105  N17   S    
C103  H107  S    
C23   C81   S    
C60   N17   S    
C24   N26   S    
C8    H25   S    
C4    H7    S    
C46   C72   S    
H99   N14   S    
C40   C67   S    
C11   H37   S    
C33   N6    S    
C34   N7    S    
C23   C75   S    
H47   N36   S    
C78   C82   S    
C101  H96   S    
C86   H40   S    
C47   C61   S    
C41   C62   S    
H73   N7    S    
C11   H38   S    
C89   H49   S    
C39   C44   S    
C39   N13   S    
C56   C65   S    
C84   H89   S    
C61   N16   S    
C105  H116  S    
C42   C69   S    
C93   H68   S    
C32   O10   A    
C104  N16   S    
C5    H10   S    
C22   C83   S    
H104  N15   S    
C28   C30   S    
C95   H76   S    
C102  H102  S    
C29   C82   S    
C20   N23   T    
O3    Zn1   S    
C21   O2    A    
C79   C83   S    
C25   N22   S    
H121  N19   S    
C95   H75   S    
C78   H67   S    
H64   N5    S    
C89   N36   S    
C86   H41   S    
C99   H90   S    
O16   Zn2   S    
H55   N3    S    
C88   H43   S    
C85   N33   S    
C62   C71   S    
C106  H120  S    
C94   H71   S    
C23   C25   S    
C7    H18   S    
C37   C41   S    
C102  H103  S    
C1    C52   S    
C104  H109  S    
C108  N20   S    
C101  H98   S    
C4    H6    S    
C27   C83   S    
C42   N34   S    
C9    H28   S    
H78   N32   S    
C58   C67   S    
C97   H83   S    
C14   C53   T    
O1    Zn1   S    
C108  H129  S    
C35   C69   S    
C18   C80   S    
O7    Zn3   S    
C31   C45   S    
C3    H131  S    
C24   C77   S    
C42   C66   S    
C46   N2    S    
C106  H119  S    
C31   N5    S    
H130  N21   S    
C45   C71   S    
C34   C47   S    
C7    H19   S    
C17   C57   T    
C21   O9    A    
C62   N19   S    
C96   N8    S    
C95   H74   S    
C36   C72   S    
C15   C55   T    
H95   N13   S    
C54   C57   S    
