data_mof_unit_47836.cif
_audit_creation_date              2012-10-26T17:11:11-0400
_audit_creation_method            fapswitch 2.2
_symmetry_space_group_name_H-M    P1
_symmetry_Int_Tables_number       1
_space_group_crystal_system       triclinic
_cell_length_a                    27.946871
_cell_length_b                    18.758462
_cell_length_c                    16.830114
_cell_angle_alpha                 89.999432
_cell_angle_beta                  62.667083
_cell_angle_gamma                 89.838706
_cell_volume                      7837.92606846

loop_
_atom_site_label
_atom_site_type_symbol
_atom_type_description
_atom_site_fract_x
_atom_site_fract_y
_atom_site_fract_z
_atom_type_partial_charge
C1    C     C_R   0.295065 0.728415 0.329575 0.807834
C2    C     C_R   0.704380 0.270457 0.670756 0.838716
C3    C     C_R   0.704031 0.730217 0.670903 0.841912
C4    C     C_R   0.295116 0.271512 0.329630 0.831072
C5    C     C_R   0.796054 0.230438 0.329051 0.836504
C6    C     C_R   0.204288 0.770299 0.670752 0.880185
C7    C     C_R   0.205102 0.228073 0.670253 0.820352
C8    C     C_R   0.794862 0.771955 0.329660 0.808146
C9    C     C_R   0.523965 0.883813 0.584849 -0.257125
C10   C     C_R   0.475415 0.116730 0.417951 -0.253715
C11   C     C_R   0.419361 0.895696 0.582741 -0.285527
C12   C     C_R   0.579923 0.105727 0.421613 -0.257343
C13   C     C_R   0.031626 0.372127 0.571546 -0.265364
C14   C     C_R   0.929614 0.627197 0.557420 -0.267506
C15   C     C_R   0.928619 0.374481 0.564065 -0.288678
C16   C     C_R   0.030767 0.628860 0.572564 -0.257533
C17   C     C_R   0.218765 0.764076 0.955020 0.121188
C18   C     C_R   0.781505 0.236504 0.044757 0.123470
C19   C     C_R   0.775889 0.774077 0.048799 0.110772
C20   C     C_R   0.221204 0.232274 0.952821 0.106538
C21   C     C_R   0.721019 0.268117 0.953489 0.117852
C22   C     C_R   0.278372 0.730635 0.047026 0.110706
C23   C     C_R   0.279467 0.266467 0.046758 0.108435
C24   C     C_R   0.715366 0.741495 0.957823 0.115476
C25   C     C_R   0.239307 0.695017 0.950447 -0.166110
C26   C     C_R   0.761017 0.305441 0.048265 -0.163698
C27   C     C_R   0.755270 0.705278 0.053265 -0.171924
C28   C     C_R   0.277742 0.228064 0.910362 -0.172181
C29   C     C_R   0.741499 0.199199 0.949996 -0.165824
C30   C     C_R   0.257886 0.799683 0.051526 -0.177024
C31   C     C_R   0.222931 0.270662 0.089217 -0.175989
C32   C     C_R   0.736071 0.810349 0.953186 -0.158221
C33   C     C_R   0.268791 0.678426 0.996122 -0.167988
C34   C     C_R   0.731155 0.321132 0.002919 -0.150710
C35   C     C_R   0.725506 0.689101 0.008057 -0.168873
C36   C     C_R   0.306602 0.245098 0.956866 -0.174182
C37   C     C_R   0.771296 0.183493 0.995394 -0.157941
C38   C     C_R   0.228498 0.816300 0.005761 -0.158446
C39   C     C_R   0.194074 0.253642 0.042714 -0.176518
C40   C     C_R   0.766016 0.826500 0.998309 -0.165703
C41   C     C_R   0.142946 0.826944 0.944929 -0.204607
C42   C     C_R   0.857521 0.174032 0.054749 -0.204085
C43   C     C_R   0.853485 0.833311 0.057398 -0.193893
C44   C     C_R   0.144789 0.170154 0.943754 -0.196773
C45   C     C_R   0.644262 0.329136 0.944152 -0.197840
C46   C     C_R   0.355242 0.669922 0.056194 -0.195427
C47   C     C_R   0.355698 0.328986 0.055933 -0.202045
C48   C     C_R   0.640625 0.676815 0.946561 -0.199392
C49   C     C_R   0.116915 0.850458 0.895587 -0.059881
C50   C     C_R   0.883614 0.150545 0.104012 -0.061284
C51   C     C_R   0.881372 0.853201 0.105293 -0.058959
C52   C     C_R   0.118017 0.147816 0.894975 -0.055389
C53   C     C_R   0.617417 0.351156 0.895431 -0.056117
C54   C     C_R   0.382226 0.648207 0.104809 -0.059911
C55   C     C_R   0.382358 0.351570 0.104792 -0.061400
C56   C     C_R   0.615980 0.650976 0.896138 -0.058091
C57   C     C_R   0.135527 0.828217 0.807273 -0.192620
C58   C     C_R   0.865390 0.173513 0.192022 -0.225651
C59   C     C_R   0.863358 0.829715 0.192943 -0.221336
C60   C     C_R   0.136722 0.169795 0.806590 -0.235263
C61   C     C_R   0.635636 0.328161 0.807507 -0.223184
C62   C     C_R   0.363808 0.670863 0.192878 -0.229188
C63   C     C_R   0.363772 0.329383 0.193118 -0.211190
C64   C     C_R   0.635139 0.672376 0.807371 -0.214372
C65   C     C_R   0.180729 0.784348 0.767011 -0.014782
C66   C     C_R   0.820347 0.217785 0.232240 -0.084550
C67   C     C_R   0.816951 0.788447 0.234196 -0.059234
C68   C     C_R   0.182557 0.212177 0.765754 -0.065804
C69   C     C_R   0.681218 0.285015 0.766924 -0.040857
C70   C     C_R   0.317653 0.712899 0.233901 -0.062193
C71   C     C_R   0.317960 0.286928 0.233949 -0.043608
C72   C     C_R   0.679258 0.717999 0.767922 -0.075228
C73   C     C_R   0.206228 0.759981 0.817086 -0.132685
C74   C     C_R   0.794913 0.242304 0.182016 -0.179022
C75   C     C_R   0.789235 0.768476 0.185961 -0.194199
C76   C     C_R   0.209058 0.234621 0.814776 -0.189762
C77   C     C_R   0.707518 0.262057 0.816432 -0.127866
C78   C     C_R   0.290674 0.734624 0.185075 -0.199316
C79   C     C_R   0.291597 0.264237 0.184807 -0.199164
C80   C     C_R   0.702774 0.745470 0.819602 -0.205571
C81   C     C_R   0.188179 0.782442 0.905699 0.061537
C82   C     C_R   0.812554 0.219060 0.093705 0.059859
C83   C     C_R   0.807082 0.791286 0.097541 0.070025
C84   C     C_R   0.190700 0.213192 0.903685 0.071821
C85   C     C_R   0.689851 0.285282 0.904699 0.061321
C86   C     C_R   0.309068 0.712653 0.096216 0.069577
C87   C     C_R   0.309948 0.285654 0.095894 0.070664
C88   C     C_R   0.684810 0.722999 0.908291 0.060255
C89   C     C_R   0.195896 0.632144 0.531597 0.818070
C90   C     C_R   0.800671 0.368791 0.482564 0.819690
C91   C     C_R   0.800996 0.631153 0.481484 0.821331
C92   C     C_R   0.195911 0.367958 0.531514 0.817053
C93   C     C_R   0.699468 0.130447 0.518355 0.822571
C94   C     C_R   0.300379 0.869538 0.482355 0.825263
C95   C     C_R   0.304245 0.132226 0.468876 0.841856
C96   C     C_R   0.695626 0.867678 0.531720 0.834446
C97   C     C_R   0.926300 0.903432 0.066747 0.806429
C98   C     C_R   0.073598 0.096743 0.933316 0.808167
C99   C     C_R   0.073291 0.902818 0.933518 0.811001
C100  C     C_R   0.926830 0.097422 0.066390 0.807818
C101  C     C_R   0.426509 0.403091 0.066608 0.802710
C102  C     C_R   0.573151 0.597419 0.933594 0.809776
C103  C     C_R   0.573410 0.402973 0.933460 0.811808
C104  C     C_R   0.426567 0.596964 0.066547 0.805314
C105  C     C_R   0.035230 0.500573 0.555100 0.027845
C106  C     C_R   0.940505 0.500199 0.533014 0.026537
C107  C     C_R   0.547947 0.998570 0.510611 0.032407
C108  C     C_R   0.451087 0.002497 0.493442 0.034450
C109  C     C_R   0.009850 0.566032 0.554424 0.035978
C110  C     C_R   0.961510 0.435240 0.546334 0.064924
C111  C     C_R   0.961852 0.565780 0.544007 0.032079
C112  C     C_R   0.009967 0.435113 0.555032 0.033857
C113  C     C_R   0.537838 0.056271 0.465571 0.032050
C114  C     C_R   0.461181 0.945179 0.538825 0.061000
C115  C     C_R   0.488502 0.059127 0.458848 0.028694
C116  C     C_R   0.510581 0.942011 0.545089 0.032682
C117  C     C_R   0.108693 0.435377 0.566378 -0.005548
C118  C     C_R   0.868262 0.563824 0.517276 -0.001677
C119  C     C_R   0.867403 0.435764 0.520270 0.026534
C120  C     C_R   0.108504 0.565587 0.566559 -0.009261
C121  C     C_R   0.610214 0.936546 0.555499 -0.015473
C122  C     C_R   0.389250 0.063591 0.447013 -0.024334
C123  C     C_R   0.366845 0.944840 0.513050 0.013000
C124  C     C_R   0.632425 0.055130 0.490132 -0.008443
C125  C     C_R   0.162318 0.434823 0.556360 -0.124952
C126  C     C_R   0.828071 0.564327 0.486430 -0.120936
C127  C     C_R   0.827490 0.435275 0.488349 -0.132076
C128  C     C_R   0.162209 0.565684 0.556541 -0.134871
C129  C     C_R   0.662357 0.934376 0.551851 -0.108708
C130  C     C_R   0.337344 0.065512 0.449851 -0.121766
C131  C     C_R   0.326986 0.938679 0.481796 -0.144837
C132  C     C_R   0.672616 0.061224 0.520350 -0.126915
C133  C     C_R   0.185960 0.500172 0.561661 -0.102994
C134  C     C_R   0.813995 0.499704 0.460505 -0.096586
C135  C     C_R   0.686349 0.999407 0.553891 -0.089425
C136  C     C_R   0.313442 0.000459 0.447872 -0.095815
C137  C     C_R   0.084858 0.500532 0.560592 0.045266
C138  C     C_R   0.894072 0.499769 0.517996 0.049763
C139  C     C_R   0.596372 0.997024 0.519865 0.042204
C140  C     C_R   0.402760 0.003456 0.483718 0.051661
C141  C     C_R   0.571544 0.881794 0.593756 -0.010423
C142  C     C_R   0.428096 0.118293 0.408316 -0.010800
C143  C     C_R   0.372277 0.896139 0.572763 -0.086370
C144  C     C_R   0.627822 0.102822 0.429208 -0.002089
C145  C     C_R   0.075944 0.373778 0.588733 -0.013652
C146  C     C_R   0.879392 0.622513 0.558423 -0.002313
C147  C     C_R   0.879231 0.377279 0.561814 -0.089173
C148  C     C_R   0.075356 0.627321 0.589241 -0.009581
Cu1   Cu    Cu3+1 0.209920 0.785290 0.495070 0.984772
Cu2   Cu    Cu3+1 0.790080 0.214710 0.504930 0.968869
Cu3   Cu    Cu3+1 0.790080 0.785290 0.504930 0.987919
Cu4   Cu    Cu3+1 0.209920 0.214710 0.495070 0.988535
Cu5   Cu    Cu3+1 0.709920 0.285290 0.495070 0.981979
Cu6   Cu    Cu3+1 0.290080 0.714710 0.504930 0.968987
Cu7   Cu    Cu3+1 0.290080 0.285290 0.504930 0.981078
Cu8   Cu    Cu3+1 0.709920 0.714710 0.495070 0.987852
Cu9   Cu    Cu3+1 0.495240 0.500000 0.924150 0.955153
Cu10  Cu    Cu3+1 0.504760 0.500000 0.075850 0.942016
Cu11  Cu    Cu3+1 0.995240 0.000000 0.924150 0.960553
Cu12  Cu    Cu3+1 0.004760 0.000000 0.075850 0.939610
H1    H     H_    0.497425 0.838892 0.611360 0.170194
H2    H     H_    0.502107 0.161423 0.390938 0.180033
H3    H     H_    0.420329 0.859745 0.631837 0.147559
H4    H     H_    0.578966 0.142720 0.373427 0.172114
H5    H     H_    0.012696 0.321129 0.578115 0.172118
H6    H     H_    0.937504 0.676068 0.582663 0.172267
H7    H     H_    0.935980 0.327871 0.594019 0.144677
H8    H     H_    0.010829 0.679452 0.581271 0.181128
H9    H     H_    0.214114 0.870408 0.008902 0.133871
H10   H     H_    0.785621 0.129453 0.993068 0.127799
H11   H     H_    0.780784 0.880310 0.994818 0.128900
H12   H     H_    0.150573 0.258094 0.076659 0.132216
H13   H     H_    0.716684 0.375107 0.005371 0.132189
H14   H     H_    0.283388 0.624413 0.992795 0.129931
H15   H     H_    0.350105 0.240686 0.922923 0.134551
H16   H     H_    0.711273 0.635048 0.011074 0.131429
H17   H     H_    0.231967 0.653648 0.912509 0.124583
H18   H     H_    0.768696 0.347406 0.085102 0.125130
H19   H     H_    0.762907 0.663643 0.090633 0.129574
H20   H     H_    0.299622 0.210465 0.841546 0.136421
H21   H     H_    0.733795 0.157213 0.913209 0.123301
H22   H     H_    0.265260 0.841055 0.089437 0.128928
H23   H     H_    0.201049 0.288274 0.158028 0.132634
H24   H     H_    0.728620 0.851857 0.915468 0.128570
H25   H     H_    0.128764 0.844383 0.013450 0.148873
H26   H     H_    0.871340 0.155959 0.986556 0.154943
H27   H     H_    0.867276 0.851406 0.989266 0.152621
H28   H     H_    0.131379 0.151693 0.011647 0.147541
H29   H     H_    0.630440 0.347246 0.012333 0.151580
H30   H     H_    0.369441 0.652502 0.987658 0.153538
H31   H     H_    0.369036 0.347516 0.988085 0.148618
H32   H     H_    0.626324 0.659640 0.015157 0.148245
H33   H     H_    0.116216 0.847709 0.768490 0.164630
H34   H     H_    0.884614 0.153847 0.230866 0.177632
H35   H     H_    0.884330 0.845972 0.230384 0.174073
H36   H     H_    0.116690 0.151708 0.768376 0.187210
H37   H     H_    0.615676 0.346502 0.769221 0.173897
H38   H     H_    0.384152 0.653224 0.230853 0.174310
H39   H     H_    0.383705 0.347663 0.231400 0.167472
H40   H     H_    0.617191 0.650810 0.767577 0.187541
H41   H     H_    0.241778 0.726624 0.785911 0.180794
H42   H     H_    0.759233 0.275463 0.213338 0.183649
H43   H     H_    0.752455 0.737786 0.218241 0.150517
H44   H     H_    0.244603 0.267759 0.783437 0.149188
H45   H     H_    0.743528 0.229546 0.784881 0.184097
H46   H     H_    0.254022 0.765904 0.217174 0.151364
H47   H     H_    0.256100 0.231008 0.216108 0.150091
H48   H     H_    0.737836 0.779477 0.788730 0.181855
O1    O     O_R   0.255040 0.869590 0.478480 -0.582933
O2    O     O_R   0.744960 0.130410 0.521520 -0.584191
O3    O     O_R   0.744960 0.869590 0.521520 -0.590077
O4    O     O_R   0.255040 0.130410 0.478480 -0.589980
O5    O     O_R   0.755040 0.369590 0.478480 -0.583822
O6    O     O_R   0.244960 0.630410 0.521520 -0.590809
O7    O     O_R   0.244960 0.369590 0.521520 -0.588954
O8    O     O_R   0.755040 0.630410 0.478480 -0.583813
O9    O     O_R   0.182050 0.796550 0.624440 -0.591268
O10   O     O_R   0.817950 0.203450 0.375560 -0.595548
O11   O     O_R   0.817950 0.796550 0.375560 -0.592378
O12   O     O_R   0.182050 0.203450 0.624440 -0.573781
O13   O     O_R   0.682050 0.296550 0.624440 -0.600769
O14   O     O_R   0.317950 0.703450 0.375560 -0.594291
O15   O     O_R   0.317950 0.296550 0.375560 -0.586627
O16   O     O_R   0.682050 0.703450 0.624440 -0.580128
O17   O     O_R   0.250530 0.763330 0.367210 -0.585903
O18   O     O_R   0.749470 0.236670 0.632790 -0.549615
O19   O     O_R   0.749470 0.763330 0.632790 -0.562218
O20   O     O_R   0.250530 0.236670 0.367210 -0.593965
O21   O     O_R   0.750530 0.263330 0.367210 -0.562527
O22   O     O_R   0.249470 0.736670 0.632790 -0.563106
O23   O     O_R   0.249470 0.263330 0.632790 -0.589507
O24   O     O_R   0.750530 0.736670 0.367210 -0.588551
O25   O     O_R   0.177260 0.690030 0.513710 -0.582005
O26   O     O_R   0.822740 0.309970 0.486290 -0.606796
O27   O     O_R   0.822740 0.690030 0.486290 -0.594889
O28   O     O_R   0.177260 0.309970 0.513710 -0.584398
O29   O     O_R   0.677260 0.190030 0.513710 -0.588345
O30   O     O_R   0.322740 0.809970 0.486290 -0.594080
O31   O     O_R   0.322740 0.190030 0.486290 -0.581408
O32   O     O_R   0.677260 0.809970 0.513710 -0.583010
O33   O     O_R   0.051640 0.926880 0.885090 -0.588081
O34   O     O_R   0.948360 0.073120 0.114910 -0.590618
O35   O     O_R   0.948360 0.926880 0.114910 -0.589346
O36   O     O_R   0.051640 0.073120 0.885090 -0.581610
O37   O     O_R   0.551640 0.426880 0.885090 -0.588322
O38   O     O_R   0.448360 0.573120 0.114910 -0.591535
O39   O     O_R   0.448360 0.426880 0.114910 -0.590352
O40   O     O_R   0.551640 0.573120 0.885090 -0.581141
O41   O     O_R   0.940620 0.926560 0.986760 -0.591253
O42   O     O_R   0.059380 0.073440 0.013240 -0.594821
O43   O     O_R   0.059380 0.926560 0.013240 -0.593129
O44   O     O_R   0.940620 0.073440 0.986760 -0.589406
O45   O     O_R   0.440620 0.426560 0.986760 -0.593159
O46   O     O_R   0.559380 0.573440 0.013240 -0.593700
O47   O     O_R   0.559380 0.426560 0.013240 -0.591247
O48   O     O_R   0.440620 0.573440 0.986760 -0.589319
C149  C     C_R   0.228705 0.500143 0.591424 0.166049
C150  C     C_R   0.283897 0.499745 0.529616 -0.014239
C151  C     C_R   0.322900 0.500413 0.559779 -0.150064
C152  C     C_R   0.307295 0.501596 0.651455 -0.120775
C153  C     C_R   0.252665 0.502061 0.713152 -0.150268
C154  C     C_R   0.213488 0.501315 0.683354 -0.123009
H49   H     H_    0.296378 0.499060 0.458422 0.112821
H50   H     H_    0.365218 0.500115 0.512077 0.118209
H51   H     H_    0.337539 0.502198 0.674701 0.129398
H52   H     H_    0.240666 0.503067 0.784120 0.131832
H53   H     H_    0.171273 0.501800 0.731815 0.151326
C155  C     C_R   0.791590 0.499391 0.395318 0.123021
C156  C     C_R   0.735708 0.500067 0.423663 -0.002014
C157  C     C_R   0.716029 0.499098 0.360837 -0.148988
C158  C     C_R   0.751810 0.497379 0.269479 -0.124323
C159  C     C_R   0.807329 0.496674 0.240804 -0.135140
C160  C     C_R   0.827192 0.497682 0.303404 -0.180628
H54   H     H_    0.707616 0.501131 0.494324 0.129363
H55   H     H_    0.673037 0.499574 0.382990 0.119541
H56   H     H_    0.736526 0.496547 0.220908 0.122779
H57   H     H_    0.834991 0.495284 0.170030 0.136098
H58   H     H_    0.870308 0.496994 0.280359 0.131792
C161  C     C_R   0.718511 0.002703 0.604024 0.142864
C162  C     C_R   0.775210 0.001201 0.559669 -0.014636
C163  C     C_R   0.804256 0.003803 0.608633 -0.144399
C164  C     C_R   0.777077 0.007619 0.701963 -0.107858
C165  C     C_R   0.720803 0.008702 0.746506 -0.153267
C166  C     C_R   0.691583 0.006102 0.697822 -0.144614
H59   H     H_    0.796664 0.998313 0.487348 0.127996
H60   H     H_    0.847837 0.002865 0.574215 0.118639
H61   H     H_    0.799612 0.009656 0.739783 0.128626
H62   H     H_    0.699817 0.011521 0.818796 0.131317
H63   H     H_    0.647974 0.006855 0.733102 0.148332
C167  C     C_R   0.281698 0.996978 0.397021 0.144465
C168  C     C_R   0.224997 0.998958 0.440666 -0.010036
C169  C     C_R   0.196336 0.995636 0.391119 -0.153885
C170  C     C_R   0.223899 0.990474 0.297920 -0.125852
C171  C     C_R   0.280173 0.988793 0.254086 -0.137447
C172  C     C_R   0.309014 0.992195 0.303346 -0.140447
H64   H     H_    0.203244 0.002648 0.512904 0.127788
H65   H     H_    0.152756 0.996960 0.424994 0.122187
H66   H     H_    0.201658 0.987799 0.259654 0.126676
H67   H     H_    0.301454 0.984837 0.181902 0.135429
H68   H     H_    0.352625 0.990867 0.268626 0.144464
C173  C     C_2   0.575033 0.828090 0.655954 0.867708
O49   O     O_2   0.555829 0.768665 0.661546 -0.603693
O50   O     O_R   0.598533 0.846460 0.710697 -0.793419
H69   H     H_    0.596586 0.806500 0.752564 0.326409
C174  C     C_2   0.424972 0.172421 0.346113 0.871155
O51   O     O_2   0.403704 0.157626 0.298884 -0.626237
O52   O     O_R   0.447856 0.239756 0.339579 -0.769746
H70   H     H_    0.443445 0.271601 0.294679 0.329992
C175  C     C_2   0.325564 0.856476 0.640685 0.895814
O53   O     O_2   0.281382 0.885179 0.676240 -0.592969
O54   O     O_R   0.331477 0.788037 0.668092 -0.744363
H71   H     H_    0.368043 0.765988 0.629444 0.286340
C176  C     C_2   0.676749 0.132963 0.354910 0.857505
O55   O     O_2   0.674351 0.188265 0.318411 -0.606632
O56   O     O_R   0.724727 0.093849 0.321642 -0.785279
H72   H     H_    0.752604 0.111352 0.261311 0.330964
C177  C     C_2   0.078530 0.318280 0.649966 0.888736
O57   O     O_2   0.062063 0.257944 0.649751 -0.607642
O58   O     O_R   0.098067 0.336128 0.710412 -0.783641
H73   H     H_    0.095349 0.295231 0.751562 0.325500
C178  C     C_2   0.834125 0.656374 0.635931 0.884058
O59   O     O_2   0.838939 0.715669 0.661613 -0.605083
O60   O     O_R   0.787628 0.616338 0.684835 -0.772352
H74   H     H_    0.764968 0.636065 0.746827 0.332170
C179  C     C_2   0.835529 0.334256 0.630970 0.924384
O61   O     O_2   0.792648 0.362985 0.679276 -0.577159
O62   O     O_R   0.843107 0.262516 0.645200 -0.742295
H75   H     H_    0.877745 0.241663 0.596955 0.279009
C180  C     C_2   0.078344 0.684390 0.648431 0.886413
O63   O     O_2   0.096600 0.671026 0.700398 -0.630079
O64   O     O_R   0.058833 0.752825 0.646680 -0.771886
H76   H     H_    0.062602 0.786484 0.690595 0.328639

loop_
_geom_bond_atom_site_label_1
_geom_bond_atom_site_label_2
_ccdc_geom_bond_type
C51   C97   S    
Cu3   O19   S    
Cu9   Cu10  S    
C168  C169  A    
Cu5   O21   S    
Cu5   O5    S    
C173  O49   D    
C141  C173  S    
C58   C66   A    
C164  C165  A    
C3    O16   A    
C95   O4    A    
C148  C180  S    
C13   C112  A    
C158  C159  A    
C62   C70   A    
C162  H59   S    
C107  C113  A    
C7    C68   S    
C159  C160  A    
Cu8   O8    S    
C98   O36   A    
C10   H2    S    
C96   O3    A    
C79   C87   A    
C146  C178  S    
C30   H22   S    
C169  H65   S    
C73   C81   A    
C16   C109  A    
O60   H74   S    
C142  C174  S    
C99   O43   A    
C61   H37   S    
C97   O41   A    
C20   C28   A    
C145  C177  S    
Cu2   O26   S    
C21   C29   A    
C92   O28   A    
C2    O13   A    
C23   C31   A    
Cu6   O14   S    
C101  O45   A    
C24   C32   A    
C77   H45   S    
C6    O9    A    
C27   C35   A    
O50   H69   S    
C43   H27   S    
Cu1   O9    S    
C28   H20   S    
C105  C112  A    
C63   C71   A    
C120  C148  A    
C64   H40   S    
Cu3   O11   S    
Cu11  O36   S    
C100  O34   A    
C2    O18   A    
C38   H9    S    
C163  H60   S    
C165  H62   S    
C9    C116  A    
C1    C70   S    
Cu1   O1    S    
Cu4   O28   S    
C50   C100  S    
C160  H58   S    
C17   C25   A    
C3    C72   S    
C153  H52   S    
C80   C88   A    
C79   H47   S    
C52   C98   S    
C18   C82   S    
Cu9   O40   S    
C147  C179  S    
C126  C134  A    
C36   H15   S    
C23   C36   A    
Cu12  O34   S    
C118  C138  A    
C11   C143  A    
C40   H11   S    
C89   O6    A    
C113  C115  A    
C43   C83   A    
C124  C139  A    
C69   C77   A    
C127  C134  A    
C13   C145  A    
C43   C51   A    
C92   C125  S    
C71   C79   A    
C30   C38   A    
C103  O37   A    
C156  H54   S    
Cu2   O2    S    
C108  C115  A    
C109  C111  A    
C153  C154  A    
C176  O56   S    
C66   C74   A    
C91   O27   A    
C49   C57   A    
C124  C132  A    
C92   O7    A    
C149  C150  A    
C89   O25   A    
C170  H66   S    
C179  O62   S    
C52   C60   A    
C59   C67   A    
C129  C135  A    
C53   C61   A    
C93   O29   A    
C174  O52   S    
C55   C63   A    
C95   C130  S    
C56   C64   A    
C14   H6    S    
C93   C132  S    
C44   C52   A    
C22   C86   S    
C45   C53   A    
C164  H61   S    
C180  O64   S    
C15   H7    S    
C19   C83   S    
C106  C111  A    
C175  O54   S    
C158  H56   S    
C162  C163  A    
Cu11  O41   S    
C131  C136  A    
C154  H53   S    
C75   H43   S    
Cu1   O25   S    
C47   C87   A    
Cu10  O46   S    
C170  C171  A    
C49   C99   S    
Cu8   O24   S    
C90   C127  S    
Cu3   O27   S    
C11   H3    S    
C9    H1    S    
C33   H14   S    
C60   C68   A    
C42   C50   A    
C7    O12   A    
C80   H48   S    
C178  O59   D    
C104  O38   A    
C6    O22   A    
C67   C75   A    
Cu10  O39   S    
C105  C109  A    
C22   C30   A    
C119  C138  A    
C157  H55   S    
C152  C153  A    
C114  C116  A    
C68   C76   A    
C4    O15   A    
Cu6   O30   S    
Cu8   O16   S    
C121  C139  A    
C20   C84   S    
C150  C151  A    
C56   C102  S    
C171  H67   S    
C72   C80   A    
C8    O11   A    
C136  C167  S    
C17   C38   A    
C4    C71   S    
C107  C139  A    
C110  C112  A    
C107  C116  A    
C19   C40   A    
C105  C137  A    
C8    C67   S    
C165  C166  A    
C96   C129  S    
C117  C125  A    
C25   C33   A    
C119  C127  A    
Cu2   O18   S    
C103  O47   A    
C18   C26   A    
Cu6   O6    S    
C76   C84   A    
C7    O23   A    
C135  C161  S    
C54   C104  S    
C27   H19   S    
C171  C172  A    
C25   H17   S    
C119  C147  A    
C117  C145  A    
C167  C168  A    
C10   C142  A    
C108  C114  A    
C177  O58   S    
Cu7   O15   S    
C6    C65   S    
Cu2   Cu5   S    
C161  C162  A    
C48   C88   A    
C133  C149  S    
Cu4   O4    S    
Cu7   O31   S    
O56   H72   S    
C156  C157  A    
C96   O32   A    
C15   C110  A    
C74   C82   A    
C143  C175  S    
C173  O50   S    
C134  C155  S    
C21   C85   S    
O52   H70   S    
C50   C58   A    
C121  C141  A    
C151  H50   S    
Cu9   O48   S    
C98   O42   A    
C20   C39   A    
C5    C66   S    
C21   C34   A    
C74   H42   S    
C58   H34   S    
C149  C154  A    
C1    O14   A    
C102  O46   A    
Cu1   Cu6   S    
C78   H46   S    
Cu5   O13   S    
C91   O8    A    
C12   H4    S    
C13   H5    S    
Cu11  Cu12  S    
Cu4   Cu7   S    
C41   C81   A    
C46   C54   A    
Cu3   Cu8   S    
Cu7   O7    S    
C24   C88   S    
Cu3   O3    S    
C166  H63   S    
C101  O39   A    
C3    O19   A    
C1    O17   A    
C55   C101  S    
C123  C131  A    
C121  C129  A    
C44   C84   A    
C120  C128  A    
C172  H68   S    
C41   C49   A    
C54   C62   A    
C94   C131  S    
C59   H35   S    
C168  H64   S    
O62   H75   S    
C34   H13   S    
C15   C147  A    
C75   C83   A    
C176  O55   D    
C73   H41   S    
C53   C103  S    
C17   C81   S    
C4    O20   A    
C47   H31   S    
C179  O61   D    
C48   H32   S    
Cu12  O43   S    
C122  C140  A    
O58   H73   S    
C155  C156  A    
C28   C36   A    
C174  O51   D    
C29   C37   A    
C157  C158  A    
C120  C137  A    
C152  H51   S    
Cu11  O33   S    
C90   O5    A    
C89   C128  S    
O54   H71   S    
C159  H57   S    
C91   C126  S    
C70   C78   A    
Cu1   O17   S    
C180  O63   D    
C150  H49   S    
C42   C82   A    
O64   H76   S    
C175  O53   D    
Cu8   O32   S    
C39   H12   S    
C29   H21   S    
C35   H16   S    
C169  C170  A    
C18   C37   A    
Cu11  O44   S    
C144  C176  S    
C106  C138  A    
C65   C73   A    
C90   O26   A    
C11   C114  A    
Cu10  O47   S    
Cu4   O20   S    
C94   O30   A    
C5    O10   A    
C63   H39   S    
C178  O60   S    
C155  C160  A    
C19   C27   A    
C78   C86   A    
C32   C40   A    
C23   C87   S    
Cu6   O22   S    
C46   H30   S    
C26   C34   A    
C26   H18   S    
C14   C111  A    
C24   C35   A    
C167  C172  A    
Cu12  O42   S    
C118  C146  A    
C102  O40   A    
C62   H38   S    
C37   H10   S    
C108  C140  A    
C9    C141  A    
C95   O31   A    
C163  C164  A    
C161  C166  A    
C117  C137  A    
C123  C140  A    
C12   C144  A    
C57   H33   S    
C99   O33   A    
C45   C85   A    
Cu9   O45   S    
C97   O35   A    
C125  C133  A    
Cu2   O10   S    
C41   H25   S    
C44   H28   S    
C45   H29   S    
C5    O21   A    
C51   C59   A    
C122  C142  A    
C151  C152  A    
C2    C69   S    
C93   O2    A    
C60   H36   S    
C47   C55   A    
C12   C113  A    
C106  C110  A    
C61   C69   A    
C48   C56   A    
C22   C33   A    
C31   H23   S    
C32   H24   S    
C130  C136  A    
C100  O44   A    
C76   H44   S    
C118  C126  A    
C14   C146  A    
C104  O48   A    
Cu5   O29   S    
C16   C148  A    
C128  C133  A    
C8    O24   A    
C42   H26   S    
Cu9   O37   S    
C16   H8    S    
C132  C135  A    
C57   C65   A    
Cu4   O12   S    
Cu7   O23   S    
C31   C39   A    
C64   C72   A    
Cu12  O35   S    
C177  O57   D    
C77   C85   A    
C94   O1    A    
C123  C143  A    
C124  C144  A    
Cu10  O38   S    
C122  C130  A    
C10   C115  A    
C46   C86   A    
