data_mof_unit_46284.cif
_audit_creation_date              2013-03-05T16:06:55-0500
_audit_creation_method            fapswitch 2.2
_symmetry_space_group_name_H-M    P1
_symmetry_Int_Tables_number       1
_space_group_crystal_system       triclinic
_cell_length_a                    10.807485
_cell_length_b                    9.525787
_cell_length_c                    10.864634
_cell_angle_alpha                 90.025572
_cell_angle_beta                  90.373416
_cell_angle_gamma                 89.966104
_cell_volume                      1118.48783871

loop_
_atom_site_label
_atom_site_type_symbol
_atom_site_description
_atom_site_fract_x
_atom_site_fract_y
_atom_site_fract_z
_atom_type_partial_charge
O1    O     O_R   0.319640 0.618740 0.499990 -0.541143
O2    O     O_R   0.680360 0.618740 0.500010 -0.544559
O3    O     O_R   0.319620 0.381170 0.499990 -0.550629
O4    O     O_R   0.680380 0.381170 0.500010 -0.564029
C1    C     C_R   0.262291 0.499871 0.502634 0.857259
C2    C     C_R   0.737740 0.499895 0.503602 0.865516
O5    O     O_R   0.499990 0.618810 0.319660 -0.550202
O6    O     O_R   0.500010 0.618810 0.680340 -0.552790
O7    O     O_R   0.499960 0.381240 0.319650 -0.603837
O8    O     O_R   0.500040 0.381240 0.680350 -0.565352
C3    C     C_R   0.499718 0.499840 0.262632 0.797247
C4    C     C_R   0.500172 0.499877 0.737353 0.869609
Cu1   Cu    Cu3+1 0.500000 0.640660 0.500000 1.067813
Cu2   Cu    Cu3+1 0.500000 0.359340 0.500000 1.025018
C5    C     C_R   0.499623 0.621216 0.061985 0.128999
C6    C     C_R   0.500261 0.621233 0.938064 0.117488
C7    C     C_R   0.499504 0.498084 0.130026 -0.093505
C8    C     C_R   0.500196 0.498128 0.869919 -0.073953
C9    C     C_R   0.499519 0.370025 0.064460 -0.199910
C10   C     C_R   0.499831 0.370047 0.935339 -0.121028
H1    H     H_    0.499334 0.270197 0.112146 0.173760
H2    H     H_    0.499798 0.270237 0.887537 0.183783
C11   C     C_3   0.500726 0.777288 0.929235 -0.422732
C12   C     C_3   0.499743 0.777276 0.070953 -0.439143
H3    H     H_    0.588163 0.818281 0.889845 0.255614
H4    H     H_    0.412467 0.818803 0.110397 0.250999
H5    H     H_    0.414228 0.819000 0.887083 0.216517
H6    H     H_    0.586403 0.818446 0.113132 0.206220
C13   C     C_R   0.065583 0.395035 0.575630 0.261992
C14   C     C_R   0.936058 0.395793 0.577456 0.257887
C15   C     C_R   0.871638 0.499858 0.510262 -0.171775
C16   C     C_R   0.128519 0.499403 0.508604 -0.195331
C17   C     C_R   0.935578 0.604452 0.446787 -0.183049
C18   C     C_R   0.063317 0.604442 0.446232 -0.175435
H7    H     H_    0.886486 0.684773 0.395393 0.181827
H8    H     H_    0.111339 0.684922 0.394744 0.216466
C19   C     C_R   0.422640 0.074560 0.423686 -0.091870
C20   C     C_R   0.576838 0.074488 0.576747 -0.095361
H9    H     H_    0.360654 0.130802 0.362602 0.173848
H10   H     H_    0.637823 0.130638 0.638659 0.220793
C21   C     C_R   0.422269 0.925834 0.423872 0.615178
C22   C     C_R   0.577441 0.925802 0.576385 0.616953
N1    N     N_R   0.500000 0.852070 0.500000 -0.270112
N2    N     N_R   0.500000 0.147940 0.500000 -0.233425
N3    N     N_R   0.132684 0.295983 0.649720 0.160138
O9    O     O_R   0.195863 0.339193 0.744757 -0.359684
O10   O     O_R   0.144402 0.166752 0.612823 -0.295326
N4    N     N_R   0.871087 0.298672 0.654816 0.134003
O11   O     O_R   0.890073 0.164289 0.644885 -0.289755
O12   O     O_R   0.795052 0.344880 0.737944 -0.373721
F1    F     F_    0.343514 0.856467 0.347813 -0.665021
F2    F     F_    0.655998 0.856436 0.652672 -0.632248

loop_
_geom_bond_atom_site_label_1
_geom_bond_atom_site_label_2
_geom_bond_distance
_ccdc_geom_bond_type
O5    Cu1   1.970259 S    
C20   H10   1.080410 S    
C11   C12   1.539821 S    
C15   C17   1.397650 A    
C20   N2    1.365739 A    
C13   C14   1.400119 A    
C11   H5    1.111602 S    
C6    C11   1.489688 S    
C21   N1    1.369060 A    
C8    C10   1.412297 A    
C9    C10   1.402883 A    
O6    C4    1.291451 A    
O7    Cu2   1.970602 S    
C1    C16   1.447627 S    
C19   N2    1.366089 A    
N4    O12   1.301386 A    
C17   C18   1.380589 A    
C19   H9    1.081822 S    
C6    C8    1.386559 A    
N3    O9    1.300989 A    
O5    C3    1.291350 A    
O7    C3    1.288689 A    
O2    C2    1.290973 A    
O3    Cu2   1.960391 S    
O8    C4    1.288437 A    
C19   C21   1.416743 A    
O1    C1    1.291589 A    
C14   N4    1.436848 S    
N4    O11   1.300877 A    
C9    H1    1.083129 S    
C12   H4    1.111078 S    
C2    C15   1.448436 S    
C13   C16   1.410410 A    
C18   H8    1.083814 S    
N3    O10   1.300837 A    
O4    Cu2   1.960634 S    
C14   C15   1.411936 A    
C17   H7    1.083849 S    
O4    C2    1.290487 A    
O1    Cu1   1.960512 S    
C22   N1    1.368805 A    
C4    C8    1.440376 S    
C5    C6    1.346413 A    
O6    Cu1   1.970444 S    
Cu1   N1    2.013847 S    
C11   H3    1.111066 S    
Cu2   N2    2.013751 S    
O8    Cu2   1.970414 S    
C13   N3    1.434018 S    
C5    C7    1.386731 A    
O2    Cu1   1.960265 S    
C5    C12   1.489736 S    
C7    C9    1.412351 A    
C16   C18   1.396594 A    
Cu1   Cu2   2.679794 S    
C21   F1    1.354607 S    
C20   C22   1.416363 A    
C3    C7    1.440789 S    
C12   H6    1.111599 S    
C10   H2    1.083163 S    
O3    C1    1.289425 A    
C22   F2    1.354631 S    
