data_mof_unit_9298.cif
_audit_creation_date              2012-12-10T18:47:42-0500
_audit_creation_method            fapswitch 2.2
_symmetry_space_group_name_H-M    P1
_symmetry_Int_Tables_number       1
_space_group_crystal_system       triclinic
_cell_length_a                    9.898956
_cell_length_b                    10.582782
_cell_length_c                    15.472834
_cell_angle_alpha                 90.71857
_cell_angle_beta                  66.240793
_cell_angle_gamma                 90.784414
_cell_volume                      1483.35058093

loop_
_atom_site_label
_atom_site_type_symbol
_atom_type_description
_atom_site_fract_x
_atom_site_fract_y
_atom_site_fract_z
_atom_type_partial_charge
C1    C     C_R   0.500622 0.739600 0.500241 0.974740
C2    C     C_R   0.499379 0.260400 0.499758 0.974734
C3    C     C_R   0.330753 0.529679 0.108738 0.680652
C4    C     C_R   0.669242 0.470302 0.891263 0.680649
C5    C     C_R   0.230687 0.565106 0.071448 0.521340
C6    C     C_R   0.769306 0.434875 0.928553 0.521345
C7    C     C_R   0.464873 0.936740 0.585617 0.639880
C8    C     C_R   0.535133 0.063260 0.414380 0.639869
C9    C     C_R   0.463544 0.066669 0.585214 -0.300708
C10   C     C_R   0.536459 0.933331 0.414784 -0.300718
C11   C     C_R   0.498144 0.128109 0.499737 -0.251224
C12   C     C_R   0.501858 0.871891 0.500262 -0.251213
C13   C     C_R   0.956951 0.410141 0.451315 -0.047158
C14   C     C_R   0.043049 0.589859 0.548685 -0.047166
C15   C     C_R   0.100933 0.410673 0.450171 0.073222
C16   C     C_R   0.899066 0.589326 0.549830 0.073206
C17   C     C_R   0.406289 0.502452 0.676823 0.937531
C18   C     C_R   0.593711 0.497547 0.323177 0.937525
C19   C     C_R   0.344654 0.514101 0.780307 -0.246697
C20   C     C_R   0.655345 0.485894 0.219692 -0.246695
C21   C     C_R   0.174894 0.601103 0.931307 -0.021289
C22   C     C_R   0.825103 0.398888 0.068694 -0.021289
C23   C     C_R   0.216937 0.584244 0.833248 -0.107121
C24   C     C_R   0.783062 0.415750 0.166753 -0.107109
C25   C     C_R   0.429845 0.466155 0.824901 0.701600
C26   C     C_R   0.570151 0.533835 0.175099 0.701598
C27   C     C_R   0.408730 0.507332 0.915517 -0.072141
C28   C     C_R   0.591266 0.492655 0.084484 -0.072139
C29   C     C_R   0.270424 0.560376 0.973364 -0.208302
C30   C     C_R   0.729572 0.439610 0.026637 -0.208305
C31   C     C_R   0.519400 0.492692 0.950984 -0.212320
C32   C     C_R   0.480596 0.507292 0.049016 -0.212315
H1    H     H_    0.435437 0.119271 0.650670 0.210317
H2    H     H_    0.564562 0.880729 0.349328 0.210317
H3    H     H_    0.924499 0.337315 0.413866 0.148466
H4    H     H_    0.075499 0.662682 0.586137 0.148468
N1    N     N_R   0.142780 0.500030 0.500020 -0.106708
N2    N     N_R   0.857220 0.499970 0.499980 -0.106708
O1    O     O_R   0.385370 0.683250 0.500010 -0.610257
O2    O     O_R   0.614630 0.316750 0.499990 -0.610257
O3    O     O_R   0.614700 0.683220 0.500000 -0.622802
O4    O     O_R   0.385300 0.316780 0.500000 -0.622803
O5    O     O_R   0.319830 0.500020 0.632250 -0.616763
O6    O     O_R   0.680170 0.499980 0.367750 -0.616764
O7    O     O_R   0.549160 0.499990 0.632240 -0.550911
O8    O     O_R   0.450840 0.500010 0.367760 -0.550908
Zn1   Zn    Zn3+2 0.346870 0.500020 0.500000 1.035053
Zn2   Zn    Zn3+2 0.653130 0.499980 0.500000 1.035052
F1    F     F_    0.091877 0.594772 0.132989 -0.640653
F2    F     F_    0.908114 0.405202 0.867013 -0.640648
F3    F     F_    0.473103 0.627751 0.218677 -0.611579
F4    F     F_    0.526891 0.372239 0.781321 -0.611578
C33   C     C_1   0.870180 0.358760 0.211589 0.358340
N3    N     N_1   0.941156 0.312178 0.245970 -0.171708
C34   C     C_1   0.129821 0.641231 0.788412 0.358330
N4    N     N_1   0.058849 0.687809 0.754031 -0.171715
C35   C     C_1   0.039026 0.667256 0.986016 0.330136
N5    N     N_1   0.930636 0.720029 0.029345 -0.144765
C36   C     C_1   0.960973 0.332734 0.013985 0.330142
N6    N     N_1   0.069363 0.279962 0.970656 -0.144764
F5    F     F_    0.276207 0.508943 0.203181 -0.600814
F6    F     F_    0.723788 0.491037 0.796819 -0.600812
F7    F     F_    0.428449 0.874296 0.668263 -0.662974
F8    F     F_    0.571559 0.125702 0.331729 -0.662966
C37   C     C_1   0.203708 0.317409 0.393467 0.305517
N7    N     N_1   0.285708 0.242261 0.347197 -0.109898
C38   C     C_1   0.796286 0.682578 0.606542 0.305531
N8    N     N_1   0.714280 0.757713 0.652819 -0.109898

loop_
_geom_bond_atom_site_label_1
_geom_bond_atom_site_label_2
_ccdc_geom_bond_type
C19   C23   A    
C34   N4    T    
C17   O5    A    
C23   C34   S    
C14   C16   A    
C4    F6    S    
N1    Zn1   S    
O5    Zn1   S    
C21   C35   S    
C26   C28   A    
C31   C32   A    
C18   O8    A    
C5    F1    S    
C13   C15   A    
C35   N5    T    
C25   F4    S    
C36   N6    T    
C10   H2    S    
C16   C38   S    
C16   N2    A    
C33   N3    T    
C6    F2    S    
C14   N1    A    
C9    H1    S    
C9    C11   A    
C7    F7    S    
C13   N2    A    
C7    C12   A    
C1    C12   S    
C20   C26   A    
C2    O4    A    
C8    C11   A    
C2    C11   S    
C10   C12   A    
O1    Zn1   S    
C17   C19   S    
O3    Zn2   S    
C8    F8    S    
C13   H3    S    
C5    C29   A    
O4    Zn1   S    
C3    F5    S    
C21   C23   A    
C14   H4    S    
C3    C32   A    
C19   C25   A    
C22   C24   A    
C4    C31   A    
C27   C29   A    
C1    O1    A    
C27   C31   A    
C38   N8    T    
C15   C37   S    
C2    O2    A    
C18   O6    A    
C28   C32   A    
N2    Zn2   S    
C18   C20   S    
C4    C6    A    
C37   N7    T    
O7    Zn2   S    
C1    O3    A    
C22   C36   S    
C7    C9    A    
O2    Zn2   S    
O8    Zn1   S    
C15   N1    A    
C22   C30   A    
C6    C30   A    
C24   C33   S    
C26   F3    S    
C21   C29   A    
C20   C24   A    
C8    C10   A    
O6    Zn2   S    
C17   O7    A    
C28   C30   A    
C3    C5    A    
C25   C27   A    
