data_mof_unit_63737.cif
_audit_creation_date              2012-12-10T19:48:31-0500
_audit_creation_method            fapswitch 2.2
_symmetry_space_group_name_H-M    P1
_symmetry_Int_Tables_number       1
_space_group_crystal_system       triclinic
_cell_length_a                    11.068102
_cell_length_b                    10.6969
_cell_length_c                    9.591091
_cell_angle_alpha                 90.771206
_cell_angle_beta                  89.191725
_cell_angle_gamma                 87.112134
_cell_volume                      1133.86219188

loop_
_atom_site_label
_atom_site_type_symbol
_atom_type_description
_atom_site_fract_x
_atom_site_fract_y
_atom_site_fract_z
_atom_type_partial_charge
C1    C     C_R   0.499806 0.259968 0.499162 0.783067
C2    C     C_R   0.498189 0.739975 0.501369 0.800847
C3    C     C_R   0.874031 0.507433 0.500577 -0.250442
C4    C     C_R   0.129362 0.498752 0.504148 -0.230691
C5    C     C_R   0.937462 0.497047 0.627296 0.095147
C6    C     C_R   0.065368 0.557679 0.396495 0.037096
C7    C     C_3   0.578118 0.040206 0.595406 -0.240894
C8    C     C_3   0.417132 0.959230 0.409186 -0.223103
C9    C     C_3   0.609810 0.950263 0.469447 -0.229101
C10   C     C_3   0.385270 0.049689 0.534172 -0.211530
C11   C     C_3   0.497300 0.876929 0.504750 -0.072959
C12   C     C_3   0.498139 0.122890 0.498579 -0.071885
C13   C     C_3   0.465856 0.966009 0.627706 0.334781
C14   C     C_3   0.528492 0.033353 0.376436 0.325629
C15   C     C_3   0.487015 0.611529 0.053034 -0.082937
C16   C     C_3   0.510441 0.386975 0.946622 -0.110105
C17   C     C_3   0.401172 0.550998 0.951789 0.294982
C18   C     C_3   0.597679 0.451225 0.044866 0.342609
C19   C     C_3   0.585750 0.563400 0.948638 0.008721
C20   C     C_3   0.410383 0.439933 0.050187 0.017184
C21   C     C_R   0.263193 0.497406 0.501376 0.777167
C22   C     C_R   0.738177 0.502094 0.499435 0.773667
C23   C     C_R   0.118189 0.904171 0.415089 -0.146764
C24   C     C_R   0.911553 0.675157 0.972253 -0.123415
C25   C     C_R   0.108502 0.780135 0.455652 -0.171855
C26   C     C_R   0.920444 0.576225 0.874826 -0.191084
C27   C     C_R   0.098677 0.684577 0.354852 0.122691
C28   C     C_R   0.913800 0.599677 0.731890 0.094668
C29   C     C_R   0.114860 0.712814 0.214701 -0.136013
C30   C     C_R   0.896947 0.724985 0.688447 -0.217437
C31   C     C_R   0.129342 0.836480 0.173813 -0.165082
C32   C     C_R   0.895956 0.823902 0.785218 -0.122317
C33   C     C_R   0.126620 0.932699 0.273763 -0.133498
C34   C     C_R   0.905192 0.799115 0.927188 -0.050372
C35   C     C_R   0.945202 0.522821 0.378436 -0.051526
C36   C     C_R   0.060079 0.452108 0.615601 -0.075179
Cu1   Cu    Cu3+1 0.500030 0.499990 0.643150 0.938451
Cu2   Cu    Cu3+1 0.499970 0.500010 0.356850 0.972605
H1    H     H_    0.135542 0.028605 0.242145 0.165339
H2    H     H_    0.901130 0.875483 0.002562 0.140226
H3    H     H_    0.470886 0.705601 0.101430 0.161854
H4    H     H_    0.519374 0.292523 0.897796 0.141890
H5    H     H_    0.119896 0.977882 0.493228 0.139547
H6    H     H_    0.909909 0.656072 0.082407 0.178024
H7    H     H_    0.105671 0.759419 0.565500 0.139579
H8    H     H_    0.935542 0.482044 0.910230 0.223635
H9    H     H_    0.115188 0.638084 0.138864 0.162677
H10   H     H_    0.887595 0.746815 0.579229 0.139758
H11   H     H_    0.140942 0.858600 0.064963 0.148120
H12   H     H_    0.886185 0.919598 0.750193 0.139661
H13   H     H_    0.701016 0.908401 0.441939 0.138484
H14   H     H_    0.294631 0.093135 0.560895 0.126549
H15   H     H_    0.642157 0.074410 0.673641 0.150029
H16   H     H_    0.358172 0.922716 0.327750 0.170388
N1    N     N_3   0.500090 0.499970 0.858290 -0.235741
N2    N     N_3   0.499910 0.500030 0.141710 -0.215625
O1    O     O_R   0.500060 0.316850 0.620870 -0.584106
O2    O     O_R   0.499940 0.683150 0.379130 -0.576747
O3    O     O_R   0.500000 0.316860 0.379090 -0.581318
O4    O     O_R   0.500000 0.683140 0.620910 -0.609976
O5    O     O_R   0.319670 0.500010 0.620890 -0.582391
O6    O     O_R   0.680330 0.499990 0.379110 -0.555594
O7    O     O_R   0.319620 0.500010 0.379110 -0.587727
O8    O     O_R   0.680380 0.499990 0.620890 -0.597079
N3    N     N_2   0.312851 0.641701 0.900275 -0.451263
H17   H     H_    0.345248 0.708238 0.835015 0.289323
C37   C     C_3   0.191640 0.609390 0.876793 -0.657532
H18   H     H_    0.133355 0.688605 0.915071 0.227758
H19   H     H_    0.169781 0.521395 0.929137 0.242832
H20   H     H_    0.174481 0.605867 0.764727 0.247325
N4    N     N_2   0.712704 0.397314 0.088263 -0.417214
H21   H     H_    0.779151 0.415438 0.017076 0.255158
C38   C     C_3   0.715445 0.265899 0.120539 -0.646511
H22   H     H_    0.809851 0.225418 0.115210 0.225830
H23   H     H_    0.663892 0.212666 0.044046 0.212223
H24   H     H_    0.681062 0.255242 0.228064 0.273231
C39   C     C_2   0.652709 0.667463 0.890116 0.342352
H25   H     H_    0.686021 0.663036 0.784913 0.155354
O9    O     O_2   0.661030 0.763977 0.957076 -0.620105
C40   C     C_2   0.307499 0.368702 0.105189 0.406473
H26   H     H_    0.233201 0.417527 0.160804 0.129623
O10   O     O_2   0.304845 0.256178 0.084200 -0.586851
C41   C     C_2   0.929082 0.432249 0.265403 0.381550
H27   H     H_    0.868772 0.358097 0.283096 0.110115
O11   O     O_2   0.990563 0.431851 0.158842 -0.604815
C42   C     C_2   0.110396 0.355403 0.711267 0.332586
H28   H     H_    0.205221 0.324957 0.705762 0.106475
O12   O     O_2   0.044928 0.303608 0.793448 -0.550156
N5    N     N_2   0.430895 0.925074 0.764860 -0.459579
H29   H     H_    0.497037 0.868936 0.810016 0.281514
C43   C     C_3   0.381422 0.022054 0.858473 -0.621508
H30   H     H_    0.352074 0.979422 0.957469 0.232661
H31   H     H_    0.301205 0.071284 0.812315 0.247882
H32   H     H_    0.451036 0.089991 0.881782 0.226197
N6    N     N_2   0.557608 0.070382 0.236630 -0.471972
H33   H     H_    0.491985 0.130286 0.195577 0.294291
C44   C     C_3   0.592683 0.968141 0.142958 -0.609771
H34   H     H_    0.619829 0.004847 0.040242 0.235749
H35   H     H_    0.515130 0.908252 0.127401 0.232588
H36   H     H_    0.670798 0.912061 0.184924 0.257609

loop_
_geom_bond_atom_site_label_1
_geom_bond_atom_site_label_2
_ccdc_geom_bond_type
C4    C36   A    
C16   H4    S    
C27   C29   A    
C38   H22   S    
N6    H33   S    
C9    H13   S    
C20   N2    S    
C10   H14   S    
Cu1   O8    S    
C44   H34   S    
C39   H25   S    
C15   C19   S    
C33   H1    S    
C29   H9    S    
C34   H2    S    
C30   H10   S    
C24   C26   A    
C1    O3    A    
C2    O4    A    
C43   H31   S    
C5    C36   A    
C17   C20   S    
C23   H5    S    
C6    C35   A    
C7    C9    S    
C18   C19   S    
C19   C39   S    
Cu2   O2    S    
C41   H27   S    
C23   C33   A    
C31   C33   A    
N5    C43   S    
C17   N1    S    
C21   O5    A    
C18   N2    S    
C38   H23   S    
C1    C12   S    
C31   H11   S    
C2    C11   S    
C44   H35   S    
C39   O9    D    
C7    C12   S    
C20   C40   S    
C37   H18   S    
C15   H3    S    
C4    C6    A    
C8    H16   S    
C43   H30   S    
N4    C38   S    
C35   C41   S    
C42   H28   S    
C36   C42   S    
C24   C34   A    
C37   H19   S    
C32   C34   A    
C9    C14   S    
Cu1   Cu2   S    
C1    O1    A    
C22   O6    A    
C5    C28   S    
C6    C27   S    
C3    C35   A    
C16   C20   S    
N6    C44   S    
C16   C18   S    
C9    C11   S    
C32   H12   S    
C10   C12   S    
C40   O10   D    
C41   O11   D    
C12   C14   S    
C24   H6    S    
C38   H24   S    
C7    H15   S    
C25   H7    S    
C14   N6    S    
C44   H36   S    
Cu2   O7    S    
C19   N1    S    
C18   N4    S    
C15   C17   S    
C8    C14   S    
C13   N5    S    
C26   C28   A    
C40   H26   S    
C3    C5    A    
C10   C13   S    
Cu1   O5    S    
C2    O2    A    
C25   C27   A    
C17   N3    S    
N3    C37   S    
C37   H20   S    
C15   N2    S    
C28   C30   A    
C16   N1    S    
N4    H21   S    
C29   C31   A    
C43   H32   S    
C30   C32   A    
C4    C21   S    
C11   C13   S    
C8    C11   S    
C42   O12   D    
C23   C25   A    
C21   O7    A    
Cu1   O4    S    
C26   H8    S    
C22   O8    A    
Cu2   O3    S    
Cu1   N1    S    
C7    C13   S    
Cu2   N2    S    
C8    C10   S    
N3    H17   S    
C3    C22   S    
N5    H29   S    
Cu1   O1    S    
Cu2   O6    S    
