data_mof_unit_18362.cif
_audit_creation_date              2013-03-05T16:42:52-0500
_audit_creation_method            fapswitch 2.2
_symmetry_space_group_name_H-M    P1
_symmetry_Int_Tables_number       1
_space_group_crystal_system       triclinic
_cell_length_a                    9.903872
_cell_length_b                    10.709875
_cell_length_c                    13.628399
_cell_angle_alpha                 90.368125
_cell_angle_beta                  82.568741
_cell_angle_gamma                 89.797928
_cell_volume                      1433.36880376

loop_
_atom_site_label
_atom_site_type_symbol
_atom_site_description
_atom_site_fract_x
_atom_site_fract_y
_atom_site_fract_z
_atom_type_partial_charge
O1    O     O_R   0.385310 0.683210 0.499990 -0.563134
O2    O     O_R   0.614650 0.683240 0.500000 -0.591703
C1    C     C_R   0.501341 0.739568 0.493873 0.974509
O3    O     O_R   0.368820 0.499950 0.640340 -0.605822
O4    O     O_R   0.598170 0.499990 0.640350 -0.593501
C2    C     C_R   0.474994 0.499236 0.685584 0.899256
Zn1   Zn    Zn3+2 0.346870 0.499980 0.499990 1.008871
Zn2   Zn    Zn3+2 0.653130 0.500020 0.500010 0.993577
O5    O     O_R   0.385350 0.316760 0.500000 -0.620422
O6    O     O_R   0.614690 0.316790 0.500010 -0.599889
O7    O     O_R   0.401830 0.500010 0.359650 -0.597352
O8    O     O_R   0.631180 0.500050 0.359660 -0.599302
C3    C     C_R   0.501833 0.259898 0.495407 0.894848
C4    C     C_R   0.524732 0.499250 0.314506 0.859511
C5    C     C_1   0.543392 0.492477 0.211110 -0.124664
C6    C     C_2   0.553987 0.477058 0.019925 0.141276
C7    C     C_2   0.435265 0.488448 0.981421 0.172547
C8    C     C_1   0.440451 0.490905 0.876992 0.038093
C9    C     C_1   0.552853 0.485346 0.123641 0.008884
C10   C     C_1   0.454284 0.494790 0.789218 -0.114503
C11   C     C_R   0.389653 0.938506 0.468113 -0.120250
C12   C     C_R   0.507437 0.870110 0.473433 -0.215997
C13   C     C_R   0.633295 0.932312 0.453525 0.337340
C14   C     C_R   0.634764 0.062167 0.468244 0.363010
C15   C     C_R   0.509539 0.128608 0.475217 -0.241914
C16   C     C_R   0.393031 0.064714 0.457803 -0.168336
C17   C     C_3   0.244003 0.078290 0.495773 0.243741
C18   C     C_3   0.243647 0.936703 0.515044 0.477032
H1    H     H_    0.226907 0.135047 0.564917 0.137401
C19   C     C_R   0.913588 0.512853 0.586329 0.092758
N1    N     N_R   0.857130 0.500860 0.500650 -0.176966
C20   C     C_R   0.944040 0.478209 0.415159 0.498242
C21   C     C_R   0.087375 0.481818 0.415249 -0.097306
H2    H     H_    0.153153 0.472577 0.346037 0.184123
N2    N     N_R   0.142770 0.500820 0.500650 -0.114498
C22   C     C_R   0.055797 0.509484 0.586740 0.092262
C23   C     C_3   0.050056 0.615309 0.658520 -0.427756
C24   C     C_3   0.897455 0.622557 0.654810 0.302965
H3    H     H_    0.078098 0.585632 0.731303 0.237134
H4    H     H_    0.106067 0.697470 0.626323 0.243939
H5    H     H_    0.864483 0.707522 0.617057 0.136070
N3    N     N_R   0.304320 0.505135 0.040663 0.199784
O9    O     O_R   0.194419 0.470835 0.004959 -0.363138
O10   O     O_R   0.291643 0.570167 0.122359 -0.388100
O11   O     O_3   0.821621 0.590549 0.746348 -0.563610
C25   C     C_3   0.746190 0.694475 0.788669 0.162699
H6    H     H_    0.664947 0.658577 0.844789 0.180548
H7    H     H_    0.692667 0.745527 0.733858 0.110027
C26   C     C_3   0.835839 0.782603 0.840955 -0.360878
H8    H     H_    0.890332 0.728602 0.893210 0.280131
H9    H     H_    0.912462 0.826669 0.785429 0.256262
C27   C     C_3   0.750724 0.884843 0.898140 -0.931698
H10   H     H_    0.694304 0.939447 0.847460 0.271884
H11   H     H_    0.818477 0.949005 0.933231 0.280508
H12   H     H_    0.676744 0.843189 0.956991 0.271985
N4    N     N_R   0.682777 0.454322 0.959846 0.202779
O12   O     O_R   0.794641 0.495671 0.988786 -0.383625
O13   O     O_R   0.691239 0.376985 0.885293 -0.395730
O14   O     O_3   0.754561 0.867019 0.431255 -0.591032
C28   C     C_3   0.806239 0.884906 0.330440 0.164392
H13   H     H_    0.918707 0.874656 0.322961 0.214626
H14   H     H_    0.786102 0.980203 0.303080 0.121486
C29   C     C_3   0.750286 0.785578 0.265305 -0.390142
H15   H     H_    0.777485 0.691617 0.290652 0.292816
H16   H     H_    0.637508 0.793214 0.272029 0.206243
C30   C     C_3   0.808874 0.800134 0.156854 -0.879969
H17   H     H_    0.782623 0.893578 0.129607 0.255095
H18   H     H_    0.765476 0.727440 0.111723 0.293107
H19   H     H_    0.921406 0.788944 0.147707 0.291975
O15   O     O_3   0.757410 0.123632 0.470644 -0.654838
C31   C     C_3   0.819491 0.088147 0.554500 0.163075
H20   H     H_    0.930540 0.083686 0.530853 0.242981
H21   H     H_    0.788916 0.994614 0.585064 0.165290
C32   C     C_3   0.792386 0.185996 0.636913 -0.405971
H22   H     H_    0.811583 0.280186 0.605425 0.263172
H23   H     H_    0.684249 0.180926 0.670718 0.228389
C33   C     C_3   0.885316 0.166238 0.716485 -0.797778
H24   H     H_    0.870058 0.071794 0.748878 0.275301
H25   H     H_    0.862206 0.236829 0.776107 0.315198
H26   H     H_    0.993562 0.177043 0.684446 0.269394
O16   O     O_3   0.157421 0.119989 0.426021 -0.651220
C34   C     C_3   0.200888 0.089747 0.325028 0.153559
H27   H     H_    0.108449 0.068831 0.289892 0.148155
H28   H     H_    0.265326 0.004692 0.313804 0.175845
C35   C     C_3   0.274049 0.200456 0.271205 -0.374677
H29   H     H_    0.203930 0.281427 0.274334 0.225466
H30   H     H_    0.363816 0.227543 0.307351 0.232372
C36   C     C_3   0.321339 0.168978 0.162864 -0.890684
H31   H     H_    0.394494 0.089585 0.157110 0.261558
H32   H     H_    0.372881 0.251183 0.125878 0.277157
H33   H     H_    0.232817 0.144306 0.124260 0.276719
N5    N     N_R   0.225430 0.909819 0.621528 0.159391
O17   O     O_R   0.111575 0.940091 0.675074 -0.451458
O18   O     O_R   0.323841 0.863852 0.665043 -0.436425
N6    N     N_R   0.152387 0.863084 0.460870 0.181989
O19   O     O_R   0.200133 0.790215 0.387600 -0.410902
O20   O     O_R   0.022749 0.861406 0.491804 -0.426271
O21   O     O_3   0.894140 0.465118 0.325959 -0.623364
C37   C     C_3   0.885487 0.336865 0.302458 0.056370
H34   H     H_    0.785790 0.300698 0.336893 0.218831
H35   H     H_    0.967525 0.278960 0.328430 0.141100
C38   C     C_3   0.894519 0.322632 0.190181 -0.266245
H36   H     H_    0.820352 0.386969 0.162286 0.271014
H37   H     H_    0.998444 0.348517 0.155705 0.267967
C39   C     C_3   0.863580 0.189516 0.159703 -0.957248
H38   H     H_    0.937477 0.123012 0.185358 0.250999
H39   H     H_    0.871454 0.183166 0.077804 0.298089
H40   H     H_    0.758583 0.163281 0.191403 0.255209

loop_
_geom_bond_atom_site_label_1
_geom_bond_atom_site_label_2
_geom_bond_distance
_ccdc_geom_bond_type
C30   H18   1.110751 S    
C11   C16   1.359934 A    
C29   H16   1.111500 S    
C17   H1    1.112107 S    
N2    C22   1.365195 A    
O16   C34   1.422908 S    
C14   O15   1.387610 S    
C35   H29   1.106211 S    
C13   O14   1.385845 S    
C39   H39   1.110395 S    
C25   C26   1.532272 S    
C16   C17   1.505762 S    
C32   H23   1.111434 S    
C18   N6    1.467592 S    
C22   C23   1.488498 S    
C23   H4    1.104526 S    
C19   N1    1.363841 A    
O7    C4    1.290859 A    
C35   C36   1.525355 S    
C30   H19   1.111285 S    
N4    O12   1.301266 A    
C19   C24   1.490976 S    
C38   C39   1.525555 S    
C28   H14   1.114969 S    
O5    C3    1.296737 A    
C7    N3    1.446137 S    
C24   O11   1.415213 S    
C5    C9    1.185535 T    
N6    O19   1.301917 A    
N4    O13   1.300797 A    
C6    C7    1.353587 D    
C26   H9    1.108968 S    
C32   C33   1.525643 S    
C13   C14   1.404243 A    
O15   C31   1.419221 S    
C27   H12   1.110862 S    
C33   H24   1.109219 S    
C33   H25   1.107691 S    
C30   H17   1.111274 S    
C29   C30   1.525531 S    
O14   C28   1.417228 S    
C11   C12   1.385328 A    
C3    C15   1.430910 S    
N3    O10   1.301436 A    
O3    Zn1   1.952799 S    
C12   C13   1.411320 A    
C27   H11   1.110495 S    
C21   H2    1.078564 S    
C35   H30   1.109273 S    
C39   H40   1.111010 S    
C25   H7    1.115142 S    
C32   H22   1.106210 S    
C17   O16   1.432481 S    
C14   C15   1.419835 A    
C24   H5    1.116594 S    
O3    C2    1.285961 A    
C31   H21   1.115137 S    
C15   C16   1.389367 A    
O11   C25   1.415641 S    
C34   H27   1.109539 S    
C28   H13   1.110299 S    
O1    C1    1.293285 A    
Zn1   O7    1.919653 S    
C6    N4    1.442824 S    
C23   C24   1.520438 S    
C31   C32   1.528610 S    
C37   H34   1.109228 S    
C36   H33   1.111028 S    
Zn2   O8    1.952798 S    
C26   C27   1.526279 S    
N5    O18   1.301490 A    
C7    C8    1.417893 S    
C18   N5    1.469514 S    
C38   H37   1.111571 S    
C37   H35   1.115202 S    
C11   C18   1.503849 S    
C36   H32   1.109993 S    
C26   H8    1.111495 S    
C34   H28   1.108747 S    
C28   C29   1.531672 S    
N3    O9    1.301526 A    
C27   H10   1.110853 S    
C33   H26   1.110757 S    
Zn1   O5    1.997613 S    
C25   H6    1.107675 S    
O1    Zn1   2.000276 S    
Zn2   N1    2.021589 S    
Zn1   N2    2.020225 S    
N1    C20   1.375749 A    
O2    Zn2   1.997613 S    
O8    C4    1.287638 A    
O6    C3    1.283327 A    
O4    Zn2   1.919653 S    
N6    O20   1.298753 A    
C34   C35   1.532541 S    
C2    C10   1.401830 S    
C39   H38   1.109448 S    
C19   C22   1.409491 A    
C20   C21   1.420398 A    
O2    C1    1.284651 A    
C31   H20   1.106110 S    
C23   H3    1.112086 S    
O4    C2    1.293792 A    
C6    C9    1.414286 S    
N5    O17   1.300247 A    
C21   N2    1.363796 A    
C20   O21   1.376730 S    
C8    C10   1.187312 T    
C38   H36   1.109447 S    
C29   H15   1.109582 S    
C37   C38   1.527774 S    
C36   H31   1.110929 S    
Zn2   O6    2.000276 S    
O21   C37   1.413826 S    
C17   C18   1.540548 S    
C4    C5    1.398677 S    
C1    C12   1.427287 S    
