data_mof_unit_37575.cif
_audit_creation_date              2012-12-10T17:38:13-0500
_audit_creation_method            fapswitch 2.2
_symmetry_space_group_name_H-M    P1
_symmetry_Int_Tables_number       1
_space_group_crystal_system       triclinic
_cell_length_a                    11.957957
_cell_length_b                    12.827123
_cell_length_c                    19.249251
_cell_angle_alpha                 90.197419
_cell_angle_beta                  86.157692
_cell_angle_gamma                 94.363706
_cell_volume                      2937.38869638

loop_
_atom_site_label
_atom_site_type_symbol
_atom_type_description
_atom_site_fract_x
_atom_site_fract_y
_atom_site_fract_z
_atom_type_partial_charge
C1    C     C_R   0.523079 0.700475 0.497152 0.943471
C2    C     C_R   0.476921 0.299525 0.502849 0.943471
C3    C     C_R   0.460836 0.187843 0.505969 -0.259384
C4    C     C_R   0.539164 0.812157 0.494031 -0.259386
C5    C     C_R   0.640324 0.969801 0.529998 0.515154
C6    C     C_R   0.359676 0.030199 0.470003 0.515156
C7    C     C_R   0.633546 0.862510 0.521470 -0.388359
C8    C     C_R   0.366454 0.137490 0.478530 -0.388363
C9    C     C_R   0.454269 0.868179 0.468959 0.429496
C10   C     C_R   0.545731 0.131821 0.531041 0.429495
C11   C     C_R   0.453046 0.974328 0.484298 -0.178041
C12   C     C_R   0.546954 0.025672 0.515702 -0.178042
C13   C     C_R   0.953231 0.401954 0.434612 0.384576
C14   C     C_R   0.046769 0.598047 0.565387 0.384574
C15   C     C_R   0.836694 0.410824 0.441786 -0.076111
C16   C     C_R   0.163306 0.589178 0.558213 -0.076124
C17   C     C_R   0.858789 0.542952 0.527343 -0.062529
C18   C     C_R   0.141211 0.457047 0.472657 -0.062537
C19   C     C_R   0.976163 0.535927 0.523422 -0.091545
C20   C     C_R   0.023837 0.464073 0.476577 -0.091564
C21   C     C_R   0.500337 0.500224 0.634392 0.880071
C22   C     C_R   0.499663 0.499777 0.365608 0.880072
C23   C     C_R   0.400843 0.491701 0.750968 -0.206496
C24   C     C_R   0.599160 0.508322 0.249033 -0.206493
C25   C     C_R   0.402616 0.492432 0.822729 -0.242699
C26   C     C_R   0.597390 0.507604 0.177272 -0.242700
C27   C     C_R   0.505314 0.500626 0.854212 -0.007305
C28   C     C_R   0.494693 0.499410 0.145788 -0.007307
C29   C     C_R   0.607707 0.507244 0.813075 0.497145
C30   C     C_R   0.392299 0.492780 0.186923 0.497145
C31   C     C_R   0.604806 0.509476 0.740758 -0.317888
C32   C     C_R   0.395198 0.490536 0.259240 -0.317884
C33   C     C_R   0.501836 0.500284 0.709735 -0.080080
C34   C     C_R   0.498166 0.499726 0.290264 -0.080080
C35   C     C_R   0.496659 0.498892 0.070088 0.320108
C36   C     C_R   0.503351 0.501151 0.929912 0.320108
H1    H     H_    0.320450 0.484480 0.727879 0.161263
H2    H     H_    0.679552 0.515543 0.272123 0.161266
H3    H     H_    0.323308 0.485578 0.853667 0.168963
H4    H     H_    0.676699 0.514467 0.146335 0.168962
H5    H     H_    0.683081 0.520118 0.708995 0.159887
H6    H     H_    0.316922 0.479884 0.291002 0.159886
H7    H     H_    0.299352 0.181524 0.461517 0.200317
H8    H     H_    0.700647 0.818476 0.538483 0.200318
H9    H     H_    0.180277 0.402547 0.437393 0.175865
H10   H     H_    0.819723 0.597450 0.562608 0.175869
H11   H     H_    0.218508 0.637925 0.589234 0.151718
H12   H     H_    0.781492 0.362078 0.410764 0.151725
N1    N     N_R   0.589542 0.466149 0.963110 -0.130318
N2    N     N_R   0.410468 0.533895 0.036890 -0.130321
N3    N     N_R   0.586419 0.465311 0.032082 -0.189241
N4    N     N_R   0.413592 0.534733 0.967918 -0.189241
N5    N     N_R   0.207800 0.519350 0.512860 -0.128426
N6    N     N_R   0.792200 0.480650 0.487140 -0.128433
O1    O     O_R   0.421690 0.658830 0.503430 -0.570381
O2    O     O_R   0.578310 0.341170 0.496570 -0.570382
O3    O     O_R   0.609320 0.646410 0.495180 -0.633313
O4    O     O_R   0.390680 0.353590 0.504820 -0.633313
O5    O     O_R   0.406160 0.506220 0.605990 -0.632085
O6    O     O_R   0.593840 0.493780 0.394010 -0.632085
O7    O     O_R   0.593780 0.493810 0.597740 -0.628021
O8    O     O_R   0.406220 0.506190 0.402260 -0.628021
Zn1   Zn    Zn3+2 0.374720 0.508290 0.505510 0.946494
Zn2   Zn    Zn3+2 0.625280 0.491710 0.494490 0.946495
O9    O     O_3   0.996696 0.329109 0.389392 -0.622873
C37   C     C_3   0.017512 0.375565 0.322935 0.054450
H13   H     H_    0.068476 0.451925 0.325314 0.128797
H14   H     H_    0.936786 0.387778 0.299581 0.142119
C38   C     C_3   0.083376 0.303257 0.275828 -0.775065
H15   H     H_    0.034881 0.226429 0.271490 0.253993
H16   H     H_    0.099425 0.338297 0.223134 0.231745
H17   H     H_    0.165255 0.291377 0.297521 0.254465
O10   O     O_3   0.003301 0.670894 0.610605 -0.622879
C39   C     C_3   0.982524 0.624453 0.677068 0.054449
H18   H     H_    0.063266 0.612263 0.700410 0.142108
H19   H     H_    0.931574 0.548083 0.674705 0.128801
C40   C     C_3   0.916663 0.696761 0.724178 -0.775010
H20   H     H_    0.834768 0.708621 0.702496 0.254466
H21   H     H_    0.900642 0.661731 0.776877 0.231722
H22   H     H_    0.965147 0.773599 0.728501 0.253979
O11   O     O_3   0.709215 0.522931 0.843760 -0.607405
C41   C     C_3   0.774150 0.436880 0.829319 0.085561
H23   H     H_    0.807114 0.437530 0.773896 0.129363
H24   H     H_    0.724304 0.361251 0.841266 0.141204
C42   C     C_3   0.873980 0.444096 0.874536 -0.799121
H25   H     H_    0.844109 0.442560 0.930445 0.269409
H26   H     H_    0.925695 0.376854 0.863598 0.201035
H27   H     H_    0.926936 0.517761 0.863261 0.245740
O12   O     O_3   0.290793 0.477091 0.156236 -0.607408
C43   C     C_3   0.225853 0.563138 0.170681 0.085549
H28   H     H_    0.275694 0.638770 0.158734 0.141210
H29   H     H_    0.192893 0.562486 0.226104 0.129361
C44   C     C_3   0.126020 0.555917 0.125467 -0.799123
H30   H     H_    0.073068 0.482250 0.136742 0.245743
H31   H     H_    0.074301 0.623156 0.136407 0.201036
H32   H     H_    0.155886 0.557457 0.069557 0.269409
O13   O     O_3   0.632340 0.183117 0.565188 -0.559746
C45   C     C_3   0.595428 0.197206 0.635567 0.189415
H33   H     H_    0.572271 0.120346 0.661544 0.137073
H34   H     H_    0.521966 0.245826 0.640253 0.097386
C46   C     C_3   0.690204 0.253357 0.673281 -0.823355
H35   H     H_    0.716160 0.329859 0.647952 0.258024
H36   H     H_    0.661357 0.267009 0.728353 0.185805
H37   H     H_    0.763603 0.205124 0.671935 0.262600
O14   O     O_3   0.367660 0.816883 0.434813 -0.559745
C47   C     C_3   0.404571 0.802795 0.364434 0.189416
H38   H     H_    0.478033 0.754175 0.359747 0.097387
H39   H     H_    0.427728 0.879656 0.338457 0.137073
C48   C     C_3   0.309795 0.746645 0.326719 -0.823355
H40   H     H_    0.338642 0.732995 0.271646 0.185804
H41   H     H_    0.283840 0.670142 0.352047 0.258022
H42   H     H_    0.236395 0.794879 0.328066 0.262602
O15   O     O_3   0.735503 0.017859 0.556803 -0.573721
C49   C     C_3   0.815191 0.044041 0.500898 0.158325
H43   H     H_    0.778502 0.089655 0.459928 0.148812
H44   H     H_    0.847617 0.971985 0.477299 0.116760
C50   C     C_3   0.913221 0.111367 0.527858 -0.778875
H45   H     H_    0.951743 0.068885 0.569213 0.236821
H46   H     H_    0.977729 0.130188 0.484603 0.225809
H47   H     H_    0.883531 0.185528 0.549540 0.273164
O16   O     O_3   0.264496 0.982141 0.443197 -0.573721
C51   C     C_3   0.184807 0.955961 0.499102 0.158321
H48   H     H_    0.152381 0.028019 0.522699 0.116761
H49   H     H_    0.221496 0.910350 0.540074 0.148808
C52   C     C_3   0.086778 0.888634 0.472143 -0.778870
H50   H     H_    0.116470 0.814471 0.450464 0.273164
H51   H     H_    0.022270 0.869816 0.515397 0.225810
H52   H     H_    0.048258 0.931113 0.430786 0.236822

loop_
_geom_bond_atom_site_label_1
_geom_bond_atom_site_label_2
_ccdc_geom_bond_type
C37   H14   S    
C44   H30   S    
C10   O13   S    
O10   C39   S    
C19   C20   A    
C8    H7    S    
O13   C45   S    
C13   O9    S    
C42   H25   S    
C46   H35   S    
C39   H19   S    
O3    Zn2   S    
C24   C26   A    
C21   O5    A    
C4    C7    A    
C22   O6    A    
C40   H22   S    
C37   C38   S    
C21   C33   S    
C47   H38   S    
C9    O14   S    
C27   C29   A    
N2    N4    A    
C38   H16   S    
C16   N5    A    
C41   H24   S    
C18   N5    A    
C28   C35   S    
C23   C33   A    
C39   C40   S    
O1    Zn1   S    
C52   H52   S    
C24   H2    S    
O2    Zn2   S    
C21   O7    A    
C36   N4    A    
C40   H20   S    
C42   H26   S    
C37   H13   S    
C44   H31   S    
C15   H12   S    
C30   O12   S    
C16   H11   S    
O11   C41   S    
C40   H21   S    
C22   C34   S    
C39   H18   S    
C15   N6    A    
C17   H10   S    
C5    C12   A    
C3    C8    A    
C50   H47   S    
O12   C43   S    
C6    C11   A    
C5    C7    A    
C6    C8    A    
N1    N3    A    
C23   H1    S    
C41   H23   S    
C24   C34   A    
C32   C34   A    
C38   H17   S    
C14   O10   S    
C29   O11   S    
O8    Zn1   S    
C1    O3    A    
C22   O8    A    
C43   H29   S    
C35   N2    A    
C31   C33   A    
C7    H8    S    
C9    C11   A    
O16   C51   S    
C10   C12   A    
C45   H33   S    
C44   H32   S    
C45   H34   S    
C13   C15   A    
C35   N3    A    
C52   H50   S    
C14   C16   A    
C48   H42   S    
C51   H49   S    
C41   C42   S    
C18   H9    S    
C43   C44   S    
O15   C49   S    
C42   H27   S    
O4    Zn1   S    
C31   H5    S    
C13   C20   A    
C5    O15   S    
C26   C28   A    
C14   C19   A    
C49   H44   S    
C11   C12   A    
C2    O4    A    
C49   H43   S    
C27   C36   S    
C25   C27   A    
C45   C46   S    
O14   C47   S    
O5    Zn1   S    
O6    Zn2   S    
C1    C4    S    
C51   C52   S    
C50   H46   S    
C2    C3    S    
C51   H48   S    
C29   C31   A    
C3    C10   A    
C2    O2    A    
C48   H40   S    
C25   H3    S    
O7    Zn2   S    
C30   C32   A    
N5    Zn1   S    
C26   H4    S    
C43   H28   S    
C47   H39   S    
C48   H41   S    
C28   C30   A    
C17   C19   A    
C18   C20   A    
C23   C25   A    
C1    O1    A    
C38   H15   S    
C49   C50   S    
N6    Zn2   S    
C46   H36   S    
O9    C37   S    
C52   H51   S    
C32   H6    S    
C46   H37   S    
C6    O16   S    
C4    C9    A    
C50   H45   S    
C17   N6    A    
C36   N1    A    
C47   C48   S    
