data_mof_unit_28652.cif
_audit_creation_date              2012-12-11T14:01:30-0500
_audit_creation_method            fapswitch 2.2
_symmetry_space_group_name_H-M    P1
_symmetry_Int_Tables_number       1
_space_group_crystal_system       triclinic
_cell_length_a                    19.043514
_cell_length_b                    11.066954
_cell_length_c                    18.895446
_cell_angle_alpha                 90.392733
_cell_angle_beta                  90.014825
_cell_angle_gamma                 89.93535
_cell_volume                      3982.18882176

loop_
_atom_site_label
_atom_site_type_symbol
_atom_type_description
_atom_site_fract_x
_atom_site_fract_y
_atom_site_fract_z
_atom_type_partial_charge
C1    C     C_R   0.272710 0.038624 0.855147 0.609534
C2    C     C_R   0.727794 0.041445 0.146736 0.613961
C3    C     C_R   0.772318 0.540072 0.854440 0.604891
C4    C     C_R   0.227783 0.540319 0.145909 0.617210
C5    C     C_R   0.477843 0.048994 0.077635 0.317695
C6    C     C_R   0.508121 0.060538 0.932014 0.291379
C7    C     C_R   0.975553 0.542457 0.074668 0.313427
C8    C     C_R   0.009162 0.561803 0.929945 0.287890
C9    C     C_R   0.982583 0.657040 0.044119 0.301965
C10   C     C_R   0.996931 0.666614 0.970861 0.265833
C11   C     C_R   0.487046 0.162263 0.045937 0.310708
C12   C     C_R   0.500561 0.168373 0.972019 0.286759
C13   C     C_2   0.248068 0.574043 0.918717 0.245367
C14   C     C_2   0.754244 0.569683 0.083283 0.257979
C15   C     C_2   0.749634 0.078343 0.920198 0.258694
C16   C     C_2   0.257620 0.065502 0.085310 0.254655
C17   C     C_2   0.255209 0.586607 0.078574 0.279205
C18   C     C_2   0.745356 0.583822 0.923067 0.238743
C19   C     C_2   0.754786 0.091944 0.081196 0.273865
C20   C     C_2   0.246958 0.078077 0.925407 0.225711
C21   C     C_2   0.293642 0.513019 0.034350 0.143671
C22   C     C_2   0.707363 0.508180 0.966241 0.089712
C23   C     C_2   0.793861 0.021897 0.036491 0.161288
C24   C     C_2   0.210528 0.999418 0.968625 0.067268
C25   C     C_2   0.302781 0.535985 0.958251 0.169186
C26   C     C_2   0.700665 0.525108 0.043757 0.123791
C27   C     C_2   0.804628 0.053338 0.962766 0.164078
C28   C     C_2   0.206264 0.011959 0.047243 0.132558
C29   C     C_2   0.467971 0.818643 0.568874 0.332270
C30   C     C_2   0.471865 0.839045 0.402461 0.273280
C31   C     C_2   0.998250 0.324799 0.578940 0.299082
C32   C     C_2   0.977880 0.335372 0.406774 0.276774
C33   C     C_2   0.454145 0.747935 0.446293 0.161806
C34   C     C_2   0.424941 0.778821 0.516419 0.175058
C35   C     C_2   0.977633 0.252188 0.458571 0.157985
C36   C     C_2   0.952048 0.288252 0.528268 0.205960
C37   C     C_2   0.236376 0.558718 0.588235 0.126282
C38   C     C_2   0.758356 0.572110 0.416628 0.101630
C39   C     C_2   0.737264 0.058374 0.588071 0.107878
C40   C     C_2   0.257771 0.075289 0.417445 0.099741
C41   C     C_2   0.221630 0.523275 0.433108 -0.008175
C42   C     C_2   0.761820 0.572946 0.574432 0.023833
C43   C     C_2   0.722271 0.025602 0.432847 -0.001176
C44   C     C_2   0.261027 0.075191 0.575181 0.032570
C45   C     C_R   0.471361 0.822962 0.853589 0.611924
C46   C     C_R   0.528625 0.821543 0.146573 0.608360
C47   C     C_R   0.972616 0.323481 0.852339 0.606355
C48   C     C_R   0.031158 0.320750 0.144800 0.611129
C49   C     C_2   0.167774 0.531627 0.478118 0.243173
C50   C     C_2   0.817364 0.567210 0.530306 0.272931
C51   C     C_2   0.668818 0.028719 0.478515 0.245908
C52   C     C_2   0.316472 0.073324 0.530916 0.273222
C53   C     C_2   0.180098 0.588899 0.547005 0.162231
C54   C     C_2   0.810090 0.613606 0.459721 0.132080
C55   C     C_2   0.680309 0.086297 0.547389 0.153792
C56   C     C_2   0.308065 0.120512 0.460943 0.123461
C57   C     C_R   0.260584 0.634670 0.850623 0.551931
C58   C     C_R   0.739651 0.634059 0.149591 0.615233
C59   C     C_R   0.761123 0.136353 0.851311 0.555737
C60   C     C_R   0.240372 0.132782 0.150266 0.612316
C61   C     C_R   0.273445 0.043243 0.647478 0.598317
C62   C     C_R   0.708970 0.998870 0.359471 0.591143
C63   C     C_R   0.773559 0.542929 0.647258 0.606363
C64   C     C_R   0.208722 0.498227 0.359387 0.589230
C65   C     C_R   0.440535 0.818751 0.640000 0.681124
C66   C     C_R   0.526303 0.824039 0.349030 0.637790
C67   C     C_R   0.971980 0.323001 0.649835 0.678587
C68   C     C_R   0.027365 0.323717 0.349527 0.645103
C69   C     C_R   0.259124 0.635863 0.646776 0.624962
C70   C     C_R   0.740192 0.637564 0.353448 0.584609
C71   C     C_R   0.759274 0.135873 0.646711 0.618185
C72   C     C_R   0.240019 0.138257 0.353613 0.584505
C73   C     C_R   0.498053 0.829067 0.074471 0.046538
C74   C     C_R   0.502147 0.834564 0.925676 0.047585
C75   C     C_R   0.008092 0.325792 0.069678 0.038484
C76   C     C_R   0.009340 0.337872 0.921090 0.064766
C77   C     C_R   0.492442 0.941686 0.039390 -0.108752
C78   C     C_R   0.500125 0.945995 0.964735 -0.096961
C79   C     C_R   0.995706 0.438233 0.035947 -0.106220
C80   C     C_R   0.004033 0.446348 0.961529 -0.092603
C81   C     C_R   0.511408 0.725691 0.962032 0.205112
C82   C     C_R   0.497628 0.721592 0.034789 0.199886
C83   C     C_R   0.029396 0.231965 0.954383 0.219011
C84   C     C_R   0.020263 0.221218 0.027794 0.208249
Cr1   Cr    Cr6+3 0.230530 0.836340 0.748870 1.134637
Cr2   Cr    Cr6+3 0.769470 0.836340 0.251130 1.138189
Cr3   Cr    Cr6+3 0.730530 0.336340 0.748870 1.145454
Cr4   Cr    Cr6+3 0.269470 0.336340 0.251130 1.138599
Cr5   Cr    Cr6+3 0.387420 0.989430 0.750820 1.157992
Cr6   Cr    Cr6+3 0.612580 0.989430 0.249180 1.167531
Cr7   Cr    Cr6+3 0.887420 0.489430 0.750820 1.152581
Cr8   Cr    Cr6+3 0.112580 0.489430 0.249180 1.165694
Cr9   Cr    Cr6+3 0.385640 0.677860 0.749230 1.157589
Cr10  Cr    Cr6+3 0.614360 0.677860 0.250770 1.164016
Cr11  Cr    Cr6+3 0.885640 0.177860 0.749230 1.164551
Cr12  Cr    Cr6+3 0.114360 0.177860 0.250770 1.160276
H1    H     H_    0.275155 0.542558 0.449576 0.113677
H2    H     H_    0.709752 0.599673 0.556875 0.106349
H3    H     H_    0.775216 0.051100 0.448474 0.112108
H4    H     H_    0.208475 0.099824 0.557998 0.111465
O1    O     O_R   0.215090 0.709860 0.828130 -0.479993
O2    O     O_R   0.784910 0.709860 0.171870 -0.437546
O3    O     O_R   0.715090 0.209860 0.828130 -0.477966
O4    O     O_R   0.284910 0.209860 0.171870 -0.437780
O5    O     O_R   0.445660 0.919250 0.676780 -0.447418
O6    O     O_R   0.554340 0.919250 0.323220 -0.443970
O7    O     O_R   0.945660 0.419250 0.676780 -0.458159
O8    O     O_R   0.054340 0.419250 0.323220 -0.448794
O9    O     O_R   0.456260 0.718170 0.670000 -0.486476
O10   O     O_R   0.543740 0.718170 0.330000 -0.462147
O11   O     O_R   0.956260 0.218170 0.670000 -0.489968
O12   O     O_R   0.043740 0.218170 0.330000 -0.464469
O13   O     O_R   0.320940 0.626760 0.674370 -0.466425
O14   O     O_R   0.679060 0.626760 0.325630 -0.462557
O15   O     O_R   0.820940 0.126760 0.674370 -0.445122
O16   O     O_R   0.179060 0.126760 0.325630 -0.457817
O17   O     O_3   0.334530 0.834540 0.749640 -0.350727
O18   O     O_3   0.665470 0.834540 0.250360 -0.360293
O19   O     O_3   0.834530 0.334540 0.749640 -0.320696
O20   O     O_3   0.165470 0.334540 0.250360 -0.362119
O21   O     O_R   0.236990 0.958390 0.823710 -0.487634
O22   O     O_R   0.763010 0.958390 0.176290 -0.495283
O23   O     O_R   0.736990 0.458390 0.823710 -0.487231
O24   O     O_R   0.263010 0.458390 0.176290 -0.494184
O25   O     O_R   0.332380 0.074750 0.830850 -0.456712
O26   O     O_R   0.667620 0.074750 0.169150 -0.446516
O27   O     O_R   0.832380 0.574750 0.830850 -0.467303
O28   O     O_R   0.167620 0.574750 0.169150 -0.446783
O29   O     O_R   0.445800 0.917770 0.825070 -0.470510
O30   O     O_R   0.554200 0.917770 0.174930 -0.480340
O31   O     O_R   0.945800 0.417770 0.825070 -0.482395
O32   O     O_R   0.054200 0.417770 0.174930 -0.478476
O33   O     O_R   0.456410 0.716580 0.829970 -0.425618
O34   O     O_R   0.543590 0.716580 0.170030 -0.431079
O35   O     O_R   0.956410 0.216580 0.829970 -0.424133
O36   O     O_R   0.043590 0.216580 0.170030 -0.434336
O37   O     O_R   0.321080 0.625290 0.822650 -0.481519
O38   O     O_R   0.678920 0.625290 0.177350 -0.489292
O39   O     O_R   0.821080 0.125290 0.822650 -0.480138
O40   O     O_R   0.178920 0.125290 0.177350 -0.487586
O41   O     O_R   0.214930 0.711450 0.668160 -0.472225
O42   O     O_R   0.785070 0.711450 0.331840 -0.480350
O43   O     O_R   0.714930 0.211450 0.668160 -0.472411
O44   O     O_R   0.285070 0.211450 0.331840 -0.482278
O45   O     O_R   0.236850 0.959870 0.675420 -0.484370
O46   O     O_R   0.763150 0.959870 0.324580 -0.492898
O47   O     O_R   0.736850 0.459870 0.675420 -0.482377
O48   O     O_R   0.263150 0.459870 0.324580 -0.488353
O49   O     O_R   0.332230 0.076350 0.670880 -0.434018
O50   O     O_R   0.667770 0.076350 0.329120 -0.430715
O51   O     O_R   0.832230 0.576350 0.670880 -0.429453
O52   O     O_R   0.167770 0.576350 0.329120 -0.427242
O53   O     O_3   0.533081 0.624384 0.924808 -0.623444
H5    H     H_    0.554720 0.566754 0.958114 0.363903
O54   O     O_3   0.484080 0.613937 0.068794 -0.631653
H6    H     H_    0.469771 0.552210 0.033735 0.361951
O55   O     O_3   0.054574 0.138388 0.913058 -0.623759
H7    H     H_    0.085964 0.089383 0.942683 0.355876
O56   O     O_3   0.021365 0.109189 0.059703 -0.625061
H8    H     H_    0.013962 0.044420 0.024279 0.378819
O57   O     O_3   0.100221 0.512068 0.453678 -0.656953
H9    H     H_    0.066770 0.525813 0.493034 0.373822
O58   O     O_3   0.882976 0.532483 0.554771 -0.626684
H10   H     H_    0.919369 0.551895 0.519396 0.374377
O59   O     O_3   0.601794 0.002140 0.455044 -0.654040
H11   H     H_    0.568130 0.018419 0.493829 0.388276
O60   O     O_3   0.382749 0.040820 0.554535 -0.649752
H12   H     H_    0.418623 0.062575 0.519112 0.380982
Br1   Br    Br    0.117960 0.726481 0.561773 -0.324338
Br2   Br    Br    0.876382 0.743638 0.440816 -0.313139
Br3   Br    Br    0.615985 0.220520 0.563034 -0.318679
Br4   Br    Br    0.372231 0.254106 0.442520 -0.325141
Br5   Br    Br    0.285017 0.407572 0.577679 -0.458144
Br6   Br    Br    0.705004 0.428141 0.436701 -0.425476
Br7   Br    Br    0.789524 0.910985 0.575050 -0.461070
Br8   Br    Br    0.206550 0.929036 0.437202 -0.419915
O61   O     O_3   0.448255 0.039789 0.144491 -0.636007
H13   H     H_    0.432939 0.119914 0.162242 0.400462
O62   O     O_3   0.532329 0.064737 0.862888 -0.666345
H14   H     H_    0.537625 0.148952 0.846580 0.386622
O63   O     O_3   0.945218 0.529177 0.140840 -0.638016
H15   H     H_    0.928536 0.608139 0.159187 0.401763
O64   O     O_3   0.032754 0.570092 0.860742 -0.667777
H16   H     H_    0.035817 0.655434 0.845818 0.385250
O65   O     O_3   0.978362 0.756758 0.088264 -0.627842
H17   H     H_    0.000277 0.827034 0.065218 0.382354
O66   O     O_3   0.996985 0.776546 0.937328 -0.640881
H18   H     H_    0.961359 0.827621 0.960632 0.386306
O67   O     O_3   0.484420 0.262036 0.090360 -0.627770
H19   H     H_    0.478969 0.337279 0.063770 0.374253
O68   O     O_3   0.504031 0.276071 0.935770 -0.627250
H20   H     H_    0.520370 0.341589 0.966992 0.371081
Br9   Br    Br    0.335947 0.364460 0.062521 -0.363621
Br10  Br    Br    0.659448 0.366456 0.933075 -0.415177
Br11  Br    Br    0.836073 0.870128 0.059965 -0.360169
Br12  Br    Br    0.154166 0.868703 0.931898 -0.377153
Br13  Br    Br    0.390466 0.481562 0.916391 -0.349858
Br14  Br    Br    0.617736 0.457602 0.088667 -0.352891
Br15  Br    Br    0.900034 0.040647 0.932360 -0.425321
Br16  Br    Br    0.134248 0.923743 0.098095 -0.324420
O69   O     O_3   0.234944 0.701930 0.059735 -0.616923
H21   H     H_    0.268709 0.733546 0.024508 0.317729
O70   O     O_3   0.765785 0.698167 0.944160 -0.629538
H22   H     H_    0.731052 0.728737 0.979049 0.340215
O71   O     O_3   0.732521 0.207115 0.063893 -0.621187
H23   H     H_    0.765847 0.242223 0.029420 0.322865
O72   O     O_3   0.267002 0.191876 0.947674 -0.614556
H24   H     H_    0.231615 0.221175 0.982272 0.335943
O73   O     O_3   0.181448 0.570121 0.947617 -0.675758
H25   H     H_    0.147994 0.600309 0.912156 0.387096
O74   O     O_3   0.822096 0.575377 0.057738 -0.644902
H26   H     H_    0.829922 0.506072 0.025106 0.313168
O75   O     O_3   0.682512 0.062305 0.946107 -0.679233
H27   H     H_    0.649365 0.081180 0.907739 0.379179
O76   O     O_3   0.325059 0.077080 0.059362 -0.637532
H28   H     H_    0.334830 0.008231 0.026909 0.312965
O77   O     O_3   0.475770 0.630602 0.432971 -0.641133
H29   H     H_    0.459968 0.579305 0.472762 0.370725
O78   O     O_3   0.354485 0.759937 0.530106 -0.721988
H30   H     H_    0.331824 0.732526 0.485577 0.341351
O79   O     O_3   0.014500 0.144695 0.451748 -0.647944
H31   H     H_    0.009358 0.098511 0.496276 0.366602
O80   O     O_3   0.881523 0.274076 0.544521 -0.678811
H32   H     H_    0.857119 0.240662 0.502332 0.328103
O81   O     O_3   0.442253 0.952248 0.408544 -0.683158
H33   H     H_    0.392803 0.940532 0.423073 0.329193
O82   O     O_3   0.540019 0.833060 0.562434 -0.698545
H34   H     H_    0.556918 0.801315 0.516512 0.337690
O83   O     O_3   0.937081 0.438192 0.408746 -0.691045
H35   H     H_    0.891425 0.415492 0.429849 0.331111
O84   O     O_3   0.070363 0.333402 0.570491 -0.729685
H36   H     H_    0.084030 0.314002 0.521297 0.346524

loop_
_geom_bond_atom_site_label_1
_geom_bond_atom_site_label_2
_ccdc_geom_bond_type
Cr12  O40   S    
C16   C28   D    
C77   C78   A    
O70   H22   S    
C38   C70   S    
O58   H10   S    
C45   O29   A    
O55   H7    S    
C37   C69   S    
C6    O62   S    
C44   H4    S    
O69   H21   S    
C54   Br2   S    
C35   C36   S    
C30   O81   S    
Cr4   O24   S    
C67   O7    A    
O57   H9    S    
Cr10  O14   S    
Cr5   O29   S    
Cr12  O36   S    
C60   O4    A    
Cr5   O25   S    
O71   H23   S    
C70   O14   A    
C31   C67   S    
Cr12  O12   S    
C69   O13   A    
O59   H11   S    
Cr3   O47   S    
C14   O74   S    
C64   O52   A    
Cr6   O18   S    
C7    C79   A    
Cr8   O32   S    
C43   H3    S    
C47   C76   S    
C5    C11   A    
C9    O65   S    
C42   H2    S    
C52   O60   S    
C16   C60   S    
C3    O27   A    
C75   C84   A    
C6    C78   A    
Cr7   O31   S    
C24   Br12  S    
C69   O41   A    
Cr2   O46   S    
C81   O53   S    
C4    O24   A    
C3    C18   S    
C7    C9    A    
C68   O12   A    
C63   O47   A    
O82   H34   S    
C61   O45   A    
C22   C26   S    
Cr9   O33   S    
Cr8   O8    S    
C39   C55   D    
C83   C84   A    
Cr11  O15   S    
C40   C56   D    
C83   O55   S    
Cr2   O22   S    
Cr1   O21   S    
C18   O70   S    
C58   O2    A    
C23   C27   S    
Cr4   O20   S    
C62   O50   A    
C9    C10   A    
C21   Br9   S    
C49   O57   S    
Cr6   O50   S    
C32   C68   S    
C37   C53   D    
C44   C52   D    
Cr5   O49   S    
C50   O58   S    
C56   Br4   S    
C48   C75   S    
C13   C25   D    
Cr9   O17   S    
C66   O6    A    
Cr12  O20   S    
Cr8   O28   S    
C76   C83   A    
C55   Br3   S    
Cr4   O4    S    
C84   O56   S    
C3    O23   A    
C10   O66   S    
C28   Br16  S    
C48   O32   A    
C2    O22   A    
Cr6   O26   S    
C14   C58   S    
C70   O42   A    
C4    O28   A    
C71   O15   A    
O72   H24   S    
C32   C35   D    
Cr7   O7    S    
C27   Br15  S    
Cr6   O6    S    
O80   H32   S    
C39   Br7   S    
Cr1   O41   S    
O60   H12   S    
C40   Br8   S    
C7    O63   S    
C34   O78   S    
Cr9   O13   S    
C51   C55   S    
Cr11  O19   S    
O77   H29   S    
O63   H15   S    
C29   C34   D    
Cr10  O10   S    
C81   C82   A    
O68   H20   S    
C47   O31   A    
C45   C74   S    
C11   O67   S    
C16   O76   S    
C19   C23   D    
O76   H28   S    
O74   H26   S    
Cr3   O19   S    
O83   H35   S    
C13   O73   S    
C46   O34   A    
O79   H31   S    
C45   O33   A    
C15   C27   D    
O56   H8    S    
C38   C54   D    
Cr4   O44   S    
C59   O39   A    
Cr1   O17   S    
C63   O51   A    
C14   C26   D    
Cr11  O35   S    
O73   H25   S    
Cr4   O48   S    
C57   O37   A    
Cr2   O18   S    
C50   C54   S    
C66   O10   A    
C31   O84   S    
C17   O69   S    
C36   O80   S    
C5    O61   S    
C30   C66   S    
O62   H14   S    
Cr7   O27   S    
C42   C50   D    
C29   C65   S    
C4    C17   S    
C2    O26   A    
C8    O64   S    
C67   O11   A    
C60   O40   A    
C58   O38   A    
C33   O77   S    
C8    C80   A    
C74   C78   A    
Cr10  O38   S    
C41   H1    S    
C51   O59   S    
C76   C80   A    
C82   O54   S    
C74   C81   A    
C5    C77   A    
Cr2   O2    S    
C6    C12   A    
C73   C82   A    
O78   H30   S    
Cr1   O1    S    
Cr2   O42   S    
C71   O43   A    
C72   O44   A    
C12   O68   S    
C21   C25   S    
C32   O83   S    
C1    C20   S    
C73   C77   A    
C40   C72   S    
C30   C33   D    
O81   H33   S    
C2    C19   S    
C18   C22   D    
C15   C59   S    
C48   O36   A    
C22   Br10  S    
C24   C28   S    
Cr5   O17   S    
C46   O30   A    
C11   C12   A    
C65   O5    A    
C25   Br13  S    
C15   O75   S    
C53   Br1   S    
C44   C61   S    
C41   C49   D    
C57   O1    A    
C72   O16   A    
Cr11  O39   S    
C41   C64   S    
C1    O25   A    
C59   O3    A    
Cr7   O51   S    
C35   O79   S    
Cr8   O20   S    
Cr3   O3    S    
O66   H18   S    
Cr11  O11   S    
Cr3   O23   S    
Cr10  O18   S    
C43   C51   D    
O65   H17   S    
C65   O9    A    
C75   C79   A    
O75   H27   S    
Cr1   O45   S    
Cr10  O34   S    
C29   O82   S    
C33   C34   S    
Cr7   O19   S    
C47   O35   A    
O67   H19   S    
C26   Br14  S    
O64   H16   S    
C1    O21   A    
C49   C53   S    
C38   Br6   S    
C37   Br5   S    
C79   C80   A    
Cr6   O30   S    
Cr8   O52   S    
C13   C57   S    
C8    C10   A    
O61   H13   S    
C62   O46   A    
Cr5   O5    S    
O84   H36   S    
C19   O71   S    
C39   C71   S    
C31   C36   D    
Cr12  O16   S    
Cr9   O37   S    
C68   O8    A    
C20   O72   S    
Cr3   O43   S    
O53   H5    S    
O54   H6    S    
C61   O49   A    
C42   C63   S    
C20   C24   D    
C46   C73   S    
C64   O48   A    
C23   Br11  S    
C52   C56   S    
C43   C62   S    
Cr9   O9    S    
C17   C21   D    
