data_mof_unit_31235.cif
_audit_creation_date              2012-12-11T16:08:40-0500
_audit_creation_method            fapswitch 2.2
_symmetry_space_group_name_H-M    P1
_symmetry_Int_Tables_number       1
_space_group_crystal_system       triclinic
_cell_length_a                    12.980748
_cell_length_b                    13.27731
_cell_length_c                    27.724854
_cell_angle_alpha                 95.008067
_cell_angle_beta                  90.11043
_cell_angle_gamma                 119.33874
_cell_volume                      4144.07805241

loop_
_atom_site_label
_atom_site_type_symbol
_atom_type_description
_atom_site_fract_x
_atom_site_fract_y
_atom_site_fract_z
_atom_type_partial_charge
C1    C     C_R   0.627852 0.895182 0.427458 0.547221
C2    C     C_R   0.580981 0.255422 0.219796 -0.104791
C3    C     C_R   0.569571 0.239511 0.269101 -0.102876
C4    C     C_R   0.663304 0.311771 0.302786 0.035956
C5    C     C_R   0.686477 0.343357 0.203814 0.035454
C6    C     C_1   0.695032 0.366745 0.153764 -0.058252
C7    C     C_1   0.650107 0.292666 0.353315 -0.058590
C8    C     C_1   0.703487 0.394488 0.113048 -0.014339
C9    C     C_R   0.201039 0.756729 0.347452 -0.130280
C10   C     C_R   0.190078 0.751984 0.297607 0.008421
C11   C     C_R   0.177128 0.747286 0.197130 0.009851
C12   C     C_R   0.600909 0.221671 0.440462 0.545188
C13   C     C_R   0.191283 0.662483 0.218157 -0.131761
C14   C     C_R   0.195726 0.663710 0.268232 -0.133955
C15   C     C_R   0.161145 0.739603 0.147298 -0.130183
C16   C     C_R   0.127988 0.812728 0.126604 -0.006161
C17   C     C_R   0.197128 0.938719 0.356823 -0.137271
C18   C     C_R   0.178255 0.931197 0.306605 0.010895
C19   C     C_R   0.179461 0.839813 0.276899 0.060572
C20   C     C_R   0.163531 0.015678 0.285308 -0.134131
C21   C     C_R   0.149036 0.008895 0.234928 -0.133082
C22   C     C_R   0.152296 0.919343 0.205283 0.010370
C23   C     C_R   0.269493 0.876060 0.425450 0.546307
C24   C     C_R   0.170598 0.836158 0.226424 0.059763
C25   C     C_R   0.130366 0.906778 0.155149 -0.136430
C26   C     C_R   0.213553 0.853896 0.377007 -0.004391
C27   C     C_R   0.753690 0.935389 0.357903 -0.129255
C28   C     C_R   0.759613 0.925874 0.307986 0.012609
C29   C     C_R   0.762838 0.915366 0.207306 0.011958
C30   C     C_R   0.855006 0.008726 0.235704 -0.126933
C31   C     C_R   0.854328 0.013028 0.285894 -0.126076
C32   C     C_R   0.767205 0.907524 0.157406 -0.127127
C33   C     C_R   0.685740 0.805867 0.129032 -0.005653
C34   C     C_R   0.627593 0.898305 0.564646 0.546988
C35   C     C_R   0.561561 0.759663 0.352013 -0.133296
C36   C     C_R   0.568669 0.745894 0.301838 0.014387
C37   C     C_R   0.665892 0.831938 0.279661 0.062099
C38   C     C_R   0.477583 0.651548 0.273186 -0.126926
C39   C     C_R   0.482976 0.642536 0.222752 -0.126859
C40   C     C_R   0.578083 0.729248 0.200413 0.014672
C41   C     C_R   0.668615 0.825577 0.229106 0.062330
C42   C     C_R   0.587986 0.719081 0.150200 -0.135743
C43   C     C_R   0.651140 0.857912 0.379628 -0.005096
C44   C     C_R   0.741887 0.301179 0.651340 -0.138995
C45   C     C_R   0.603308 0.227691 0.578321 0.545396
C46   C     C_R   0.755794 0.324615 0.701808 0.006485
C47   C     C_R   0.770980 0.352706 0.803696 0.005725
C48   C     C_R   0.861351 0.347239 0.777948 -0.140486
C49   C     C_R   0.853043 0.331740 0.727275 -0.140397
C50   C     C_R   0.779293 0.371347 0.854339 -0.138474
C51   C     C_R   0.688843 0.379166 0.879174 -0.005816
C52   C     C_R   0.560847 0.313201 0.652359 -0.135193
C53   C     C_R   0.570099 0.330480 0.702498 0.001453
C54   C     C_R   0.666731 0.334154 0.727501 0.056896
C55   C     C_R   0.479828 0.336213 0.727970 -0.143690
C56   C     C_R   0.271816 0.879495 0.563438 0.546945
C57   C     C_R   0.483537 0.342503 0.778243 -0.143013
C58   C     C_R   0.579306 0.346601 0.803431 0.001189
C59   C     C_R   0.672406 0.344372 0.778223 0.056116
C60   C     C_R   0.585877 0.358663 0.853591 -0.133341
C61   C     C_R   0.640839 0.289056 0.626958 -0.006879
C62   C     C_1   0.222193 0.863050 0.610168 -0.012623
C63   C     C_R   0.076783 0.746675 0.718020 -0.103727
C64   C     C_R   0.061721 0.736594 0.767634 -0.103534
C65   C     C_R   0.233099 0.927689 0.786040 -0.104869
C66   C     C_R   0.248107 0.937815 0.736397 -0.104438
C67   C     C_1   0.632254 0.267347 0.394397 -0.014566
C68   C     C_R   0.170336 0.847122 0.702283 0.036050
C69   C     C_R   0.140448 0.826584 0.801754 0.036407
C70   C     C_1   0.123574 0.814258 0.852649 -0.058194
C71   C     C_1   0.193364 0.854166 0.651568 -0.057507
C72   C     C_1   0.100235 0.797122 0.894248 -0.014254
C73   C     C_1   0.647493 0.860946 0.609006 -0.014528
C74   C     C_R   0.692120 0.904678 0.735044 -0.104175
C75   C     C_R   0.702535 0.887874 0.783399 -0.102245
C76   C     C_R   0.679780 0.698124 0.758148 -0.106427
C77   C     C_R   0.669132 0.714931 0.709560 -0.105326
C78   C     C_R   0.769281 0.399112 0.286803 -0.106149
C79   C     C_R   0.675414 0.818489 0.697993 0.036799
C80   C     C_R   0.696168 0.784648 0.795129 0.036445
C81   C     C_1   0.709905 0.770176 0.845124 -0.058557
C82   C     C_1   0.661291 0.837368 0.648661 -0.057811
C83   C     C_1   0.724882 0.761819 0.887178 -0.011378
C84   C     C_R   0.065534 0.773236 0.079020 0.549724
C85   C     C_R   0.717032 0.441487 0.067310 0.548921
C86   C     C_R   0.720608 0.782867 0.081063 0.558256
C87   C     C_R   0.056480 0.766203 0.941223 0.538384
C88   C     C_R   0.710261 0.434215 0.928919 0.536828
C89   C     C_R   0.780701 0.415048 0.237428 -0.104331
C90   C     C_R   0.748464 0.754404 0.936895 0.563383
Cr1   Cr    Cr6+3 0.416430 0.829200 0.492370 1.021425
Cr2   Cr    Cr6+3 0.674630 0.087020 0.504170 1.021189
Cr3   Cr    Cr6+3 0.408920 0.083740 0.503490 1.021264
Cr4   Cr    Cr6+3 0.914010 0.832750 0.013970 1.016986
Cr5   Cr    Cr6+3 0.922310 0.578600 0.003000 1.017074
Cr6   Cr    Cr6+3 0.656280 0.574630 0.003870 1.021125
H1    H     H_    0.842560 0.455051 0.312418 0.112078
H2    H     H_    0.134940 0.073305 0.219175 0.101568
H3    H     H_    0.162318 0.086287 0.307585 0.104687
H4    H     H_    0.205673 0.013276 0.379645 0.123269
H5    H     H_    0.841766 0.976256 0.141285 0.132365
H6    H     H_    0.824061 0.010242 0.379202 0.132222
H7    H     H_    0.928489 0.077309 0.219098 0.099701
H8    H     H_    0.926357 0.085772 0.307398 0.102848
H9    H     H_    0.524255 0.641106 0.128248 0.124234
H10   H     H_    0.412761 0.568178 0.201255 0.103583
H11   H     H_    0.402357 0.584915 0.289770 0.099864
H12   H     H_    0.482815 0.698786 0.368903 0.122571
H13   H     H_    0.858634 0.386447 0.874031 0.128959
H14   H     H_    0.804875 0.284396 0.631643 0.127649
H15   H     H_    0.937778 0.353940 0.796983 0.113688
H16   H     H_    0.922217 0.324778 0.708036 0.113023
H17   H     H_    0.514780 0.362947 0.872447 0.137949
H18   H     H_    0.404910 0.332721 0.708981 0.113299
H19   H     H_    0.484003 0.306620 0.633647 0.135705
H20   H     H_    0.016830 0.675598 0.692052 0.113599
H21   H     H_    0.507106 0.200324 0.194300 0.114467
H22   H     H_    0.989308 0.658197 0.779404 0.117545
H23   H     H_    0.294067 0.998002 0.812044 0.114373
H24   H     H_    0.321474 0.015505 0.724621 0.119998
H25   H     H_    0.696643 0.984864 0.726538 0.117302
H26   H     H_    0.715754 0.955495 0.811643 0.116407
H27   H     H_    0.675362 0.618127 0.766846 0.121684
H28   H     H_    0.655718 0.647468 0.681219 0.113355
H29   H     H_    0.487384 0.171198 0.281003 0.120337
H30   H     H_    0.162020 0.668424 0.125245 0.132971
H31   H     H_    0.211608 0.689627 0.362698 0.131319
H32   H     H_    0.195683 0.593538 0.195894 0.104238
H33   H     H_    0.205230 0.596650 0.283999 0.099604
H34   H     H_    0.106398 0.964495 0.139065 0.123796
O1    O     O_R   0.296680 0.802170 0.437540 -0.524698
O2    O     O_R   0.662610 0.183990 0.557860 -0.502128
O3    O     O_R   0.500730 0.201280 0.562180 -0.519949
O4    O     O_R   0.312500 0.978850 0.548170 -0.494676
O5    O     O_3   0.499990 0.999990 0.500010 -0.242236
O6    O     O_R   0.820790 0.857990 0.068830 -0.519772
O7    O     O_R   0.016700 0.827330 0.062850 -0.501941
O8    O     O_R   0.041970 0.673520 0.060040 -0.516994
O9    O     O_R   0.817980 0.483660 0.048840 -0.491314
O10   O     O_R   0.637200 0.461990 0.052510 -0.508833
O11   O     O_R   0.664790 0.681920 0.057970 -0.494476
O12   O     O_R   0.525380 0.838530 0.443500 -0.503564
O13   O     O_R   0.815840 0.852920 0.961840 -0.503917
O14   O     O_R   0.012100 0.822630 0.963670 -0.511530
O15   O     O_R   0.037010 0.668460 0.953040 -0.508104
O16   O     O_R   0.813390 0.478970 0.949660 -0.503616
O17   O     O_R   0.632250 0.456930 0.945520 -0.527865
O18   O     O_R   0.660200 0.677230 0.958780 -0.491878
O19   O     O_3   0.830870 0.661990 0.006950 -0.264661
O20   O     O_R   0.702130 0.995190 0.446810 -0.519661
O21   O     O_R   0.661770 0.181390 0.458760 -0.494442
O22   O     O_R   0.499820 0.198480 0.455280 -0.510364
O23   O     O_R   0.311660 0.976250 0.449080 -0.500138
O24   O     O_R   0.297580 0.804960 0.544440 -0.507014
O25   O     O_R   0.526220 0.841130 0.542590 -0.494199
O26   O     O_R   0.703030 0.997990 0.553710 -0.510583
H35   H     H_    0.862302 0.484230 0.225556 0.119387
H36   H     H_    0.412353 0.345639 0.797443 0.113790

loop_
_geom_bond_atom_site_label_1
_geom_bond_atom_site_label_2
_ccdc_geom_bond_type
C39   H10   S    
C66   C68   A    
C57   H36   S    
C17   C26   A    
C75   H26   S    
C12   O22   A    
C35   C36   A    
Cr5   O15   S    
C42   H9    S    
C34   O25   A    
Cr4   O19   S    
C4    C78   A    
C46   C49   A    
C9    H31   S    
C5    C6    S    
Cr4   O13   S    
C36   C37   A    
Cr2   O2    S    
C18   C19   A    
C29   C32   A    
Cr3   O3    S    
C52   C61   A    
C38   C39   A    
Cr1   O1    S    
C58   C60   A    
C15   C16   A    
C11   C24   A    
C16   C84   S    
C64   H22   S    
C8    C85   S    
C23   C26   S    
C45   C61   S    
C38   H11   S    
Cr6   O17   S    
C23   O23   A    
C90   O18   A    
C1    O12   A    
Cr6   O11   S    
C13   H32   S    
C11   C15   A    
C1    C43   S    
C22   C25   A    
C30   H7    S    
C74   H25   S    
Cr4   O6    S    
Cr5   O19   S    
C87   O14   A    
C35   C43   A    
C75   C80   A    
C85   O9    A    
C18   C20   A    
C90   O13   A    
Cr1   O12   S    
C40   C42   A    
C84   O8    A    
C66   H24   S    
C21   C22   A    
C12   O21   A    
C60   H17   S    
Cr5   O16   S    
Cr2   O21   S    
C4    C7    S    
C25   H34   S    
C81   C83   T    
C2    H21   S    
C44   C46   A    
C9    C26   A    
C50   C51   A    
C47   C50   A    
C54   C59   A    
C53   C55   A    
C78   C89   A    
Cr6   O18   S    
C12   C67   S    
C74   C75   A    
C76   C77   A    
Cr1   O24   S    
C56   O24   A    
Cr3   O4    S    
C10   C14   A    
C39   C40   A    
C6    C8    T    
C58   C59   A    
C53   C54   A    
C47   C59   A    
C15   H30   S    
C50   H13   S    
C33   C86   S    
Cr1   O25   S    
C29   C30   A    
C47   C48   A    
C10   C19   A    
C35   H12   S    
C46   C54   A    
C78   H1    S    
C17   C18   A    
C65   H23   S    
C77   C79   A    
C23   O1    A    
C1    O20   A    
Cr2   O26   S    
C64   C69   A    
C85   O10   A    
C49   H16   S    
C63   H20   S    
C86   O6    A    
C48   C49   A    
C84   O7    A    
C74   C79   A    
C55   C57   A    
Cr2   O20   S    
C56   C62   S    
Cr2   O5    S    
C33   C42   A    
C3    C4    A    
C73   C82   T    
C72   C87   S    
C52   C53   A    
C9    C10   A    
C52   H19   S    
C16   C25   A    
C83   C90   S    
C63   C68   A    
C40   C41   A    
Cr5   O8    S    
C87   O15   A    
C29   C41   A    
C76   H27   S    
Cr5   O9    S    
C28   C31   A    
C76   C80   A    
C80   C81   S    
Cr3   O5    S    
C51   C88   S    
Cr6   O10   S    
C79   C82   S    
C56   O4    A    
C3    H29   S    
C89   H35   S    
C55   H18   S    
C34   O26   A    
C44   C61   A    
C27   H6    S    
C45   O3    A    
Cr4   O14   S    
C32   C33   A    
Cr3   O23   S    
C19   C24   A    
C77   H28   S    
C31   H8    S    
C21   H2    S    
C11   C13   A    
C57   C58   A    
C30   C31   A    
C20   H3    S    
C28   C37   A    
C68   C71   S    
C65   C69   A    
Cr6   O19   S    
C36   C38   A    
C88   O17   A    
C62   C71   T    
C2    C3    A    
C22   C24   A    
C37   C41   A    
C69   C70   S    
C17   H4    S    
C34   C73   S    
C7    C67   T    
C63   C64   A    
C2    C5    A    
C27   C43   A    
C48   H15   S    
Cr1   O5    S    
C20   C21   A    
C45   O2    A    
C65   C66   A    
C27   C28   A    
Cr4   O7    S    
C88   O16   A    
C32   H5    S    
Cr3   O22   S    
C70   C72   T    
C51   C60   A    
C13   C14   A    
C5    C89   A    
C86   O11   A    
C14   H33   S    
C44   H14   S    
