data_mof_unit_16337.cif
_audit_creation_date              2013-03-05T16:32:41-0500
_audit_creation_method            fapswitch 2.2
_symmetry_space_group_name_H-M    P1
_symmetry_Int_Tables_number       1
_space_group_crystal_system       triclinic
_cell_length_a                    9.599425
_cell_length_b                    10.739481
_cell_length_c                    17.339922
_cell_angle_alpha                 90.463333
_cell_angle_beta                  86.154486
_cell_angle_gamma                 89.839703
_cell_volume                      1783.52871631

loop_
_atom_site_label
_atom_site_type_symbol
_atom_site_description
_atom_site_fract_x
_atom_site_fract_y
_atom_site_fract_z
_atom_type_partial_charge
O1    O     O_R   0.381190 0.680360 0.500000 -0.530793
O2    O     O_R   0.618770 0.680320 0.499990 -0.553909
C1    C     C_R   0.499755 0.737342 0.499808 0.812376
O3    O     O_R   0.367430 0.500040 0.613600 -0.567752
O4    O     O_R   0.605020 0.500000 0.613590 -0.547142
C2    C     C_R   0.482096 0.498402 0.649845 0.848338
Cu1   Cu    Cu3+1 0.359330 0.500020 0.500000 1.076058
Cu2   Cu    Cu3+1 0.640670 0.499980 0.500000 1.082244
O5    O     O_R   0.381230 0.319680 0.500010 -0.596396
O6    O     O_R   0.618810 0.319640 0.500000 -0.560486
O7    O     O_R   0.394980 0.500000 0.386410 -0.517550
O8    O     O_R   0.632570 0.499960 0.386400 -0.552323
C3    C     C_R   0.500004 0.262816 0.500623 0.783966
C4    C     C_R   0.517859 0.499252 0.349814 0.857428
C5    C     C_R   0.474262 0.496410 0.734476 -0.170294
C6    C     C_R   0.597186 0.486017 0.773068 -0.165573
C7    C     C_R   0.594023 0.491654 0.853353 0.299582
C8    C     C_R   0.463725 0.502667 0.896131 -0.100400
C9    C     C_R   0.338576 0.510317 0.857718 0.311989
C10   C     C_R   0.345667 0.507035 0.776991 -0.183818
C11   C     C_R   0.399502 0.482288 0.147429 -0.200174
C12   C     C_R   0.403135 0.515016 0.224806 0.323029
C13   C     C_R   0.642441 0.434253 0.223126 0.195996
C14   C     C_R   0.638161 0.406154 0.143892 0.292183
C15   C     C_R   0.516419 0.431977 0.106093 -0.079019
C16   C     C_2   0.458077 0.509276 0.980453 -0.077315
C17   C     C_2   0.514696 0.419688 0.021723 -0.028873
C18   C     C_R   0.524088 0.487978 0.264580 -0.308158
H1    H     H_    0.567744 0.341818 0.992136 0.205367
C19   C     C_R   0.444565 0.935873 0.440744 0.173276
C20   C     C_R   0.497505 0.870821 0.501642 -0.079336
C21   C     C_R   0.538578 0.935560 0.566862 -0.078321
C22   C     C_R   0.538389 0.065586 0.567299 -0.105793
H2    H     H_    0.572810 0.115821 0.616977 0.182381
C23   C     C_R   0.498168 0.129659 0.502281 -0.104195
C24   C     C_R   0.445756 0.064517 0.441012 0.146465
C25   C     C_3   0.494406 0.070522 0.357552 -0.426670
C26   C     C_3   0.492047 0.929573 0.356890 -0.417509
H3    H     H_    0.601224 0.109905 0.348215 0.223769
H4    H     H_    0.410579 0.891587 0.320944 0.269812
H5    H     H_    0.597215 0.886553 0.346316 0.217898
C27   C     C_R   0.932471 0.415453 0.456656 0.121518
N1    N     N_R   0.852130 0.499070 0.499500 -0.248399
C28   C     C_R   0.920827 0.589408 0.538711 0.362373
C29   C     C_R   0.069261 0.589262 0.538860 0.342506
N2    N     N_R   0.148040 0.499110 0.499500 -0.282677
C30   C     C_R   0.079419 0.417968 0.454353 0.157327
C31   C     C_3   0.088593 0.278674 0.455488 0.066209
C32   C     C_3   0.929824 0.275802 0.461505 0.065094
H6    H     H_    0.137635 0.240412 0.506582 0.162907
H7    H     H_    0.881148 0.231123 0.411893 0.183893
H8    H     H_    0.697239 0.477065 0.740756 0.241103
N3    N     N_R   0.759737 0.356198 0.101610 0.176152
O9    O     O_R   0.879194 0.412752 0.103335 -0.185662
O10   O     O_R   0.754127 0.248474 0.067139 -0.285025
H9    H     H_    0.573121 0.885778 0.616255 0.190130
H10   H     H_    0.415423 0.112555 0.321648 0.265590
N4    N     N_R   0.844013 0.682601 0.582921 0.156921
O11   O     O_R   0.810455 0.662794 0.655643 -0.313549
O12   O     O_R   0.844982 0.796502 0.557916 -0.276858
N5    N     N_R   0.134858 0.682925 0.582681 0.166334
O13   O     O_R   0.143293 0.795721 0.555965 -0.276369
O14   O     O_R   0.145919 0.665908 0.656121 -0.312122
N6    N     N_R   0.146292 0.224754 0.382398 0.136489
O15   O     O_R   0.134925 0.105676 0.370146 -0.300184
O16   O     O_R   0.212645 0.293081 0.330374 -0.308396
N7    N     N_R   0.283739 0.578710 0.261070 0.168490
O17   O     O_R   0.158391 0.546570 0.244767 -0.226578
O18   O     O_R   0.300167 0.681065 0.299946 -0.356769
N8    N     N_R   0.877127 0.226810 0.536524 0.131202
O19   O     O_R   0.878679 0.294105 0.599273 -0.340107
O20   O     O_R   0.855059 0.107800 0.542665 -0.279794
N9    N     N_R   0.765893 0.403671 0.261168 0.157146
O21   O     O_R   0.851505 0.491669 0.278537 -0.251694
O22   O     O_R   0.805300 0.288046 0.265159 -0.317227
N10   N     N_R   0.203899 0.520123 0.899378 0.153954
O23   O     O_R   0.177262 0.459570 0.963358 -0.272012
O24   O     O_R   0.102367 0.578765 0.869045 -0.224979
H11   H     H_    0.305353 0.501155 0.118337 0.228603
H12   H     H_    0.250038 0.511092 0.747534 0.239111
H13   H     H_    0.405869 0.589182 0.008347 0.185227
N11   N     N_R   0.724105 0.491252 0.890082 0.153708
O25   O     O_R   0.828054 0.423461 0.861608 -0.244718
O26   O     O_R   0.745582 0.570757 0.945035 -0.259228

loop_
_geom_bond_atom_site_label_1
_geom_bond_atom_site_label_2
_geom_bond_distance
_ccdc_geom_bond_type
C17   H1    1.085140 S    
N9    O21   1.300831 A    
C9    C10   1.397046 A    
C8    C16   1.460638 S    
Cu2   N1    2.029327 S    
Cu1   Cu2   2.700701 S    
N3    O9    1.301133 A    
Cu1   O7    1.976407 S    
C16   C17   1.339250 D    
C9    N10   1.441199 S    
N10   O24   1.301507 A    
C3    C23   1.430699 S    
O4    C2    1.299492 A    
O7    C4    1.301378 A    
C31   N6    1.463051 S    
N4    O12   1.300951 A    
C5    C6    1.399651 A    
C19   C26   1.495268 S    
C7    N11   1.439308 S    
N5    O14   1.299268 A    
O5    C3    1.292615 A    
C2    C5    1.464711 S    
C20   C21   1.402294 A    
C28   N4    1.428538 S    
C6    C7    1.391263 A    
C32   H7    1.112270 S    
C13   C14   1.407583 A    
N8    O19   1.302273 A    
C31   H6    1.111826 S    
C12   C18   1.420161 A    
C11   C12   1.386951 A    
N9    O22   1.300812 A    
C13   N9    1.433031 S    
O3    Cu1   1.976550 S    
C22   H2    1.083480 S    
N3    O10   1.300797 A    
C5    C10   1.398611 A    
C10   H12   1.080972 S    
N7    O17   1.301262 A    
Cu1   N2    2.028912 S    
N10   O23   1.301389 A    
C26   H5    1.112418 S    
O3    C2    1.303756 A    
C8    C9    1.414695 A    
C14   N3    1.436236 S    
C29   N2    1.375156 A    
N7    O18   1.300348 A    
C23   C24   1.390286 A    
N6    O16   1.301616 A    
N1    C28   1.375306 A    
C25   C26   1.513915 S    
C30   C31   1.498647 S    
Cu2   O8    1.976553 S    
C11   H11   1.083567 S    
C7    C8    1.414910 A    
C13   C18   1.421425 A    
C14   C15   1.405742 A    
C1    C20   1.433662 S    
C31   C32   1.521078 S    
O8    C4    1.307185 A    
C16   H13   1.086232 S    
N11   O26   1.301427 A    
C32   N8    1.466005 S    
C27   N1    1.364401 A    
C28   C29   1.425055 A    
Cu1   O5    1.947553 S    
C11   C15   1.395626 A    
N2    C30   1.366557 A    
C24   C25   1.492524 S    
O1    Cu1   1.948677 S    
O2    Cu2   1.947552 S    
C6    H8    1.082614 S    
O6    C3    1.294430 A    
O4    Cu2   1.976407 S    
C15   C17   1.469047 S    
C19   C24   1.381615 A    
C4    C18   1.479126 S    
N6    O15   1.300753 A    
O2    C1    1.294942 A    
N4    O11   1.299761 A    
C25   H3    1.112567 S    
C21   C22   1.396365 A    
C26   H4    1.108866 S    
C19   C20   1.394037 A    
C29   N5    1.428668 S    
C22   C23   1.401095 A    
C27   C30   1.408841 A    
N5    O13   1.301211 A    
C12   N7    1.438368 S    
C27   C32   1.503003 S    
Cu2   O6    1.948676 S    
N11   O25   1.301371 A    
N8    O20   1.300175 A    
O1    C1    1.293571 A    
C21   H9    1.083432 S    
C25   H10   1.110037 S    
