data_mof_unit_14059.cif
_audit_creation_date              2012-12-11T15:54:04-0500
_audit_creation_method            fapswitch 2.2
_symmetry_space_group_name_H-M    P1
_symmetry_Int_Tables_number       1
_space_group_crystal_system       triclinic
_cell_length_a                    10.78938
_cell_length_b                    10.869167
_cell_length_c                    17.029825
_cell_angle_alpha                 80.328348
_cell_angle_beta                  99.604123
_cell_angle_gamma                 119.526462
_cell_volume                      1704.80372853

loop_
_atom_site_label
_atom_site_type_symbol
_atom_type_description
_atom_site_fract_x
_atom_site_fract_y
_atom_site_fract_z
_atom_type_partial_charge
C1    C     C_R   0.360777 0.228874 0.627089 0.551872
C2    C     C_1   0.319549 0.157401 0.777781 -0.015340
C3    C     C_1   0.319858 0.681086 0.280257 -0.048730
C4    C     C_R   0.368562 0.654904 0.584874 0.575421
C5    C     C_1   0.299284 0.704760 0.209676 -0.094516
C6    C     C_R   0.798427 0.646659 0.148858 -0.003152
C7    C     C_R   0.767233 0.522028 0.200407 -0.094735
C8    C     C_R   0.758837 0.521203 0.279268 0.047063
C9    C     C_R   0.783811 0.755795 0.257806 -0.044638
C10   C     C_R   0.772663 0.747301 0.173968 -0.019900
C11   C     C_3   0.801830 0.400321 0.219305 -0.081561
C12   C     C_R   0.405036 0.824900 0.678452 0.382211
C13   C     C_3   0.800429 0.408908 0.307272 0.725455
C14   C     C_R   0.785374 0.641130 0.312184 -0.000984
C15   C     C_R   0.269707 0.063561 0.179317 -0.006049
C16   C     C_R   0.776194 0.618473 0.626722 0.570151
C17   C     C_R   0.177469 0.097250 0.206113 -0.034785
C18   C     C_R   0.197329 0.133129 0.281742 0.064684
C19   C     C_R   0.392076 0.081009 0.314731 -0.111573
C20   C     C_R   0.372492 0.044771 0.235929 -0.162122
C21   C     C_3   0.134892 0.207386 0.171185 -0.234773
C22   C     C_3   0.154021 0.244901 0.255272 0.232537
C23   C     C_R   0.388966 0.847060 0.753899 0.368365
C24   C     C_R   0.310853 0.138269 0.335119 -0.010658
C25   C     C_R   0.893021 0.702320 0.855902 0.549471
C26   C     C_R   0.281893 0.751284 0.883047 0.602282
C27   C     C_R   0.283460 0.112405 0.857482 0.542196
C28   C     C_R   0.348865 0.221549 0.402175 0.537260
C29   C     C_R   0.882127 0.686936 0.081456 0.547963
C30   C     C_R   0.285734 0.737267 0.125743 0.537336
C31   C     C_R   0.248960 0.042240 0.095089 0.556959
C32   C     C_R   0.362805 0.656446 0.361737 0.569204
C33   C     C_R   0.765079 0.619887 0.396877 0.557742
C34   C     C_3   0.059499 0.472160 0.778453 -0.048149
C35   C     C_R   0.285180 0.736422 0.800660 -0.061012
C36   C     C_R   0.190546 0.612366 0.765129 -0.101946
C37   C     C_R   0.207440 0.588400 0.692858 -0.026210
C38   C     C_3   0.074356 0.373813 0.852977 -0.276240
C39   C     C_3   0.225761 0.392001 0.877085 -0.393810
C40   C     C_3   0.089488 0.315352 0.686185 -0.211102
C41   C     C_3   0.997152 0.237536 0.613468 -0.276167
C42   C     C_3   0.836946 0.900016 0.285337 -0.218945
C43   C     C_3   0.720874 0.937717 0.292927 -0.337496
C44   C     C_3   0.677619 0.793054 0.116102 -0.233960
C45   C     C_3   0.073347 0.446358 0.693792 0.373190
C46   C     C_3   0.747918 0.949149 0.084411 -0.406147
C47   C     C_3   0.946280 0.428473 0.198777 -0.206032
C48   C     C_3   0.922824 0.344077 0.129541 -0.387469
C49   C     C_R   0.319930 0.689698 0.648783 -0.043560
C50   C     C_1   0.823098 0.656591 0.705910 -0.025708
C51   C     C_1   0.851423 0.684826 0.773665 -0.041648
C52   C     C_1   0.344211 0.185621 0.709341 0.007434
Cr1   Cr    Cr6+3 0.608440 0.389080 0.519680 1.178291
Cr2   Cr    Cr6+3 0.288640 0.400090 0.490760 1.071138
Cr3   Cr    Cr6+3 0.602940 0.710800 0.489510 1.044495
Cr4   Cr    Cr6+3 0.052530 0.947560 0.964210 0.984394
Cr5   Cr    Cr6+3 0.059970 0.626800 0.992920 0.954120
Cr6   Cr    Cr6+3 0.373320 0.938440 0.995370 1.018392
F1    F     F_    0.508895 0.934597 0.636711 -0.574983
F2    F     F_    0.695054 0.287949 0.343813 -0.629224
F3    F     F_    0.932013 0.460548 0.352886 -0.605415
F4    F     F_    0.028337 0.204504 0.286840 -0.667719
F5    F     F_    0.478739 0.975104 0.781992 -0.587290
F6    F     F_    0.970068 0.457890 0.637941 -0.611201
H1    H     H_    0.709655 0.299863 0.198851 0.134945
H2    H     H_    0.224131 0.318158 0.930924 0.183297
H3    H     H_    0.038564 0.393448 0.904719 0.173741
H4    H     H_    0.996822 0.261054 0.844961 0.149453
H5    H     H_    0.882733 0.204010 0.617039 0.210962
H6    H     H_    0.032037 0.307051 0.557024 0.219076
H7    H     H_    0.004994 0.139715 0.612619 0.133853
H8    H     H_    0.203594 0.349649 0.683650 0.135911
H9    H     H_    0.055296 0.234808 0.738093 0.129212
H10   H     H_    0.748661 0.046293 0.263887 0.174917
H11   H     H_    0.615622 0.863033 0.264488 0.149968
H12   H     H_    0.474454 0.072252 0.357198 0.211052
H13   H     H_    0.715071 0.939943 0.356975 0.209325
H14   H     H_    0.908243 0.913548 0.342095 0.184127
H15   H     H_    0.905133 0.977872 0.240242 0.198329
H16   H     H_    0.756446 0.012384 0.130911 0.119826
H17   H     H_    0.854327 0.984825 0.064910 0.174562
H18   H     H_    0.679450 0.966667 0.032288 0.170193
H19   H     H_    0.633959 0.729525 0.063729 0.155711
H20   H     H_    0.584967 0.765296 0.147731 0.183876
H21   H     H_    0.873650 0.231319 0.152676 0.135541
H22   H     H_    0.846652 0.353663 0.079696 0.169299
H23   H     H_    0.441784 0.010459 0.218550 0.135920
H24   H     H_    0.025008 0.376857 0.105772 0.162168
H25   H     H_    0.018816 0.543118 0.188099 0.179651
H26   H     H_    0.002952 0.396128 0.250413 0.260809
H27   H     H_    0.024073 0.156769 0.143219 0.135640
H28   H     H_    0.214168 0.294053 0.132481 0.116269
H29   H     H_    0.239558 0.354958 0.265006 0.130783
H30   H     H_    0.964122 0.485828 0.778649 0.181377
H31   H     H_    0.265744 0.370853 0.827905 0.130284
H32   H     H_    0.303272 0.500392 0.893118 0.173497
O1    O     O_R   0.754020 0.497590 0.609930 -0.413740
O2    O     O_R   0.406180 0.826930 0.920660 -0.458063
O3    O     O_R   0.358620 0.062870 0.901950 -0.461062
O4    O     O_R   0.481420 0.271390 0.600630 -0.450536
O5    O     O_R   0.163910 0.085460 0.050210 -0.533263
O6    O     O_R   0.935200 0.815170 0.045770 -0.509826
O7    O     O_R   0.916120 0.596690 0.069430 -0.538114
O8    O     O_R   0.192310 0.631200 0.086170 -0.510314
O9    O     O_R   0.406770 0.819480 0.096420 -0.543138
O10   O     O_R   0.359170 0.055960 0.064880 -0.518722
O11   O     O_3   0.161940 0.837600 0.984160 -0.310744
O12   O     O_R   0.295080 0.533620 0.397890 -0.456059
O13   O     O_R   0.263810 0.254550 0.589590 -0.564381
O14   O     O_R   0.300820 0.531200 0.560890 -0.512701
O15   O     O_R   0.491480 0.744020 0.564270 -0.440092
O16   O     O_R   0.726290 0.693800 0.583010 -0.511090
O17   O     O_R   0.747830 0.500190 0.434090 -0.405670
O18   O     O_R   0.475680 0.273800 0.437630 -0.459372
O19   O     O_R   0.257620 0.257160 0.413750 -0.477798
O20   O     O_R   0.485280 0.746620 0.388440 -0.544671
O21   O     O_R   0.720550 0.696220 0.420010 -0.529240
O22   O     O_3   0.500010 0.499990 0.499980 -0.306540
O23   O     O_R   0.163320 0.092900 0.874450 -0.535783
O24   O     O_R   0.934650 0.822080 0.882840 -0.481131
O25   O     O_R   0.915520 0.604140 0.893670 -0.534858
O26   O     O_R   0.191760 0.638110 0.923230 -0.521340

loop_
_geom_bond_atom_site_label_1
_geom_bond_atom_site_label_2
_ccdc_geom_bond_type
C33   O21   A    
C8    C13   S    
Cr3   O16   S    
C47   H25   S    
C11   C47   S    
C19   C20   A    
Cr6   O2    S    
C44   H19   S    
C14   C33   S    
C12   C49   A    
C7    C8    A    
C13   F2    S    
C7    C11   S    
C39   H32   S    
C12   C23   A    
C27   O3    A    
C9    C42   S    
C18   C24   A    
C31   O5    A    
C19   H12   S    
C16   C50   S    
Cr4   O5    S    
Cr3   O21   S    
C38   C39   S    
C16   O1    A    
Cr3   O20   S    
C20   H23   S    
C40   H9    S    
Cr2   O14   S    
Cr6   O11   S    
C31   O10   A    
C1    O13   A    
Cr5   O26   S    
C46   H18   S    
C12   F1    S    
C35   C36   A    
Cr1   O17   S    
C48   H24   S    
C2    C27   S    
C9    C10   A    
C41   H7    S    
C43   H10   S    
C23   F5    S    
C42   H15   S    
C34   C38   S    
C21   C22   S    
Cr4   O24   S    
C15   C20   A    
C1    O4    A    
C44   C46   S    
C17   C18   A    
Cr1   O4    S    
C43   H11   S    
C40   C45   S    
Cr5   O7    S    
C10   C44   S    
C24   C28   S    
C29   O7    A    
Cr1   O22   S    
Cr1   O1    S    
C17   C21   S    
Cr2   O13   S    
Cr6   O10   S    
C9    C14   A    
C25   C51   S    
Cr4   O11   S    
C28   O19   A    
C22   F4    S    
C46   H17   S    
C37   C49   A    
C47   C48   S    
Cr2   O19   S    
C50   C51   T    
C34   C45   S    
C32   O20   A    
C39   H31   S    
C2    C52   T    
C26   O2    A    
C40   C41   S    
Cr5   O11   S    
C4    O15   A    
C38   H4    S    
C42   H14   S    
C23   C35   A    
Cr2   O22   S    
C30   O9    A    
C22   H29   S    
C48   H22   S    
Cr4   O23   S    
C42   C43   S    
C37   C45   S    
C25   O24   A    
Cr1   O18   S    
C16   O16   A    
C41   H5    S    
C5    C30   S    
C21   H27   S    
C15   C17   A    
Cr5   O8    S    
C4    O14   A    
C36   C37   A    
C8    C14   A    
C40   H8    S    
Cr3   O15   S    
C18   C22   S    
Cr6   O3    S    
C34   H30   S    
C3    C5    T    
C6    C10   A    
C15   C31   S    
C6    C7    A    
C27   O23   A    
C43   H13   S    
C45   F6    S    
C33   O17   A    
C44   H20   S    
C4    C49   S    
Cr6   O9    S    
C19   C24   A    
Cr4   O6    S    
C46   H16   S    
C11   C13   S    
Cr2   O12   S    
C28   O18   A    
C39   H2    S    
C29   O6    A    
C34   C36   S    
C3    C32   S    
C1    C52   S    
C47   H26   S    
Cr5   O25   S    
C26   C35   S    
C6    C29   S    
C13   F3    S    
C38   H3    S    
C32   O12   A    
C30   O8    A    
C48   H21   S    
C26   O26   A    
C25   O25   A    
C21   H28   S    
C11   H1    S    
C41   H6    S    
Cr3   O22   S    
