data_mof_unit_64233.cif
_audit_creation_date              2012-10-26T19:52:05-0400
_audit_creation_method            fapswitch 2.2
_symmetry_space_group_name_H-M    P1
_symmetry_Int_Tables_number       1
_space_group_crystal_system       triclinic
_cell_length_a                    17.08114
_cell_length_b                    18.120968
_cell_length_c                    19.439828
_cell_angle_alpha                 89.587762
_cell_angle_beta                  89.335354
_cell_angle_gamma                 93.203972
_cell_volume                      6007.15254

loop_
_atom_site_label
_atom_site_type_symbol
_atom_type_description
_atom_site_fract_x
_atom_site_fract_y
_atom_site_fract_z
_atom_type_partial_charge
Br1   Br    Br    0.101580 0.594458 0.366496 -0.260502
Br2   Br    Br    0.911153 0.377394 0.420322 -0.255265
Br3   Br    Br    0.916273 0.608900 0.623534 -0.256373
Br4   Br    Br    0.067605 0.371231 0.579824 -0.244083
Br5   Br    Br    0.722956 0.618301 0.611230 -0.316788
Br6   Br    Br    0.259066 0.383097 0.605300 -0.362983
Br7   Br    Br    0.430910 0.648709 0.856619 -0.405118
Br8   Br    Br    0.424379 0.349360 0.142979 -0.372430
C1    C     C_R   0.502402 0.500416 0.367484 0.609093
C2    C     C_R   0.469821 0.439142 0.257487 -0.086445
C3    C     C_R   0.502579 0.499511 0.708282 -0.019579
C4    C     C_R   0.503544 0.500901 0.291732 -0.013305
C5    C     C_R   0.566277 0.508710 0.964955 0.064476
C6    C     C_R   0.419772 0.500903 0.035304 0.024719
C7    C     C_R   0.562642 0.505967 0.036786 -0.095200
C8    C     C_R   0.423105 0.499988 0.963397 -0.075512
C9    C     C_R   0.490590 0.502118 0.072167 -0.019256
C10   C     C_R   0.495231 0.504599 0.928041 0.006700
C11   C     C_R   0.558264 0.723554 0.465623 0.071495
C12   C     C_R   0.501864 0.499754 0.632514 0.579184
C13   C     C_R   0.451275 0.277898 0.544995 0.079621
C14   C     C_R   0.562840 0.801706 0.466079 0.028563
C15   C     C_R   0.445829 0.199898 0.546143 0.028752
C16   C     C_R   0.651012 0.508576 0.499500 0.629038
C17   C     C_R   0.349074 0.491408 0.499445 0.595450
C18   C     C_R   0.503770 0.838847 0.501673 -0.012292
C19   C     C_R   0.494685 0.160966 0.500946 -0.016684
C20   C     C_R   0.444826 0.796010 0.536949 -0.139184
C21   C     C_R   0.544336 0.202640 0.455176 -0.135343
C22   C     C_R   0.444069 0.718583 0.535671 0.067173
C23   C     C_R   0.523873 0.441636 0.819110 -0.090187
C24   C     C_R   0.545883 0.280138 0.455285 0.069593
C25   C     C_R   0.509189 0.961194 0.563048 -0.054888
C26   C     C_R   0.488572 0.037984 0.439835 -0.071813
C27   C     C_R   0.508126 0.038696 0.562797 -0.041963
C28   C     C_R   0.490374 0.960528 0.440005 -0.050599
C29   C     C_R   0.496759 0.078134 0.501312 0.055090
C30   C     C_R   0.500833 0.921275 0.501606 0.063476
C31   C     C_R   0.737105 0.510840 0.500995 -0.048881
C32   C     C_R   0.263650 0.488401 0.491138 -0.069052
C33   C     C_R   0.777606 0.460982 0.459652 0.003112
C34   C     C_R   0.527220 0.561934 0.181341 -0.146366
C35   C     C_R   0.230616 0.533476 0.440516 -0.006300
C36   C     C_R   0.858183 0.453187 0.469686 0.159508
C37   C     C_R   0.148950 0.534806 0.435664 0.149369
C38   C     C_R   0.899144 0.499326 0.517325 0.197092
C39   C     C_R   0.100229 0.491176 0.479909 0.195835
C40   C     C_R   0.858789 0.548949 0.557605 0.188996
C41   C     C_R   0.132985 0.442386 0.527541 0.202880
C42   C     C_R   0.777831 0.554595 0.550148 0.133811
C43   C     C_R   0.214763 0.442615 0.534303 0.125061
C44   C     C_R   0.530503 0.440105 0.747357 0.057017
C45   C     C_R   0.494530 0.502594 0.852542 0.029740
C46   C     C_R   0.535072 0.562247 0.252769 0.053947
C47   C     C_2   0.280942 0.577534 0.390921 0.648518
C48   C     C_2   0.735553 0.418355 0.404893 0.631833
C49   C     C_2   0.631460 0.841874 0.432121 0.577823
C50   C     C_2   0.385923 0.162346 0.592308 0.573344
C51   C     C_2   0.571101 0.377939 0.716415 0.611080
C52   C     C_2   0.580791 0.625412 0.283351 0.603728
C53   C     C_2   0.644898 0.517495 0.930952 0.595891
C54   C     C_2   0.341713 0.501011 0.069980 0.648915
C55   C     C_R   0.492413 0.500705 0.147743 -0.010835
C56   C     C_R   0.468607 0.562070 0.813986 0.193797
C57   C     C_R   0.465060 0.438246 0.185984 0.198646
C58   C     C_R   0.472166 0.559884 0.742496 -0.080541
Cu1   Cu    Cu3+1 0.500020 0.573360 0.500000 1.062060
Cu2   Cu    Cu3+1 0.499980 0.426640 0.500000 1.056401
H1    H     H_    0.616427 0.508192 0.065981 0.179353
H2    H     H_    0.480022 0.066612 0.391646 0.133076
H3    H     H_    0.516088 0.068005 0.610781 0.136264
H4    H     H_    0.483684 0.931067 0.391968 0.135319
H5    H     H_    0.545165 0.396733 0.849596 0.169236
H6    H     H_    0.550699 0.608782 0.151077 0.171955
H7    H     H_    0.450829 0.605830 0.713578 0.165520
H8    H     H_    0.446679 0.391286 0.286404 0.169985
H9    H     H_    0.313067 0.677922 0.351205 0.356019
H10   H     H_    0.663199 0.420589 0.323679 0.336294
H11   H     H_    0.703059 0.934225 0.425493 0.367820
H12   H     H_    0.369132 0.497254 0.934442 0.177871
H13   H     H_    0.320906 0.166811 0.679398 0.376969
H14   H     H_    0.587906 0.268638 0.717656 0.356121
H15   H     H_    0.607925 0.735177 0.281443 0.377080
H16   H     H_    0.761211 0.504653 0.937709 0.376081
H17   H     H_    0.371586 0.586697 0.132380 0.314076
H18   H     H_    0.602829 0.694305 0.439079 0.199904
H19   H     H_    0.414702 0.308417 0.579060 0.199684
H20   H     H_    0.399053 0.822480 0.564942 0.141738
H21   H     H_    0.582480 0.175286 0.419826 0.142078
H22   H     H_    0.398589 0.686400 0.563420 0.145994
H23   H     H_    0.583817 0.311372 0.419460 0.164675
H24   H     H_    0.517753 0.932353 0.611128 0.139713
N1    N     N_2   0.980949 0.496226 0.527012 -0.126741
N2    N     N_2   0.018384 0.495012 0.471797 -0.124412
N3    N     N_R   0.500010 0.683620 0.500020 -0.249707
N4    N     N_R   0.499990 0.316380 0.499980 -0.254058
O1    O     O_R   0.500030 0.561980 0.400180 -0.463716
O2    O     O_R   0.275353 0.654079 0.386546 -0.630350
O3    O     O_2   0.739014 0.351244 0.401901 -0.464237
O4    O     O_R   0.690075 0.455304 0.357829 -0.660879
O5    O     O_2   0.668840 0.811375 0.387593 -0.493412
O6    O     O_R   0.655440 0.913450 0.452293 -0.667356
O7    O     O_2   0.354923 0.102352 0.576968 -0.473577
O8    O     O_R   0.362717 0.197183 0.652586 -0.650159
O9    O     O_2   0.619563 0.389479 0.670222 -0.464274
O10   O     O_R   0.556411 0.306321 0.742463 -0.662710
O11   O     O_2   0.628146 0.614894 0.328581 -0.463946
O12   O     O_R   0.499970 0.438020 0.599820 -0.477539
O13   O     O_R   0.572512 0.696801 0.257726 -0.675726
O14   O     O_2   0.652546 0.545445 0.873654 -0.453678
O15   O     O_R   0.711078 0.495436 0.965647 -0.661650
O16   O     O_2   0.287964 0.460064 0.049360 -0.379494
O17   O     O_R   0.327399 0.548137 0.124814 -0.595973
O18   O     O_R   0.500000 0.438070 0.400190 -0.522887
O19   O     O_R   0.500000 0.561930 0.599810 -0.502564
O20   O     O_R   0.613940 0.568730 0.499360 -0.464978
O21   O     O_R   0.386060 0.431270 0.500640 -0.474624
O22   O     O_R   0.613910 0.444830 0.499370 -0.482550
O23   O     O_R   0.386090 0.555170 0.500630 -0.509285
O24   O     O_2   0.327409 0.546768 0.354145 -0.495403

loop_
_geom_bond_atom_site_label_1
_geom_bond_atom_site_label_2
_ccdc_geom_bond_type
C15   C50   S    
C55   C57   A    
N1    N2    D    
C19   C21   A    
C26   C29   A    
C23   C44   A    
C22   H22   S    
C11   H18   S    
C14   C49   S    
C13   H19   S    
C39   C41   A    
C46   C52   S    
C49   O6    S    
Cu2   N4    S    
C5    C10   A    
C1    O18   A    
C27   C29   A    
C34   C46   A    
C21   C24   A    
C17   C32   S    
C45   C56   A    
C23   H5    S    
C24   H23   S    
C6    C54   S    
Br3   C40   S    
C16   C31   S    
Cu1   O19   S    
C3    C44   A    
C10   C45   S    
Cu2   O22   S    
C2    H8    S    
C32   C35   A    
Br2   C36   S    
C41   C43   A    
C20   H20   S    
H15   O13   S    
H11   O6    S    
C52   O13   S    
C15   C19   A    
Br6   C43   S    
C26   H2    S    
C3    C58   A    
C40   C42   A    
C27   H3    S    
Br8   C57   S    
Cu1   N3    S    
C6    C9    A    
C53   O14   D    
C17   O23   A    
C21   H21   S    
C36   C38   A    
C47   O24   D    
C37   C39   A    
C7    H1    S    
C38   C40   A    
C3    C12   S    
C34   H6    S    
C51   O10   S    
Cu1   Cu2   S    
H16   O15   S    
C11   C14   A    
C54   O17   S    
C31   C33   A    
C25   H24   S    
C18   C30   S    
C8    H12   S    
C56   C58   A    
Cu1   O20   S    
C33   C48   S    
C22   N3    A    
C44   C51   S    
Cu2   O21   S    
C54   O16   D    
H9    O2    S    
C51   O9    D    
C23   C45   A    
C35   C37   A    
C52   O11   D    
C2    C4    A    
C35   C47   S    
C24   N4    A    
C16   O20   A    
H17   O17   S    
C5    C7    A    
H10   O4    S    
C33   C36   A    
C6    C8    A    
Br5   C42   S    
C50   O8    S    
C48   O4    S    
C53   O15   S    
C11   N3    A    
C2    C57   A    
C7    C9    A    
C1    O1    A    
C16   O22   A    
C17   O21   A    
C12   O19   A    
C13   N4    A    
C32   C43   A    
C49   O5    D    
C18   C20   A    
C25   C30   A    
Br4   C41   S    
C13   C15   A    
C20   C22   A    
C9    C55   S    
Br1   C37   S    
C38   N1    S    
C19   C29   S    
C58   H7    S    
C47   O2    S    
C28   C30   A    
C25   C27   A    
C39   N2    S    
C26   C28   A    
H14   O10   S    
C1    C4    S    
Br7   C56   S    
Cu1   O1    S    
C31   C42   A    
C5    C53   S    
C8    C10   A    
C14   C18   A    
C50   O7    D    
Cu2   O12   S    
C48   O3    D    
Cu1   O23   S    
C34   C55   A    
C4    C46   A    
C28   H4    S    
Cu2   O18   S    
C12   O12   A    
H13   O8    S    
