data_mof_unit_53602.cif
_audit_creation_date              2012-12-10T16:58:30-0500
_audit_creation_method            fapswitch 2.2
_symmetry_space_group_name_H-M    P1
_symmetry_Int_Tables_number       1
_space_group_crystal_system       triclinic
_cell_length_a                    7.944962
_cell_length_b                    8.557292
_cell_length_c                    23.410843
_cell_angle_alpha                 94.577214
_cell_angle_beta                  84.385181
_cell_angle_gamma                 92.682251
_cell_volume                      1577.73307655

loop_
_atom_site_label
_atom_site_type_symbol
_atom_type_description
_atom_site_fract_x
_atom_site_fract_y
_atom_site_fract_z
_atom_type_partial_charge
C1    C     C_R   0.544252 0.793779 0.498720 0.953444
C2    C     C_R   0.644400 0.451165 0.291291 -0.172528
C3    C     C_R   0.343311 0.521233 0.767030 -0.096838
C4    C     C_R   0.640332 0.440728 0.231996 -0.099563
C5    C     C_R   0.483596 0.469994 0.791074 0.231566
C6    C     C_R   0.491383 0.469395 0.208176 0.245497
C7    C     C_2   0.567818 0.956917 0.498289 -0.347155
C8    C     C_2   0.432109 0.043100 0.502158 -0.312872
C9    C     C_R   0.498505 0.496786 0.610286 0.880795
C10   C     C_R   0.499987 0.497907 0.389607 0.877778
C11   C     C_R   0.513914 0.330656 0.114203 0.530656
C12   C     C_R   0.455717 0.206212 0.501363 0.948897
C13   C     C_R   0.460668 0.606905 0.885342 0.524637
C14   C     C_R   0.475742 0.607517 0.123582 0.554805
C15   C     C_R   0.491013 0.329028 0.875947 0.554028
C16   C     C_R   0.466790 0.609275 0.064482 -0.016380
C17   C     C_R   0.500683 0.327012 0.935078 -0.017535
C18   C     C_R   0.487193 0.468354 0.029678 -0.016664
C19   C     C_R   0.481681 0.467993 0.969901 -0.016982
C20   C     C_R   0.513767 0.328007 0.054458 -0.012139
C21   C     C_R   0.457069 0.608662 0.945106 -0.011319
C22   C     C_R   0.436141 0.747662 0.039650 -0.143768
C23   C     C_R   0.628286 0.423560 0.755335 0.217423
C24   C     C_R   0.531166 0.188535 0.959912 -0.144124
C25   C     C_R   0.431212 0.747330 0.980416 -0.165409
C26   C     C_R   0.538515 0.189173 0.019110 -0.164758
C27   C     C_R   0.343411 0.504019 0.243904 0.213771
C28   C     C_R   0.628175 0.424884 0.696100 -0.171708
C29   C     C_R   0.347467 0.514094 0.303190 -0.186252
C30   C     C_R   0.492435 0.485326 0.672299 -0.088129
C31   C     C_R   0.498081 0.489187 0.327233 -0.075527
C32   C     C_R   0.348657 0.531626 0.708092 -0.163172
H1    H     H_    0.414124 0.855786 0.066025 0.203723
H2    H     H_    0.752937 0.411326 0.204208 0.187006
H3    H     H_    0.696957 0.005561 0.494804 0.232900
H4    H     H_    0.302960 0.994266 0.505818 0.236680
H5    H     H_    0.876689 0.100326 0.397906 0.365268
H6    H     H_    0.114651 0.813150 0.636844 0.370796
H7    H     H_    0.552453 0.080414 0.933478 0.204227
H8    H     H_    0.405473 0.855218 0.962468 0.184565
H9    H     H_    0.564915 0.081353 0.037003 0.184614
H10   H     H_    0.733893 0.377660 0.668863 0.223309
H11   H     H_    0.232583 0.541570 0.330253 0.195225
H12   H     H_    0.240646 0.576286 0.690716 0.214476
H13   H     H_    0.761424 0.428982 0.308848 0.207154
H14   H     H_    0.231476 0.556490 0.794349 0.184607
I1    I     I_    0.855142 0.361785 0.787507 -0.268303
I2    I     I_    0.110863 0.539732 0.210752 -0.318588
N1    N     N_R   0.493346 0.468842 0.147258 -0.354933
N2    N     N_R   0.478620 0.468494 0.852128 -0.353623
N3    N     N_2   0.950330 0.457950 0.484560 0.105308
N4    N     N_2   0.049670 0.542050 0.515440 0.112731
O1    O     O_R   0.389250 0.738570 0.503790 -0.590434
O2    O     O_2   0.448517 0.742440 0.860467 -0.521397
O3    O     O_2   0.466450 0.742916 0.157361 -0.499109
O4    O     O_2   0.494463 0.193185 0.842371 -0.499063
O5    O     O_2   0.165406 0.279995 0.412908 -0.300468
O6    O     O_2   0.013891 0.163075 0.496862 -0.308339
O7    O     O_3   0.850630 0.210793 0.410074 -0.537019
O8    O     O_2   0.834480 0.742497 0.578530 -0.277651
O9    O     O_2   0.956777 0.535092 0.625969 -0.333569
O10   O     O_3   0.146599 0.772083 0.596669 -0.528598
O11   O     O_R   0.610750 0.261430 0.496210 -0.578796
O12   O     O_R   0.678390 0.711620 0.493890 -0.592259
O13   O     O_R   0.321610 0.288380 0.506110 -0.551996
O14   O     O_R   0.355400 0.513520 0.588790 -0.582042
O15   O     O_R   0.644600 0.486480 0.411210 -0.604412
O16   O     O_R   0.644550 0.486570 0.578900 -0.565589
O17   O     O_R   0.355450 0.513430 0.421100 -0.603466
O18   O     O_2   0.532667 0.196574 0.139218 -0.516586
S1    S     S_3+6 0.004086 0.276430 0.451556 0.131153
S2    S     S_3+6 0.986599 0.646963 0.579635 0.148215
Zn1   Zn    Zn3+2 0.306930 0.518000 0.506610 1.145692
Zn2   Zn    Zn3+2 0.693070 0.482000 0.493390 1.138112

loop_
_geom_bond_atom_site_label_1
_geom_bond_atom_site_label_2
_ccdc_geom_bond_type
C27   I2    S    
C2    C4    A    
C10   O17   A    
O17   Zn1   S    
C11   N1    A    
O11   Zn2   S    
H6    O10   S    
C27   C29   A    
C12   O13   A    
C3    H14   S    
C6    C27   A    
C5    C23   A    
N3    Zn2   S    
C8    C12   S    
C23   C28   A    
C15   O4    S    
C12   O11   A    
C28   C30   A    
C14   O3    S    
C32   H12   S    
C11   O18   S    
C13   C21   A    
C7    C8    D    
C29   C31   A    
O15   Zn2   S    
C10   O15   A    
C29   H11   S    
C30   C32   A    
C21   C25   A    
H5    O7    S    
N3    S1    S    
C9    C30   S    
N4    S2    S    
O1    Zn1   S    
O9    S2    D    
C28   H10   S    
C19   C21   A    
C24   C26   A    
N4    Zn1   S    
C18   C20   A    
C25   H8    S    
C3    C32   A    
C11   C20   A    
C4    H2    S    
O6    S1    D    
C9    O16   A    
C14   N1    A    
C23   I1    S    
C2    H13   S    
O8    S2    D    
O16   Zn2   S    
C13   N2    A    
C17   C24   A    
C1    O12   A    
C3    C5    A    
C5    N2    S    
O10   S2    S    
C24   H7    S    
O13   Zn1   S    
C4    C6    A    
C13   O2    S    
C8    H4    S    
C15   N2    A    
O7    S1    S    
C15   C17   A    
C22   H1    S    
O12   Zn2   S    
C9    O14   A    
C18   C19   A    
C1    O1    A    
C17   C19   A    
C14   C16   A    
C1    C7    S    
O14   Zn1   S    
C7    H3    S    
C10   C31   S    
C16   C18   A    
O5    S1    D    
C6    N1    S    
N3    N4    D    
C26   H9    S    
C16   C22   A    
C2    C31   A    
C20   C26   A    
C22   C25   A    
