data_mof_unit_5191.cif
_audit_creation_date              2012-12-11T15:15:40-0500
_audit_creation_method            fapswitch 2.2
_symmetry_space_group_name_H-M    P1
_symmetry_Int_Tables_number       1
_space_group_crystal_system       triclinic
_cell_length_a                    18.804774
_cell_length_b                    18.818562
_cell_length_c                    20.381368
_cell_angle_alpha                 107.196316
_cell_angle_beta                  106.458324
_cell_angle_gamma                 110.859607
_cell_volume                      5796.47188287

loop_
_atom_site_label
_atom_site_type_symbol
_atom_type_description
_atom_site_fract_x
_atom_site_fract_y
_atom_site_fract_z
_atom_type_partial_charge
C1    C     C_R   0.037117 0.089371 0.346854 -0.129191
C2    C     C_R   0.238081 0.074699 0.494495 -0.141729
C3    C     C_R   0.160668 0.183796 0.718489 -0.124421
C4    C     C_R   0.754591 0.930863 0.455191 -0.124273
C5    C     C_R   0.051886 0.804542 0.479546 -0.132988
C6    C     C_R   0.243057 0.208094 0.726666 0.038029
C7    C     C_R   0.036914 0.780034 0.534340 0.068409
C8    C     C_R   0.242492 0.006649 0.449517 0.083289
C9    C     C_R   0.932760 0.978724 0.711899 -0.011347
C10   C     C_R   0.049509 0.710992 0.620945 -0.251398
C11   C     C_R   0.076995 0.739379 0.571827 0.106413
C12   C     C_R   0.746986 0.004042 0.465626 0.070633
C13   C     C_R   0.135074 0.719340 0.551220 -0.242984
C14   C     C_R   0.152611 0.658109 0.566389 0.072534
C15   C     C_R   0.114517 0.620725 0.606663 -0.007500
C16   C     C_R   0.848275 0.777245 0.290935 -0.142183
C17   C     C_R   0.066581 0.650526 0.637406 0.161258
C18   C     C_R   0.200562 0.627595 0.536114 0.177303
C19   C     C_R   0.203950 0.556108 0.540792 -0.305973
C20   C     C_R   0.157661 0.513149 0.572415 0.124259
C21   C     C_R   0.116538 0.547798 0.609094 0.027219
C22   C     C_R   0.069829 0.504563 0.641074 0.152949
C23   C     C_R   0.772770 0.725687 0.288927 0.043536
C24   C     C_R   0.029915 0.539768 0.678457 -0.210594
C25   C     C_R   0.028570 0.612769 0.676874 -0.207743
C26   C     C_R   0.144207 0.431754 0.560433 -0.238568
C27   C     C_R   0.087960 0.383810 0.582580 0.108870
C28   C     C_R   0.002588 0.237225 0.570589 -0.145206
C29   C     C_R   0.056540 0.423008 0.628251 -0.265046
C30   C     C_R   0.298431 0.938257 0.367284 -0.244936
C31   C     C_R   0.306241 0.011748 0.419961 0.102956
C32   C     C_R   0.379151 0.089605 0.449641 -0.257041
C33   C     C_R   0.448671 0.092315 0.436992 0.163641
C34   C     C_R   0.055363 0.291566 0.551641 0.084966
C35   C     C_R   0.444958 0.016139 0.393412 -0.007583
C36   C     C_R   0.368255 0.939090 0.354850 0.071591
C37   C     C_R   0.524454 0.168889 0.473621 -0.211665
C38   C     C_R   0.598516 0.168720 0.474097 -0.206427
C39   C     C_R   0.597185 0.091865 0.438554 0.149830
C40   C     C_R   0.770658 0.770740 0.355083 -0.144716
C41   C     C_R   0.519773 0.015971 0.394655 0.026316
C42   C     C_R   0.518390 0.938741 0.358637 0.122379
C43   C     C_R   0.440981 0.864325 0.312469 -0.306291
C44   C     C_R   0.365490 0.863908 0.309823 0.180912
C45   C     C_R   0.239303 0.190195 0.653962 -0.128374
C46   C     C_R   0.672384 0.088432 0.453244 -0.257549
C47   C     C_R   0.671021 0.009689 0.428520 0.110686
C48   C     C_R   0.594480 0.936030 0.375488 -0.235204
C49   C     C_R   0.318163 0.240102 0.797866 0.143990
C50   C     C_R   0.314759 0.267132 0.868332 -0.188363
C51   C     C_R   0.385998 0.300545 0.935947 -0.152204
C52   C     C_R   0.080170 0.244013 0.506425 -0.142754
C53   C     C_R   0.462575 0.307547 0.934737 0.227745
C54   C     C_R   0.465503 0.278276 0.864365 -0.189668
C55   C     C_R   0.393872 0.244393 0.796442 -0.170623
C56   C     C_R   0.974266 0.798252 0.544643 -0.125152
C57   C     C_R   0.693100 0.500709 0.147345 -0.160596
C58   C     C_R   0.746593 0.586470 0.196875 -0.187513
C59   C     C_R   0.636754 0.592825 0.234211 -0.176865
C60   C     C_R   0.583430 0.506998 0.184874 -0.181577
C61   C     C_R   0.610011 0.461267 0.138933 0.229734
C62   C     C_2   0.542745 0.359064 0.005035 -0.220721
C63   C     C_2   0.545470 0.378105 0.074942 -0.231484
C64   C     C_R   0.824926 0.072007 0.520500 -0.131057
C65   C     C_R   0.718014 0.633996 0.239074 0.143386
C66   C     C_R   0.938423 0.030329 0.206903 0.143562
C67   C     C_R   0.169488 0.934664 0.429877 -0.147249
C68   C     C_R   0.858187 0.964850 0.150634 -0.187270
C69   C     C_R   0.819882 0.969849 0.083982 -0.161137
C70   C     C_R   0.862248 0.039764 0.072066 0.227067
C71   C     C_R   0.939156 0.108097 0.130995 -0.180953
C72   C     C_R   0.977083 0.103427 0.197893 -0.173395
C73   C     C_R   0.836697 0.031290 0.846865 -0.164897
C74   C     C_R   0.872039 0.035829 0.795588 -0.187203
C75   C     C_R   0.874747 0.904628 0.782231 -0.162840
C76   C     C_R   0.966735 0.948072 0.282034 -0.128352
C77   C     C_R   0.839124 0.899855 0.833036 -0.186725
C78   C     C_R   0.982003 0.052178 0.709620 -0.162977
C79   C     C_R   0.822474 0.964456 0.867725 0.227596
C80   C     C_2   0.836499 0.038066 0.995873 -0.223329
C81   C     C_2   0.802190 0.965358 0.932630 -0.221406
C82   C     C_R   0.892878 0.973344 0.764126 0.151136
C83   C     C_R   0.981469 0.022764 0.274948 0.036247
C84   C     C_1   0.837136 0.830380 0.608726 -0.006075
C85   C     C_3   0.185301 0.619925 0.413094 -0.950982
C86   C     C_3   0.268624 0.734130 0.302660 -0.970894
C87   C     C_R   0.911206 0.912275 0.644552 0.051417
H1    H     H_    0.059081 0.156076 0.362828 0.098619
H2    H     H_    0.706610 0.866325 0.416263 0.096005
H3    H     H_    0.236681 0.530013 0.513540 0.139202
H4    H     H_    0.171824 0.403866 0.527880 0.115675
H5    H     H_    0.015711 0.388360 0.648534 0.116065
H6    H     H_    0.995132 0.507901 0.704489 0.127815
H7    H     H_    0.992717 0.636015 0.701706 0.128775
H8    H     H_    0.240270 0.879276 0.340406 0.146848
H9    H     H_    0.385413 0.147607 0.488009 0.114137
H10   H     H_    0.527522 0.228002 0.505971 0.128108
H11   H     H_    0.657587 0.227670 0.506915 0.129610
H12   H     H_    0.948024 0.788656 0.583710 0.103330
H13   H     H_    0.730988 0.146739 0.490456 0.117881
H14   H     H_    0.877038 0.758132 0.254946 0.087964
H15   H     H_    0.592906 0.875499 0.352385 0.117916
H16   H     H_    0.439391 0.805316 0.282190 0.140601
H17   H     H_    0.258135 0.265812 0.872063 0.111721
H18   H     H_    0.809797 0.615204 0.201152 0.112869
H19   H     H_    0.613061 0.627507 0.266287 0.111798
H20   H     H_    0.490256 0.342728 0.081491 0.131667
H21   H     H_    0.524134 0.284277 0.862084 0.115760
H22   H     H_    0.715836 0.466100 0.113920 0.114006
H23   H     H_    0.145683 0.871521 0.386690 0.091158
H24   H     H_    0.398637 0.223046 0.743222 0.113695
H25   H     H_    0.982044 0.254703 0.614365 0.085915
H26   H     H_    0.598284 0.393985 0.998603 0.132425
H27   H     H_    0.381546 0.325511 0.988808 0.110163
H28   H     H_    0.519400 0.477696 0.178979 0.111374
H29   H     H_    0.825445 0.909250 0.157570 0.119415
H30   H     H_    0.883296 0.088295 0.780882 0.115510
H31   H     H_    0.890723 0.855962 0.759044 0.118788
H32   H     H_    0.778335 0.905336 0.935691 0.130357
H33   H     H_    0.972796 0.162828 0.123269 0.112543
H34   H     H_    0.998121 0.115823 0.746318 0.098508
H35   H     H_    0.822456 0.080926 0.871333 0.114576
H36   H     H_    0.038500 0.155298 0.240838 0.112420
H37   H     H_    0.728992 0.744553 0.378771 0.098594
H38   H     H_    0.866017 0.098146 0.993972 0.130217
H39   H     H_    0.758820 0.917593 0.040878 0.115020
H40   H     H_    0.829108 0.848004 0.848603 0.114205
H41   H     H_    0.130803 0.267909 0.490659 0.085619
H42   H     H_    0.843242 0.138489 0.542538 0.096046
H43   H     H_    0.924850 0.884184 0.237510 0.097615
H44   H     H_    0.291008 0.199839 0.638309 0.093253
H45   H     H_    0.276558 0.140777 0.510116 0.086358
H46   H     H_    0.298130 0.668704 0.506468 0.173279
H47   H     H_    0.170748 0.552430 0.389532 0.254228
H48   H     H_    0.218612 0.650753 0.384380 0.260066
H49   H     H_    0.125404 0.623230 0.400712 0.259733
H50   H     H_    0.282506 0.753296 0.211540 0.172240
H51   H     H_    0.204505 0.678786 0.265777 0.253670
H52   H     H_    0.269670 0.770155 0.357358 0.261926
H53   H     H_    0.315263 0.710789 0.314182 0.255669
H54   H     H_    0.139187 0.186305 0.762469 0.094827
H55   H     H_    0.096868 0.800762 0.457512 0.099359
H56   H     H_    0.008335 0.729341 0.640848 0.116231
H57   H     H_    0.161091 0.745847 0.517877 0.147206
N1    N     N_R   0.052580 0.056040 0.395500 -0.039036
N2    N     N_R   0.890210 0.849400 0.355780 -0.038027
N3    N     N_R   0.997110 0.161140 0.539580 -0.038415
N4    N     N_R   0.841950 0.845400 0.395490 -0.037324
N5    N     N_R   0.045360 0.165140 0.499870 -0.038578
N6    N     N_R   0.877490 0.041510 0.539580 -0.042355
N7    N     N_R   0.009820 0.969030 0.355780 -0.038934
N8    N     N_R   0.158050 0.154600 0.604510 -0.038937
N9    N     N_1   0.777637 0.764653 0.579848 -0.093204
N10   N     N_2   0.238657 0.662920 0.494365 -0.112419
N11   N     N_2   0.287840 0.786976 0.264464 -0.110349
N12   N     N_R   0.954640 0.834860 0.500130 -0.040869
N13   N     N_R   0.122510 0.958490 0.460420 -0.038838
N14   N     N_R   0.990180 0.030970 0.644220 -0.044925
N15   N     N_R   0.947420 0.943960 0.604500 -0.057055
N16   N     N_R   0.165270 0.045500 0.500140 -0.038732
N17   N     N_R   0.109790 0.150600 0.644220 -0.038417
N18   N     N_R   0.002890 0.838860 0.460420 -0.041014
N19   N     N_R   0.834730 0.954500 0.499860 -0.041279
Ni1   Ni    Ni4+2 0.104370 0.104380 0.500010 0.209965
Ni2   Ni    Ni4+2 0.895630 0.895620 0.499990 0.227377
Ni3   Ni    Ni4+2 0.006300 0.904810 0.408930 0.211073
Ni4   Ni    Ni4+2 0.993700 0.095190 0.591070 0.207042

loop_
_geom_bond_atom_site_label_1
_geom_bond_atom_site_label_2
_ccdc_geom_bond_type
C66   C68   A    
C50   H17   S    
C6    C45   A    
C27   C29   A    
C41   C42   A    
C14   C18   A    
C1    N1    A    
C35   C36   A    
C3    H54   S    
C84   C87   S    
C38   H11   S    
C3    C6    A    
C37   H10   S    
C52   H41   S    
C39   C41   A    
C53   C54   A    
C28   H25   S    
C7    C11   S    
N6    N19   A    
N19   Ni2   S    
C26   C27   A    
C30   H8    S    
C71   H33   S    
N16   Ni1   S    
C22   C29   A    
C30   C31   A    
C12   C64   A    
C80   H38   S    
C10   C17   A    
C23   C40   A    
H50   N11   S    
C16   N2    A    
C18   C19   A    
C84   N9    T    
C13   H57   S    
C61   C63   S    
C78   H34   S    
C58   C65   A    
C66   C83   S    
N18   Ni3   S    
C76   H43   S    
C78   N14   A    
C57   H22   S    
C47   C48   A    
C52   N5    A    
C2    H45   S    
C70   C71   A    
C4    C12   A    
N8    N17   A    
C77   H40   S    
C86   H53   S    
C9    C82   S    
C85   N10   S    
C55   H24   S    
C1    H1    S    
N2    Ni3   S    
N12   N18   A    
C59   C60   A    
C13   C14   A    
N4    Ni2   S    
C44   N11   S    
C75   H31   S    
C7    C56   A    
C74   C82   A    
C12   C47   S    
C76   C83   A    
N14   Ni4   S    
N2    N4    A    
C77   C79   A    
C27   C34   S    
C40   H37   S    
C66   C72   A    
C59   H19   S    
C40   N4    A    
C70   C80   S    
H46   N10   S    
C51   H27   S    
C24   C25   A    
C62   H26   S    
C5    C7    A    
C3    N17   A    
C68   C69   A    
C76   N7    A    
C26   H4    S    
C49   C55   A    
C33   C37   A    
N15   Ni2   S    
C64   N6    A    
C60   C61   A    
C51   C53   A    
C43   C44   A    
C37   C38   A    
C53   C62   S    
C67   H23   S    
C31   C32   A    
C48   H15   S    
C62   C63   D    
C50   C51   A    
C73   C79   A    
C4    N19   A    
C67   N13   A    
N5    Ni1   S    
C42   C48   A    
C64   H42   S    
C75   C77   A    
N1    N7    A    
N3    Ni4   S    
C86   H52   S    
C68   H29   S    
C39   C46   A    
C32   H9    S    
C85   H48   S    
C69   H39   S    
C45   H44   S    
C16   C23   A    
C72   H36   S    
N14   N15   A    
C49   C50   A    
C22   C24   A    
C36   C44   A    
C1    C83   A    
C42   C43   A    
C63   H20   S    
C73   C74   A    
C56   N12   A    
C79   C81   S    
C4    H2    S    
C86   N11   S    
C15   C17   A    
C74   H30   S    
C46   H13   S    
C46   C47   A    
C28   N3    A    
N3    N5    A    
C8    C31   S    
C2    C8    A    
C80   C81   D    
N8    Ni1   S    
C18   N10   S    
N13   Ni3   S    
C54   C55   A    
C75   C82   A    
C57   C61   A    
N1    Ni1   S    
C54   H21   S    
N13   N16   A    
N7    Ni3   S    
C81   H32   S    
C34   C52   A    
C30   C36   A    
C45   N8    A    
C17   C25   A    
C32   C33   A    
C58   H18   S    
C19   C20   A    
C25   H7    S    
C71   C72   A    
C19   H3    S    
C24   H6    S    
C5    N18   A    
C11   C13   A    
C23   C65   S    
C5    H55   S    
C38   C39   A    
C20   C26   A    
N12   Ni2   S    
N6    Ni4   S    
C33   C35   A    
C87   N15   A    
C9    C78   A    
C6    C49   S    
C69   C70   A    
C35   C41   A    
C43   H16   S    
C10   C11   A    
C86   H51   S    
C85   H49   S    
C28   C34   A    
C9    C87   A    
C16   H14   S    
C15   C21   A    
C20   C21   A    
C8    C67   A    
C2    N16   A    
C73   H35   S    
N17   Ni4   S    
C14   C15   A    
C60   H28   S    
C56   H12   S    
C85   H47   S    
C57   C58   A    
C21   C22   A    
C29   H5    S    
C59   C65   A    
C10   H56   S    
