data_mof_unit_21552.cif
_audit_creation_date              2012-12-10T18:11:51-0500
_audit_creation_method            fapswitch 2.2
_symmetry_space_group_name_H-M    P1
_symmetry_Int_Tables_number       1
_space_group_crystal_system       triclinic
_cell_length_a                    15.822677
_cell_length_b                    10.745549
_cell_length_c                    9.493731
_cell_angle_alpha                 89.470558
_cell_angle_beta                  91.689603
_cell_angle_gamma                 88.969367
_cell_volume                      1613.11604728

loop_
_atom_site_label
_atom_site_type_symbol
_atom_type_description
_atom_site_fract_x
_atom_site_fract_y
_atom_site_fract_z
_atom_type_partial_charge
C1    C     C_R   0.500209 0.260192 0.500732 0.759075
C2    C     C_3   0.082793 0.495219 0.500226 0.185954
C3    C     C_3   0.974140 0.564700 0.610614 -0.135347
C4    C     C_3   0.917436 0.495061 0.505065 0.189087
C5    C     C_3   0.026280 0.612496 0.486362 -0.171832
C6    C     C_3   0.968032 0.542887 0.380866 -0.168795
C7    C     C_1   0.174512 0.495950 0.497599 -0.073539
C8    C     C_1   0.825665 0.495657 0.506190 -0.048936
C9    C     C_3   0.585543 0.072391 0.443725 -0.422982
C10   C     C_3   0.587293 0.927722 0.444642 -0.137750
C11   C     C_3   0.492225 0.070655 0.654205 -0.366240
C12   C     C_R   0.339962 0.499370 0.498464 0.827171
C13   C     C_3   0.426154 0.075004 0.409977 -0.385982
C14   C     C_3   0.501023 0.122465 0.502183 0.148383
C15   C     C_3   0.502027 0.878543 0.501117 0.082821
C16   C     C_3   0.486898 0.928480 0.652215 -0.354387
C17   C     C_3   0.429838 0.931953 0.403037 -0.418585
C18   C     C_3   0.440665 0.596940 0.076872 0.013298
C19   C     C_3   0.442561 0.599256 0.910259 -0.261690
C20   C     C_3   0.585791 0.532616 0.090078 -0.254384
C21   C     C_3   0.481988 0.376840 0.082231 -0.195777
C22   C     C_3   0.587121 0.531205 0.923602 -0.014905
C23   C     C_R   0.500396 0.740090 0.499937 0.763964
C24   C     C_3   0.473069 0.382339 0.916124 -0.189945
C25   C     C_R   0.660059 0.498953 0.501723 0.866981
C26   C     C_3   0.973932 0.377762 0.518937 -0.152430
C27   C     C_3   0.026087 0.425623 0.394680 -0.165059
C28   C     C_1   0.250157 0.497381 0.496287 -0.169219
C29   C     C_1   0.749945 0.496907 0.505216 -0.107103
C30   C     C_3   0.032232 0.447403 0.624502 -0.156793
Cu1   Cu    Cu3+1 0.500040 0.499860 0.642410 0.926397
Cu2   Cu    Cu3+1 0.499960 0.500140 0.357590 0.918445
H1    H     H_    0.048913 0.368850 0.305902 0.127095
H2    H     H_    0.547564 0.097924 0.721489 0.202561
H3    H     H_    0.533189 0.887902 0.730853 0.203764
H4    H     H_    0.365167 0.105899 0.454970 0.154531
H5    H     H_    0.428154 0.114298 0.301217 0.164355
H6    H     H_    0.442569 0.906022 0.292666 0.161911
H7    H     H_    0.367819 0.893364 0.432065 0.158419
H8    H     H_    0.434374 0.109998 0.702395 0.149173
H9    H     H_    0.423136 0.900668 0.686362 0.151998
H10   H     H_    0.464430 0.689607 0.109658 0.099509
H11   H     H_    0.951003 0.281473 0.532421 0.133610
H12   H     H_    0.378507 0.587034 0.861867 0.170383
H13   H     H_    0.461765 0.693183 0.874563 0.132354
H14   H     H_    0.604343 0.625998 0.128885 0.150100
H15   H     H_    0.604872 0.626323 0.888454 0.117542
H16   H     H_    0.533094 0.308279 0.112458 0.169977
H17   H     H_    0.424905 0.338406 0.129709 0.137905
H18   H     H_    0.407216 0.364390 0.879821 0.123084
H19   H     H_    0.509018 0.303328 0.872774 0.199258
H20   H     H_    0.634483 0.466737 0.135728 0.176924
H21   H     H_    0.940295 0.582132 0.280901 0.140228
H22   H     H_    0.049286 0.708721 0.472602 0.128473
H23   H     H_    0.951363 0.621697 0.699244 0.144387
H24   H     H_    0.060065 0.408268 0.724458 0.127285
H25   H     H_    0.639469 0.110101 0.507069 0.170621
H26   H     H_    0.592597 0.106800 0.333770 0.159638
H27   H     H_    0.592093 0.897212 0.333230 0.128467
N1    N     N_3   0.501840 0.500250 0.143650 -0.143986
N2    N     N_3   0.501160 0.503300 0.856280 -0.160778
O1    O     O_R   0.500050 0.317570 0.620260 -0.598735
O2    O     O_R   0.499980 0.317810 0.379740 -0.602684
O3    O     O_R   0.379110 0.499870 0.620240 -0.596004
O4    O     O_R   0.379040 0.500110 0.379720 -0.560634
O5    O     O_R   0.500020 0.682190 0.620260 -0.595865
O6    O     O_R   0.499950 0.682430 0.379740 -0.595100
O7    O     O_R   0.620960 0.499890 0.620280 -0.559180
O8    O     O_R   0.620890 0.500130 0.379760 -0.591523
C31   C     C_2   0.665183 0.875373 0.522591 0.822380
O9    O     O_2   0.679622 0.900881 0.646137 -0.604949
O10   O     O_R   0.721911 0.799634 0.450781 -0.782077
H28   H     H_    0.772494 0.772309 0.512220 0.333143
C32   C     C_R   0.347734 0.594362 0.121100 0.173522
C33   C     C_R   0.312261 0.701288 0.182997 -0.154892
C34   C     C_R   0.226226 0.709878 0.211250 -0.151885
C35   C     C_R   0.172976 0.612653 0.175522 -0.099165
C36   C     C_R   0.205873 0.506399 0.112746 -0.146786
C37   C     C_R   0.291967 0.497575 0.084243 -0.140260
H29   H     H_    0.350436 0.780531 0.205034 0.096971
H30   H     H_    0.200619 0.793105 0.258650 0.120523
H31   H     H_    0.106135 0.620100 0.195347 0.128625
H32   H     H_    0.164210 0.431573 0.083233 0.118188
H33   H     H_    0.312191 0.416885 0.028153 0.094171
C38   C     C_2   0.659796 0.444545 0.883757 0.867459
O11   O     O_2   0.725684 0.489697 0.844600 -0.607987
O12   O     O_R   0.655715 0.315794 0.903626 -0.808636
H34   H     H_    0.709269 0.270414 0.875539 0.332699

loop_
_geom_bond_atom_site_label_1
_geom_bond_atom_site_label_2
_ccdc_geom_bond_type
Cu1   O5    S    
O12   H34   S    
C24   N2    S    
Cu1   N2    S    
C2    C7    S    
C4    C8    S    
C1    O1    A    
C21   H17   S    
C35   C36   A    
C27   H1    S    
C26   C27   S    
C12   C28   S    
C8    C29   T    
C23   O5    A    
C18   C19   S    
C10   C15   S    
C18   H10   S    
C16   H3    S    
C37   H33   S    
C12   O3    A    
C11   C14   S    
C15   C16   S    
C9    H26   S    
C17   H7    S    
C22   C38   S    
C23   O6    A    
C3    H23   S    
C36   H32   S    
C6    C27   S    
C31   O9    D    
C20   N1    S    
C33   H29   S    
C13   H5    S    
C21   H16   S    
C24   H19   S    
C15   C23   S    
C22   H15   S    
C18   C32   S    
C13   C14   S    
C25   C29   S    
Cu1   O1    S    
C25   O7    A    
C1    O2    A    
C26   H11   S    
C38   O12   S    
C24   H18   S    
Cu1   O7    S    
C32   C33   A    
C5    H22   S    
C34   C35   A    
C13   H4    S    
C4    C6    S    
C9    C14   S    
C36   C37   A    
C38   O11   D    
C30   H24   S    
C7    C28   T    
C3    C30   S    
C33   C34   A    
C11   C16   S    
Cu1   Cu2   S    
C2    C27   S    
C21   N1    S    
Cu2   O6    S    
C10   C31   S    
C18   N1    S    
C20   C22   S    
C26   C30   S    
C32   C37   A    
C2    C5    S    
C25   O8    A    
Cu2   N1    S    
C6    H21   S    
C3    C4    S    
C19   H12   S    
C9    C10   S    
C15   C17   S    
Cu1   O3    S    
C11   H2    S    
Cu2   O2    S    
O10   H28   S    
C3    C5    S    
C34   H30   S    
C4    C26   S    
C19   H13   S    
Cu2   O8    S    
C12   O4    A    
C13   C17   S    
C2    C30   S    
C10   H27   S    
C20   H20   S    
C22   N2    S    
C5    C6    S    
C35   H31   S    
C19   N2    S    
C9    H25   S    
C17   H6    S    
C11   H8    S    
C21   C24   S    
C31   O10   S    
C1    C14   S    
C16   H9    S    
C20   H14   S    
Cu2   O4    S    
