data_mof_unit_56761.cif
_audit_creation_date              2012-12-10T20:31:06-0500
_audit_creation_method            fapswitch 2.2
_symmetry_space_group_name_H-M    P1
_symmetry_Int_Tables_number       1
_space_group_crystal_system       triclinic
_cell_length_a                    14.998012
_cell_length_b                    10.65955
_cell_length_c                    9.948248
_cell_angle_alpha                 89.098802
_cell_angle_beta                  90.3859
_cell_angle_gamma                 92.383353
_cell_volume                      1588.84508207

loop_
_atom_site_label
_atom_site_type_symbol
_atom_type_description
_atom_site_fract_x
_atom_site_fract_y
_atom_site_fract_z
_atom_type_partial_charge
C1    C     C_R   0.506562 0.260488 0.501060 0.928680
C2    C     C_R   0.908723 0.519266 0.616570 0.098137
C3    C     C_R   0.952072 0.429470 0.259260 -0.029674
C4    C     C_R   0.045469 0.434894 0.261970 -0.178437
C5    C     C_R   0.092142 0.467960 0.378872 0.071235
C6    C     C_R   0.046454 0.496214 0.496816 0.066538
C7    C     C_R   0.093943 0.529998 0.614933 0.111585
C8    C     C_R   0.048695 0.557105 0.732615 -0.169683
C9    C     C_R   0.956211 0.551176 0.733582 -0.121842
C10   C     C_R   0.184508 0.471179 0.380171 -0.215126
C11   C     C_R   0.231133 0.503150 0.497608 -0.048487
C12   C     C_R   0.326933 0.501272 0.499426 0.937092
C13   C     C_R   0.186208 0.535429 0.613556 -0.172652
C14   C     C_R   0.535733 0.062749 0.622928 0.149841
C15   C     C_R   0.528780 0.130803 0.502737 -0.108454
C16   C     C_R   0.544645 0.069620 0.381625 -0.141701
C17   C     C_R   0.539955 0.939342 0.379190 -0.176978
C18   C     C_R   0.523038 0.872083 0.499111 -0.072530
C19   C     C_R   0.530668 0.934682 0.620535 0.061193
C20   C     C_3   0.480995 0.922551 0.750577 -0.329658
C21   C     C_3   0.487504 0.065973 0.754040 -0.226613
C22   C     C_R   0.426862 0.457488 0.069853 0.082874
C23   C     C_R   0.504221 0.740056 0.499205 0.887535
C24   C     C_R   0.560966 0.573166 0.071996 -0.002065
C25   C     C_R   0.564831 0.565699 0.927525 0.020007
C26   C     C_R   0.425371 0.461784 0.928960 0.073028
C27   C     C_3   0.371495 0.341231 0.922820 -0.281694
C28   C     C_3   0.372692 0.336886 0.076843 -0.289451
C29   C     C_R   0.673190 0.498303 0.500140 0.861071
C30   C     C_R   0.816787 0.516698 0.617368 -0.211757
C31   C     C_R   0.769113 0.492836 0.499587 -0.057394
C32   C     C_R   0.812763 0.464556 0.380669 -0.249894
C33   C     C_R   0.905581 0.460348 0.377602 0.024058
C34   C     C_R   0.953569 0.491517 0.496817 0.069798
H1    H     H_    0.782548 0.536393 0.709119 0.205895
H2    H     H_    0.542993 0.892979 0.283552 0.197782
H3    H     H_    0.520308 0.874162 0.829650 0.142427
H4    H     H_    0.408534 0.267650 0.874467 0.185008
H5    H     H_    0.306521 0.347788 0.124083 0.163875
H6    H     H_    0.219949 0.447225 0.290225 0.151223
H7    H     H_    0.222990 0.564247 0.702800 0.138153
H8    H     H_    0.084775 0.582473 0.823656 0.155128
H9    H     H_    0.553453 0.120928 0.288100 0.167446
N1    N     N_R   0.499390 0.499140 0.142800 -0.162188
N2    N     N_R   0.499390 0.499180 0.857150 -0.140438
O1    O     O_R   0.500010 0.316790 0.614690 -0.578303
O2    O     O_R   0.500000 0.316760 0.385350 -0.620129
O3    O     O_R   0.367850 0.499990 0.614680 -0.618583
O4    O     O_R   0.367840 0.499950 0.385340 -0.619121
O5    O     O_R   0.500000 0.683240 0.614650 -0.668790
O6    O     O_R   0.499990 0.683210 0.385310 -0.643492
O7    O     O_R   0.632160 0.500050 0.614660 -0.631897
O8    O     O_R   0.632150 0.500010 0.385320 -0.669059
Zn1   Zn    Zn3+2 0.500010 0.500020 0.653130 0.976407
Zn2   Zn    Zn3+2 0.499990 0.499980 0.346870 0.949036
C35   C     C_2   0.386447 0.869308 0.738085 0.492926
H10   H     H_    0.362935 0.796349 0.808046 0.051212
O9    O     O_2   0.335986 0.906773 0.650721 -0.538095
H11   H     H_    0.422447 0.111145 0.744299 0.193958
C36   C     C_2   0.547332 0.114644 0.865423 0.371456
H12   H     H_    0.551763 0.062309 0.959544 0.091401
O10   O     O_2   0.589215 0.214770 0.852717 -0.544079
C37   C     C_2   0.612442 0.675521 0.141542 0.458666
H13   H     H_    0.636307 0.665722 0.242555 0.120843
O11   O     O_2   0.625672 0.777771 0.086485 -0.607711
C38   C     C_2   0.638625 0.632331 0.854610 0.497546
H14   H     H_    0.627183 0.679189 0.759682 0.091244
O12   O     O_2   0.713959 0.637323 0.902142 -0.588579
C39   C     C_2   0.279835 0.356973 0.865370 0.491075
H15   H     H_    0.237789 0.428842 0.903266 0.031819
O13   O     O_2   0.251662 0.288025 0.776539 -0.533674
H16   H     H_    0.773303 0.447774 0.291288 0.152035
C40   C     C_2   0.421975 0.228010 0.131114 0.513286
H17   H     H_    0.492039 0.220164 0.108445 0.048074
O14   O     O_2   0.383055 0.147014 0.199130 -0.556866
C41   C     C_2   0.906180 0.387962 0.133151 0.435576
H18   H     H_    0.836613 0.356896 0.132003 0.075005
O15   O     O_2   0.946831 0.385396 0.027315 -0.569190
H19   H     H_    0.082383 0.411600 0.172968 0.182722
H20   H     H_    0.921751 0.572902 0.825236 0.200390

loop_
_geom_bond_atom_site_label_1
_geom_bond_atom_site_label_2
_ccdc_geom_bond_type
C38   O12   D    
C37   O11   D    
C40   H17   S    
C19   C20   S    
C12   O3    A    
C13   H7    S    
C12   O4    A    
C7    C8    A    
C32   H16   S    
O3    Zn1   S    
C26   C27   S    
O5    Zn1   S    
C30   H1    S    
C14   C21   S    
C10   H6    S    
C41   O15   D    
C21   H11   S    
C5    C6    A    
C1    O1    A    
C16   C17   A    
C3    C33   A    
C27   H4    S    
C15   C16   A    
C35   H10   S    
C36   O10   D    
C18   C19   A    
C39   O13   D    
C26   N2    A    
C22   N1    A    
C8    C9    A    
C1    C15   S    
C17   H2    S    
C27   C39   S    
C20   C35   S    
C2    C34   A    
C38   H14   S    
C22   C28   S    
C40   O14   D    
C28   C40   S    
O7    Zn1   S    
C33   C34   A    
O8    Zn2   S    
C18   C23   S    
C24   C25   A    
C21   C36   S    
C1    O2    A    
C23   O5    A    
C28   H5    S    
O4    Zn2   S    
C6    C34   A    
C36   H12   S    
C9    H20   S    
C23   O6    A    
C31   C32   A    
O1    Zn1   S    
C17   C18   A    
C41   H18   S    
C3    C41   S    
C16   H9    S    
C4    H19   S    
N2    Zn1   S    
C24   C37   S    
C24   N1    A    
C3    C4    A    
C25   N2    A    
O2    Zn2   S    
C14   C19   A    
C25   C38   S    
C8    H8    S    
C4    C5    A    
C11   C12   S    
C6    C7    A    
C2    C30   A    
C32   C33   A    
C5    C10   A    
C29   C31   S    
C20   H3    S    
C11   C13   A    
N1    Zn2   S    
C30   C31   A    
C29   O8    A    
C35   O9    D    
O6    Zn2   S    
C39   H15   S    
C10   C11   A    
C37   H13   S    
C7    C13   A    
C20   C21   S    
C22   C26   A    
C27   C28   S    
C14   C15   A    
C2    C9    A    
C29   O7    A    
