data_mof_unit_28948.cif
_audit_creation_date              2012-12-10T19:11:32-0500
_audit_creation_method            fapswitch 2.2
_symmetry_space_group_name_H-M    P1
_symmetry_Int_Tables_number       1
_space_group_crystal_system       triclinic
_cell_length_a                    7.780304
_cell_length_b                    9.090695
_cell_length_c                    17.35657
_cell_angle_alpha                 90.041725
_cell_angle_beta                  85.497598
_cell_angle_gamma                 89.996014
_cell_volume                      1223.81325619

loop_
_atom_site_label
_atom_site_type_symbol
_atom_type_description
_atom_site_fract_x
_atom_site_fract_y
_atom_site_fract_z
_atom_type_partial_charge
C1    C     C_R   0.499993 0.779987 0.500013 0.837195
C2    C     C_R   0.499978 0.220021 0.500109 0.911388
C3    C     C_1   0.499977 0.934635 0.500059 -0.141862
C4    C     C_1   0.499973 0.065383 0.500097 -0.129359
C5    C     C_R   0.476916 0.499971 0.650285 0.821754
C6    C     C_R   0.523063 0.499478 0.349755 0.830015
C7    C     C_R   0.461168 0.502219 0.735090 -0.138321
C8    C     C_R   0.538633 0.500828 0.265035 -0.122232
C9    C     C_R   0.571886 0.592772 0.774827 -0.036921
C10   C     C_R   0.431864 0.595048 0.225326 -0.043159
C11   C     C_R   0.557342 0.595595 0.854845 -0.139973
C12   C     C_R   0.446946 0.598241 0.145275 -0.143692
C13   C     C_R   0.433685 0.510006 0.896970 0.065069
C14   C     C_R   0.567375 0.509382 0.103185 0.092886
C15   C     C_R   0.316468 0.423428 0.858471 -0.064897
C16   C     C_R   0.680449 0.419318 0.141762 -0.146188
C17   C     C_R   0.331868 0.417616 0.776845 -0.092215
C18   C     C_R   0.664369 0.412429 0.223275 -0.101786
C19   C     C_2   0.427795 0.513680 0.981741 -0.133364
C20   C     C_2   0.573034 0.511043 0.018398 -0.168881
Cu1   Cu    Cu3+1 0.330920 0.500000 0.500000 1.062678
Cu2   Cu    Cu3+1 0.669080 0.500000 0.500000 1.061351
H1    H     H_    0.364932 0.671905 0.115389 0.148945
H2    H     H_    0.642261 0.666735 0.884738 0.156787
H3    H     H_    0.697302 0.500667 0.985601 0.170070
H4    H     H_    0.302971 0.509671 0.014475 0.176332
N1    N     N_1   0.923170 0.500000 0.500010 -0.029825
N2    N     N_1   0.076830 0.500000 0.499990 -0.029688
O1    O     O_R   0.357240 0.711600 0.500000 -0.577856
O2    O     O_R   0.642760 0.288400 0.500000 -0.573450
O3    O     O_R   0.642760 0.711600 0.500000 -0.579200
O4    O     O_R   0.357240 0.288400 0.500000 -0.574945
O5    O     O_R   0.340660 0.500000 0.613590 -0.578975
O6    O     O_R   0.659340 0.500000 0.386410 -0.580970
O7    O     O_R   0.626230 0.500000 0.613600 -0.568771
O8    O     O_R   0.373770 0.500000 0.386400 -0.570710
C21   C     C_2   0.186350 0.331950 0.903496 0.873781
O9    O     O_2   0.232802 0.239881 0.948816 -0.518994
O10   O     O_R   0.011000 0.352702 0.894707 -0.721037
H5    H     H_    0.935214 0.281930 0.927106 0.369882
C22   C     C_2   0.806550 0.324285 0.096571 0.895594
O11   O     O_2   0.756976 0.212292 0.066456 -0.515795
O12   O     O_R   0.981120 0.361752 0.087444 -0.691647
H6    H     H_    0.006712 0.458455 0.113301 0.301588
C23   C     C_1   0.698903 0.687819 0.735058 0.308827
N3    N     N_1   0.800538 0.763896 0.703298 -0.240488
C24   C     C_1   0.308599 0.693399 0.265229 0.285071
N4    N     N_1   0.209990 0.772123 0.297108 -0.237927
C25   C     C_2   0.769281 0.305101 0.264255 0.883073
O13   O     O_2   0.926007 0.301920 0.251390 -0.561479
O14   O     O_R   0.687808 0.207822 0.317755 -0.759394
H7    H     H_    0.772256 0.140626 0.342140 0.339346
C26   C     C_2   0.224952 0.313021 0.735335 0.885334
O15   O     O_2   0.068128 0.325926 0.739453 -0.533152
O16   O     O_R   0.305409 0.202331 0.689632 -0.768054
H8    H     H_    0.220065 0.139264 0.663180 0.338239

loop_
_geom_bond_atom_site_label_1
_geom_bond_atom_site_label_2
_ccdc_geom_bond_type
C19   C20   D    
C2    C4    S    
O12   H6    S    
C5    C7    S    
C9    C23   S    
C21   O9    D    
C14   C20   S    
C11   C13   A    
C22   O11   D    
C22   O12   S    
C24   N4    T    
C13   C15   A    
C1    O3    A    
C2    O2    A    
Cu1   Cu2   S    
O16   H8    S    
C1    O1    A    
C21   O10   S    
Cu1   O8    S    
C26   O15   D    
Cu2   O7    S    
C9    C11   A    
C12   H1    S    
C10   C12   A    
C5    O7    A    
C1    C3    S    
C8    C10   A    
Cu1   N2    S    
C12   C14   A    
C7    C9    A    
Cu2   N1    S    
C26   O16   S    
Cu2   O6    S    
Cu1   O4    S    
C14   C16   A    
C10   C24   S    
Cu1   O5    S    
Cu2   O3    S    
C13   C19   S    
O14   H7    S    
C17   C26   S    
C11   H2    S    
O10   H5    S    
C2    O4    A    
C25   O13   D    
C20   H3    S    
N1    N2    T    
C15   C17   A    
C19   H4    S    
C15   C21   S    
C6    C8    S    
Cu2   O2    S    
C7    C17   A    
C23   N3    T    
Cu1   O1    S    
C16   C22   S    
C16   C18   A    
C8    C18   A    
C3    C4    T    
C6    O6    A    
C18   C25   S    
C6    O8    A    
C25   O14   S    
C5    O5    A    
