data_mof_unit_19692.cif
_audit_creation_date              2012-10-26T18:59:36-0400
_audit_creation_method            fapswitch 2.2
_symmetry_space_group_name_H-M    P1
_symmetry_Int_Tables_number       1
_space_group_crystal_system       triclinic
_cell_length_a                    23.412164
_cell_length_b                    10.830455
_cell_length_c                    9.551921
_cell_angle_alpha                 89.702631
_cell_angle_beta                  90.591308
_cell_angle_gamma                 90.240643
_cell_volume                      2421.84458595

loop_
_atom_site_label
_atom_site_type_symbol
_atom_type_description
_atom_site_fract_x
_atom_site_fract_y
_atom_site_fract_z
_atom_type_partial_charge
C1    C     C_R   0.499638 0.262317 0.500361 0.554589
C2    C     C_R   0.118772 0.459075 0.358581 0.391947
C3    C     C_R   0.238639 0.553821 0.376733 0.057186
C4    C     C_R   0.390812 0.501449 0.499431 0.550101
C5    C     C_R   0.298109 0.537503 0.374935 -0.122652
C6    C     C_R   0.327963 0.508349 0.498423 -0.025053
C7    C     C_R   0.297920 0.504975 0.624298 -0.154549
C8    C     C_R   0.238376 0.512554 0.623714 0.024212
C9    C     C_R   0.207606 0.508584 0.494509 0.183432
C10   C     C_R   0.755760 0.374689 0.452450 -0.046028
C11   C     C_R   0.696580 0.385705 0.453335 -0.123317
C12   C     C_R   0.971719 0.385140 0.729196 -0.118981
C13   C     C_R   0.671114 0.494566 0.500237 0.036201
C14   C     C_R   0.705477 0.595332 0.543556 -0.008121
C15   C     C_R   0.765096 0.582535 0.543086 -0.037217
C16   C     C_R   0.499341 0.737543 0.499674 0.541540
C17   C     C_R   0.790080 0.472731 0.497810 0.227827
C18   C     C_R   0.500768 0.062289 0.626457 0.006384
C19   C     C_R   0.495536 0.128984 0.501071 -0.002324
C20   C     C_R   0.483123 0.064931 0.376520 -0.149048
C21   C     C_R   0.482897 0.936176 0.375779 -0.155788
C22   C     C_R   0.494819 0.870506 0.499750 0.005370
C23   C     C_R   0.031156 0.378264 0.724656 -0.103831
C24   C     C_R   0.500110 0.934956 0.625123 -0.001525
C25   C     C_3   0.544478 0.923963 0.737909 -0.265913
C26   C     C_3   0.545771 0.064675 0.740063 -0.021482
C27   C     C_R   0.529282 0.588844 0.074415 0.135496
C28   C     C_R   0.608825 0.500397 0.500355 0.550244
C29   C     C_R   0.465378 0.422720 0.073970 0.020855
C30   C     C_R   0.465035 0.423445 0.925010 0.019835
C31   C     C_R   0.530930 0.586009 0.927514 0.140440
C32   C     C_3   0.594292 0.609527 0.929308 -0.153150
C33   C     C_3   0.591203 0.618768 0.087772 -0.261741
C34   C     C_R   0.060370 0.410928 0.602089 0.035113
C35   C     C_R   0.878192 0.485382 0.369506 0.403877
C36   C     C_R   0.880499 0.429763 0.611896 0.406261
C37   C     C_R   0.940280 0.421160 0.609890 0.029390
C38   C     C_R   0.969154 0.448303 0.484551 -0.030447
C39   C     C_R   0.937933 0.478260 0.362601 0.017539
C40   C     C_3   0.679964 0.718013 0.583642 -0.287665
C41   C     C_3   0.661883 0.791870 0.454085 -0.431605
C42   C     C_1   0.525494 0.115593 0.872830 0.219868
C43   C     C_1   0.600820 0.118076 0.696588 0.211934
C44   C     C_1   0.628924 0.502693 0.887698 0.251899
C45   C     C_R   0.029338 0.444381 0.481088 -0.037849
C46   C     C_1   0.053229 0.527265 0.101157 0.245704
C47   C     C_3   0.213055 0.643338 0.270180 -0.239239
C48   C     C_3   0.241542 0.770617 0.277388 -0.454779
C49   C     C_1   0.212165 0.551752 0.752282 0.256178
C50   C     C_R   0.058523 0.466189 0.354988 0.012935
C51   C     C_R   0.026568 0.494371 0.231910 -0.027099
C52   C     C_R   0.966925 0.500650 0.237137 -0.127415
C53   C     C_R   0.120229 0.411945 0.597364 0.424714
Cu1   Cu    Cu3+1 0.500000 0.499980 0.640670 0.969533
Cu2   Cu    Cu3+1 0.500000 0.500020 0.359330 0.942205
H1    H     H_    0.950562 0.362240 0.826307 0.169187
H2    H     H_    0.437704 0.359510 0.868819 0.129709
H3    H     H_    0.606569 0.697758 0.878114 0.087660
H4    H     H_    0.616031 0.547114 0.145304 0.174395
H5    H     H_    0.598192 0.714280 0.126621 0.111909
H6    H     H_    0.943202 0.524410 0.142701 0.171021
H7    H     H_    0.321481 0.560013 0.280780 0.133629
H8    H     H_    0.320825 0.502006 0.723534 0.134921
H9    H     H_    0.775049 0.290166 0.416103 0.137216
H10   H     H_    0.699028 0.806950 0.384534 0.169854
H11   H     H_    0.627715 0.742719 0.395088 0.161733
H12   H     H_    0.670465 0.308913 0.417917 0.136849
H13   H     H_    0.645227 0.883181 0.486150 0.150160
H14   H     H_    0.642621 0.703202 0.651848 0.150594
H15   H     H_    0.711378 0.773813 0.644591 0.153043
H16   H     H_    0.239591 0.807324 0.385640 0.166063
H17   H     H_    0.286802 0.766077 0.244365 0.150386
H18   H     H_    0.218809 0.835460 0.205895 0.167213
H19   H     H_    0.217920 0.605939 0.162873 0.210723
H20   H     H_    0.167140 0.659649 0.289911 0.176196
H21   H     H_    0.792384 0.658639 0.574875 0.125302
H22   H     H_    0.475719 0.113806 0.278851 0.161963
H23   H     H_    0.475580 0.888665 0.277668 0.142343
H24   H     H_    0.526818 0.879832 0.833743 0.133897
H25   H     H_    0.584311 0.880543 0.700129 0.115667
H26   H     H_    0.438474 0.357880 0.129452 0.127128
H27   H     H_    0.054201 0.350539 0.818460 0.185590
N1    N     N_R   0.850965 0.462443 0.493107 -0.402192
N2    N     N_R   0.147911 0.463786 0.484504 -0.388929
N3    N     N_R   0.500360 0.500930 0.147930 -0.231959
N4    N     N_R   0.500360 0.500890 0.852020 -0.234698
N5    N     N_1   0.509781 0.154190 0.978281 -0.337354
N6    N     N_1   0.644111 0.159786 0.662500 -0.285423
N7    N     N_1   0.656314 0.418803 0.856071 -0.226195
N8    N     N_1   0.074366 0.554341 0.996390 -0.243794
N9    N     N_1   0.191555 0.583841 0.855422 -0.247673
O1    O     O_R   0.500000 0.319640 0.618810 -0.492817
O2    O     O_R   0.582120 0.500020 0.618760 -0.482501
O3    O     O_R   0.582120 0.500060 0.381180 -0.512436
O4    O     O_2   0.847502 0.515578 0.254045 -0.481138
O5    O     O_2   0.852073 0.405703 0.731210 -0.469475
O6    O     O_2   0.149639 0.353398 0.699719 -0.474570
O7    O     O_2   0.147112 0.437525 0.239269 -0.479238
O8    O     O_R   0.500010 0.319680 0.381230 -0.501647
O9    O     O_R   0.417880 0.499940 0.618820 -0.507692
O10   O     O_R   0.417880 0.499980 0.381240 -0.507362
O11   O     O_R   0.499990 0.680320 0.618770 -0.501822
O12   O     O_R   0.500000 0.680360 0.381190 -0.511427

loop_
_geom_bond_atom_site_label_1
_geom_bond_atom_site_label_2
_ccdc_geom_bond_type
C23   H27   S    
C25   H25   S    
C2    N2    A    
C19   C20   A    
C18   C26   S    
C32   H3    S    
C1    O8    A    
C7    C8    A    
C27   C33   S    
C29   H26   S    
C12   C23   A    
C29   C30   A    
C40   H15   S    
C20   H22   S    
C53   N2    A    
C18   C24   A    
C43   N6    T    
C36   C37   A    
C49   N9    T    
C52   H6    S    
C38   C39   A    
C10   C17   A    
C30   H2    S    
Cu2   O12   S    
C28   O3    A    
C18   C19   A    
C12   C37   A    
C27   N3    A    
C38   C45   A    
C2    C50   A    
C31   C32   S    
C8    C9    A    
Cu1   O2    S    
C21   H23   S    
C13   C28   S    
C30   N4    A    
C29   N3    A    
C39   C52   A    
C33   H4    S    
C31   N4    A    
C21   C22   A    
Cu1   O9    S    
C48   H17   S    
Cu2   O3    S    
C11   H12   S    
C26   C43   S    
C41   H13   S    
C1    C19   S    
C40   H14   S    
C27   C31   A    
C51   C52   A    
C24   C25   S    
C4    C6    S    
Cu1   N4    S    
C35   N1    A    
C41   H10   S    
C41   H11   S    
C53   O6    S    
C25   C26   S    
C46   C51   S    
C28   O2    A    
C17   N1    S    
Cu2   N3    S    
C35   C39   A    
Cu1   O1    S    
C37   C38   A    
C3    C9    A    
C36   O5    S    
C16   O12   A    
C47   C48   S    
C23   C34   A    
C4    O10   A    
C50   C51   A    
C32   C44   S    
C34   C45   A    
C7    H8    S    
C12   H1    S    
C16   O11   A    
C40   C41   S    
C33   H5    S    
C4    O9    A    
C22   C24   A    
C48   H16   S    
C26   C42   S    
C15   C17   A    
Cu1   Cu2   S    
C16   C22   S    
C25   H24   S    
C48   H18   S    
Cu1   O11   S    
C10   H9    S    
C47   H19   S    
C3    C5    A    
C6    C7    A    
C46   N8    T    
C35   O4    S    
C1    O1    A    
Cu2   O10   S    
C32   C33   S    
C47   H20   S    
C11   C13   A    
C5    C6    A    
C45   C50   A    
C3    C47   S    
C5    H7    S    
C15   H21   S    
C10   C11   A    
C9    N2    S    
C14   C40   S    
C20   C21   A    
C2    O7    S    
C34   C53   A    
Cu2   O8    S    
C14   C15   A    
C42   N5    T    
C36   N1    A    
C13   C14   A    
C8    C49   S    
C44   N7    T    
