data_mof_unit_12882.cif
_audit_creation_date              2012-12-11T15:44:51-0500
_audit_creation_method            fapswitch 2.2
_symmetry_space_group_name_H-M    P1
_symmetry_Int_Tables_number       1
_space_group_crystal_system       triclinic
_cell_length_a                    19.077471
_cell_length_b                    11.023675
_cell_length_c                    18.746418
_cell_angle_alpha                 90.418956
_cell_angle_beta                  90.385431
_cell_angle_gamma                 89.991655
_cell_volume                      3942.24907831

loop_
_atom_site_label
_atom_site_type_symbol
_atom_type_description
_atom_site_fract_x
_atom_site_fract_y
_atom_site_fract_z
_atom_type_partial_charge
C1    C     C_R   0.759908 0.536664 0.647309 0.576804
C2    C     C_R   0.238829 0.531980 0.353706 0.561798
C3    C     C_R   0.259914 0.036648 0.647306 0.576453
C4    C     C_R   0.738822 0.031953 0.353716 0.561767
C5    C     C_R   0.748276 0.018892 0.550147 0.362585
C6    C     C_R   0.163155 0.127243 0.482789 0.303439
C7    C     C_R   0.248334 0.518848 0.550133 0.362638
C8    C     C_R   0.663130 0.627309 0.482801 0.303317
C9    C     C_R   0.733714 0.988399 0.479737 -0.139296
C10   C     C_R   0.173991 0.107757 0.556074 -0.096929
C11   C     C_R   0.233777 0.488373 0.479719 -0.139179
C12   C     C_R   0.673969 0.607796 0.556083 -0.096961
C13   C     C_3   0.743747 0.302653 0.420577 0.464398
C14   C     C_3   0.369807 0.143119 0.532449 0.476580
C15   C     C_3   0.243652 0.802708 0.420627 0.464440
C16   C     C_3   0.869743 0.642996 0.532447 0.476125
C17   C     C_3   0.749184 0.336303 0.499206 0.149220
C18   C     C_3   0.357643 0.179802 0.454047 0.157572
C19   C     C_3   0.249072 0.836293 0.499266 0.149475
C20   C     C_3   0.857588 0.679673 0.454050 0.157398
C21   C     C_R   0.773393 0.135294 0.566342 0.071302
C22   C     C_R   0.219153 0.161487 0.438882 0.028847
C23   C     C_R   0.273390 0.635283 0.566344 0.071200
C24   C     C_R   0.719128 0.661562 0.438896 0.028806
C25   C     C_R   0.006442 0.350695 0.429836 0.017956
C26   C     C_R   0.010550 0.325371 0.579515 0.029413
C27   C     C_R   0.506363 0.850736 0.429808 0.018275
C28   C     C_R   0.510507 0.825404 0.579487 0.029528
C29   C     C_R   0.948456 0.151818 0.419208 0.404425
C30   C     C_R   0.980989 0.106679 0.561951 0.404966
C31   C     C_R   0.448411 0.651854 0.419176 0.404373
C32   C     C_R   0.480963 0.606709 0.561915 0.404966
C33   C     C_R   0.933131 0.039859 0.448837 -0.082609
C34   C     C_R   0.951537 0.016364 0.519076 -0.054587
C35   C     C_R   0.433117 0.539880 0.448795 -0.082632
C36   C     C_R   0.451537 0.516385 0.519030 -0.054550
C37   C     C_R   0.991104 0.225252 0.535051 -0.029380
C38   C     C_R   0.981817 0.243145 0.460750 -0.006846
C39   C     C_R   0.491054 0.725290 0.535023 -0.029495
C40   C     C_R   0.481755 0.743186 0.460723 -0.006910
C41   C     C_R   0.038828 0.429450 0.548510 -0.052930
C42   C     C_R   0.027588 0.449931 0.475278 -0.088138
C43   C     C_R   0.538749 0.929508 0.548474 -0.052476
C44   C     C_R   0.527471 0.949995 0.475250 -0.087162
C45   C     C_R   0.790408 0.168382 0.638625 0.574937
C46   C     C_R   0.208954 0.171628 0.361321 0.599447
C47   C     C_R   0.290404 0.668371 0.638625 0.574795
C48   C     C_R   0.708946 0.671647 0.361321 0.599493
C49   C     C_R   0.068763 0.521414 0.591785 -0.064234
C50   C     C_R   0.031103 0.572490 0.452202 -0.084943
C51   C     C_R   0.568712 0.021468 0.591735 -0.064159
C52   C     C_R   0.531018 0.072544 0.452161 -0.084234
C53   C     C_R   0.073250 0.639565 0.567357 0.470910
C54   C     C_R   0.052227 0.665687 0.498058 0.468415
C55   C     C_R   0.573237 0.139606 0.567291 0.470859
C56   C     C_R   0.552200 0.165731 0.497998 0.468252
C57   C     C_R   0.754506 0.085073 0.078711 -0.100165
C58   C     C_R   0.258428 0.059203 0.929677 0.008530
C59   C     C_R   0.254506 0.585073 0.078711 -0.100166
C60   C     C_R   0.758428 0.559201 0.929677 0.008543
C61   C     C_R   0.804642 0.026185 0.037091 0.001600
C62   C     C_R   0.200152 0.014654 0.964265 -0.047643
C63   C     C_R   0.304642 0.526185 0.037092 0.001601
C64   C     C_R   0.700152 0.514652 0.964266 -0.047636
C65   C     C_R   0.804453 0.036162 0.964579 0.054960
C66   C     C_R   0.194033 0.022008 0.036684 0.038454
C67   C     C_R   0.304454 0.536162 0.964579 0.054959
C68   C     C_R   0.694033 0.522007 0.036684 0.038452
C69   C     C_R   0.707947 0.176078 0.969967 0.257936
C70   C     C_R   0.313042 0.093855 0.047297 0.223231
C71   C     C_R   0.207948 0.676078 0.969967 0.257934
C72   C     C_R   0.813042 0.593854 0.047298 0.223229
C73   C     C_R   0.710553 0.171541 0.045256 0.232175
C74   C     C_R   0.317399 0.095682 0.972302 0.254886
C75   C     C_R   0.210553 0.671542 0.045257 0.232176
C76   C     C_R   0.817399 0.595680 0.972302 0.254886
C77   C     C_3   0.825086 0.895054 0.032501 0.438685
C78   C     C_3   0.124785 0.039730 0.949442 0.355337
C79   C     C_3   0.325086 0.395054 0.032501 0.438686
C80   C     C_3   0.624786 0.539730 0.949442 0.355324
C81   C     C_3   0.824747 0.908182 0.952271 0.599192
C82   C     C_3   0.117646 0.052292 0.029415 0.626390
C83   C     C_3   0.324747 0.408182 0.952271 0.599194
C84   C     C_3   0.617646 0.552295 0.029415 0.626389
C85   C     C_R   0.755507 0.104463 0.928544 -0.039326
C86   C     C_R   0.247458 0.071841 0.079205 -0.075521
C87   C     C_R   0.255507 0.604463 0.928544 -0.039331
C88   C     C_R   0.747458 0.571839 0.079205 -0.075520
C89   C     C_R   0.973230 0.343415 0.648230 0.579057
C90   C     C_R   0.030871 0.348757 0.354799 0.609184
C91   C     C_R   0.473223 0.843419 0.648224 0.579070
C92   C     C_R   0.530851 0.848763 0.354788 0.609071
C93   C     C_R   0.988841 0.345725 0.081599 -0.033653
C94   C     C_R   0.955992 0.344294 0.936043 0.000163
C95   C     C_R   0.488841 0.845725 0.081599 -0.033657
C96   C     C_R   0.455992 0.844294 0.936043 0.000163
C97   C     C_R   0.989437 0.452477 0.041755 -0.022019
C98   C     C_R   0.974376 0.450868 0.970668 -0.018628
C99   C     C_R   0.489437 0.952477 0.041755 -0.022020
C100  C     C_R   0.474375 0.950868 0.970668 -0.018630
C101  C     C_R   0.947687 0.237835 0.976566 0.373312
C102  C     C_R   0.961506 0.239786 0.050255 0.417966
C103  C     C_R   0.447688 0.737834 0.976566 0.373310
C104  C     C_R   0.461507 0.739786 0.050254 0.417965
C105  C     C_3   0.047123 0.543110 0.032069 0.375095
C106  C     C_3   0.031450 0.538622 0.953284 0.315765
C107  C     C_3   0.547123 0.043111 0.032069 0.375097
C108  C     C_3   0.531450 0.038622 0.953285 0.315766
C109  C     C_R   0.762435 0.528411 0.854128 0.574091
C110  C     C_R   0.240135 0.533549 0.148544 0.536478
C111  C     C_R   0.262435 0.028411 0.854128 0.574122
C112  C     C_R   0.740135 0.033549 0.148544 0.536482
C113  C     C_R   0.772559 0.129483 0.854183 0.558090
C114  C     C_R   0.228001 0.123167 0.148101 0.558341
C115  C     C_R   0.272559 0.629483 0.854183 0.558087
C116  C     C_R   0.728001 0.623166 0.148101 0.558350
C117  C     C_R   0.939342 0.350933 0.860786 0.591181
C118  C     C_R   0.027674 0.347276 0.148197 0.608090
C119  C     C_R   0.439342 0.850933 0.860786 0.591185
C120  C     C_R   0.527674 0.847276 0.148197 0.608098
C121  C     C_R   0.747428 0.071079 0.425355 -0.008536
C122  C     C_R   0.242201 0.111203 0.584961 -0.024556
C123  C     C_R   0.247436 0.571106 0.425348 -0.008512
C124  C     C_R   0.742178 0.611265 0.584974 -0.024382
C125  C     C_R   0.775394 0.183812 0.440615 -0.004741
C126  C     C_R   0.293693 0.167525 0.544145 0.062076
C127  C     C_R   0.275353 0.683879 0.440624 -0.004825
C128  C     C_R   0.793663 0.667659 0.544177 0.062698
C129  C     C_R   0.785682 0.217908 0.511531 -0.144115
C130  C     C_R   0.282049 0.195050 0.473075 -0.068758
C131  C     C_R   0.285626 0.717944 0.511547 -0.144311
C132  C     C_R   0.782019 0.695158 0.473092 -0.068581
Cr1   Cr    Cr6+3 0.885860 0.491680 0.749630 1.072395
Cr2   Cr    Cr6+3 0.114140 0.491680 0.250370 1.081158
Cr3   Cr    Cr6+3 0.385860 0.991680 0.749630 1.072384
Cr4   Cr    Cr6+3 0.614140 0.991680 0.250370 1.081147
Cr5   Cr    Cr6+3 0.730490 0.332970 0.748720 1.152816
Cr6   Cr    Cr6+3 0.269510 0.332970 0.251280 1.096657
Cr7   Cr    Cr6+3 0.230490 0.832970 0.748720 1.152793
Cr8   Cr    Cr6+3 0.769510 0.832970 0.251280 1.096746
Cr9   Cr    Cr6+3 0.887570 0.179310 0.750150 1.196629
Cr10  Cr    Cr6+3 0.112430 0.179310 0.249850 1.220121
Cr11  Cr    Cr6+3 0.387570 0.679310 0.750150 1.196597
Cr12  Cr    Cr6+3 0.612430 0.679310 0.249850 1.220105
H1    H     H_    0.784278 0.833206 0.053276 0.107353
H2    H     H_    0.096288 0.961718 0.925118 0.176142
H3    H     H_    0.284278 0.333206 0.053276 0.107354
H4    H     H_    0.596288 0.461720 0.925118 0.176132
H5    H     H_    0.099896 0.508625 0.047017 0.147334
H6    H     H_    0.012787 0.625640 0.930489 0.218876
H7    H     H_    0.599896 0.008626 0.047017 0.147334
H8    H     H_    0.512786 0.125640 0.930489 0.218874
H9    H     H_    0.710369 0.901603 0.467429 0.107561
H10   H     H_    0.131481 0.070566 0.586789 0.237873
H11   H     H_    0.210476 0.401545 0.467401 0.107655
H12   H     H_    0.631466 0.570560 0.586789 0.237953
H13   H     H_    0.781607 0.416129 0.510749 0.129299
H14   H     H_    0.382913 0.267262 0.439791 0.126813
H15   H     H_    0.281456 0.916144 0.510858 0.127800
H16   H     H_    0.882937 0.767057 0.439765 0.126848
H17   H     H_    0.908220 0.970390 0.416582 0.156816
H18   H     H_    0.943321 0.927559 0.540582 0.236064
H19   H     H_    0.408228 0.470402 0.416531 0.156802
H20   H     H_    0.443361 0.427571 0.540524 0.236172
H21   H     H_    0.010374 0.601874 0.401643 0.189713
H22   H     H_    0.082684 0.503949 0.646907 0.185619
H23   H     H_    0.510309 0.101922 0.401592 0.189865
H24   H     H_    0.582658 0.004001 0.646850 0.185620
O1    O     O_R   0.957020 0.451640 0.669920 -0.482894
O2    O     O_R   0.042980 0.451640 0.330080 -0.550493
O3    O     O_R   0.457020 0.951640 0.669920 -0.482739
O4    O     O_R   0.542980 0.951640 0.330080 -0.550522
O5    O     O_R   0.736470 0.210100 0.823360 -0.506942
O6    O     O_R   0.263530 0.210100 0.176640 -0.497810
O7    O     O_R   0.236470 0.710100 0.823360 -0.506925
O8    O     O_R   0.763530 0.710100 0.176640 -0.497806
O9    O     O_R   0.831960 0.093290 0.830130 -0.436231
O10   O     O_R   0.168040 0.093290 0.169870 -0.432243
O11   O     O_R   0.331960 0.593290 0.830130 -0.436232
O12   O     O_R   0.668040 0.593290 0.169870 -0.432241
O13   O     O_R   0.945600 0.250580 0.824860 -0.394769
O14   O     O_R   0.054400 0.250580 0.175140 -0.382745
O15   O     O_R   0.445600 0.750580 0.824860 -0.394775
O16   O     O_R   0.554400 0.750580 0.175140 -0.382742
O17   O     O_3   0.834640 0.334650 0.749500 -0.366876
O18   O     O_3   0.165360 0.334650 0.250500 -0.342526
O19   O     O_3   0.334640 0.834650 0.749500 -0.366903
O20   O     O_3   0.665360 0.834650 0.250500 -0.342561
O21   O     O_R   0.821450 0.543440 0.674610 -0.477729
O22   O     O_R   0.178550 0.543440 0.325390 -0.507553
O23   O     O_R   0.321450 0.043440 0.674610 -0.477903
O24   O     O_R   0.678550 0.043440 0.325390 -0.507598
O25   O     O_R   0.715320 0.458650 0.668100 -0.448271
O26   O     O_R   0.284680 0.458650 0.331900 -0.511256
O27   O     O_R   0.215320 0.958650 0.668100 -0.448286
O28   O     O_R   0.784680 0.958650 0.331900 -0.511214
O29   O     O_R   0.737170 0.209590 0.674530 -0.409197
O30   O     O_R   0.262830 0.209590 0.325470 -0.508948
O31   O     O_R   0.237170 0.709590 0.674530 -0.409264
O32   O     O_R   0.762830 0.709590 0.325470 -0.508735
O33   O     O_R   0.832710 0.092740 0.669580 -0.458025
O34   O     O_R   0.167290 0.092740 0.330420 -0.402602
O35   O     O_R   0.332710 0.592740 0.669580 -0.457921
O36   O     O_R   0.667290 0.592740 0.330420 -0.402624
O37   O     O_R   0.946290 0.250060 0.676040 -0.457555
O38   O     O_R   0.053710 0.250060 0.323960 -0.430130
O39   O     O_R   0.446290 0.750060 0.676040 -0.457594
O40   O     O_R   0.553710 0.750060 0.323960 -0.430184
O41   O     O_R   0.956270 0.452200 0.830470 -0.475784
O42   O     O_R   0.043730 0.452200 0.169530 -0.500409
O43   O     O_R   0.456270 0.952200 0.830470 -0.475785
O44   O     O_R   0.543730 0.952200 0.169530 -0.500399
O45   O     O_R   0.820760 0.543950 0.823440 -0.541489
O46   O     O_R   0.179240 0.543950 0.176560 -0.492359
O47   O     O_R   0.320760 0.043950 0.823440 -0.541457
O48   O     O_R   0.679240 0.043950 0.176560 -0.492353
O49   O     O_R   0.714570 0.459210 0.828640 -0.476104
O50   O     O_R   0.285430 0.459210 0.171360 -0.448916
O51   O     O_R   0.214570 0.959210 0.828640 -0.476065
O52   O     O_R   0.785430 0.959210 0.171360 -0.448916
F1    F     F_    0.735325 0.937359 0.602379 -0.620760
F2    F     F_    0.100879 0.095467 0.453377 -0.617420
F3    F     F_    0.235432 0.437265 0.602352 -0.620654
F4    F     F_    0.600858 0.595528 0.453383 -0.617429
F5    F     F_    0.090494 0.729917 0.613637 -0.540463
F6    F     F_    0.047291 0.782250 0.476179 -0.575200
F7    F     F_    0.590558 0.229952 0.613546 -0.540439
F8    F     F_    0.547341 0.282292 0.476098 -0.575197
O53   O     O_3   0.657394 0.248709 0.939567 -0.648522
H25   H     H_    0.638990 0.206442 0.896629 0.363906
O54   O     O_3   0.371607 0.125625 0.086746 -0.543656
H26   H     H_    0.366094 0.094146 0.135762 0.330583
O55   O     O_3   0.157396 0.748710 0.939567 -0.648519
H27   H     H_    0.138990 0.706441 0.896630 0.363909
O56   O     O_3   0.871608 0.625625 0.086747 -0.543656
H28   H     H_    0.866094 0.594146 0.135762 0.330589
O57   O     O_3   0.666221 0.246118 0.083411 -0.557419
H29   H     H_    0.684390 0.253605 0.132877 0.336077
O58   O     O_3   0.378831 0.138601 0.943859 -0.616215
H30   H     H_    0.368382 0.180695 0.898825 0.382411
O59   O     O_3   0.166222 0.746120 0.083412 -0.557418
H31   H     H_    0.184391 0.753605 0.132877 0.336072
O60   O     O_3   0.878831 0.638600 0.943859 -0.616214
H32   H     H_    0.868382 0.680696 0.898826 0.382411
F9    F     F_    0.891603 0.876362 0.060291 -0.460327
F10   F     F_    0.114950 0.148426 0.914022 -0.537712
F11   F     F_    0.391603 0.376362 0.060291 -0.460325
F12   F     F_    0.614953 0.648426 0.914022 -0.537718
F13   F     F_    0.890080 0.896320 0.920960 -0.518475
F14   F     F_    0.102757 0.169276 0.050985 -0.588267
F15   F     F_    0.390080 0.396320 0.920960 -0.518478
F16   F     F_    0.602759 0.669281 0.050984 -0.588267
O61   O     O_3   0.771545 0.840870 0.918438 -0.710408
H33   H     H_    0.777146 0.854096 0.866508 0.360425
O62   O     O_3   0.074783 0.964135 0.060365 -0.532483
H34   H     H_    0.028107 0.971887 0.037295 0.422926
O63   O     O_3   0.271546 0.340870 0.918438 -0.710408
H35   H     H_    0.277145 0.354101 0.866507 0.360428
O64   O     O_3   0.574781 0.464141 0.060366 -0.532474
H36   H     H_    0.528108 0.471887 0.037290 0.422919
F17   F     F_    0.934540 0.130433 0.944009 -0.548777
F18   F     F_    0.955244 0.136773 0.088795 -0.538612
F19   F     F_    0.434541 0.630433 0.944009 -0.548780
F20   F     F_    0.455245 0.636772 0.088795 -0.538606
F21   F     F_    0.029943 0.654062 0.062270 -0.492980
F22   F     F_    0.085038 0.484133 0.915117 -0.617695
F23   F     F_    0.529942 0.154063 0.062271 -0.492980
F24   F     F_    0.585037 0.984133 0.915117 -0.617692
O65   O     O_3   0.174544 0.793630 0.394698 -0.582406
H37   H     H_    0.177653 0.781802 0.342308 0.360636
O66   O     O_3   0.887924 0.521745 0.546878 -0.697855
H38   H     H_    0.893061 0.475017 0.502215 0.335596
O67   O     O_3   0.674635 0.293642 0.394651 -0.582482
H39   H     H_    0.677737 0.281759 0.342266 0.360655
O68   O     O_3   0.388203 0.021948 0.546856 -0.697175
H40   H     H_    0.392405 0.974768 0.502221 0.335123
O69   O     O_3   0.786581 0.373423 0.376196 -0.640279
H41   H     H_    0.836239 0.361044 0.390631 0.347523
O70   O     O_3   0.412287 0.225217 0.570040 -0.675749
H42   H     H_    0.410240 0.202308 0.621051 0.375914
O71   O     O_3   0.286452 0.873604 0.376277 -0.640574
H43   H     H_    0.336119 0.861197 0.390661 0.347398
O72   O     O_3   0.912350 0.724942 0.570009 -0.675919
H44   H     H_    0.910318 0.702027 0.621019 0.375951
O73   O     O_3   0.684885 0.337354 0.534643 -0.591337
H45   H     H_    0.653604 0.392644 0.508256 0.424104
O74   O     O_3   0.367547 0.086397 0.403927 -0.717670
H46   H     H_    0.387464 0.124283 0.360734 0.346462
O75   O     O_3   0.184772 0.837223 0.534696 -0.591179
H47   H     H_    0.153491 0.892584 0.508361 0.424087
O76   O     O_3   0.867375 0.586205 0.403947 -0.717523
H48   H     H_    0.887516 0.623940 0.360815 0.346342
F25   F     F_    0.927263 0.172218 0.351036 -0.615501
F26   F     F_    0.005653 0.073505 0.627051 -0.585925
F27   F     F_    0.427216 0.672259 0.351005 -0.615493
F28   F     F_    0.505639 0.573531 0.627009 -0.585951

loop_
_geom_bond_atom_site_label_1
_geom_bond_atom_site_label_2
_ccdc_geom_bond_type
C113  O9    A    
Cr12  O16   S    
Cr2   O42   S    
O76   H48   S    
C10   H10   S    
Cr1   O21   S    
C2    C123  S    
Cr4   O24   S    
C111  O47   A    
C94   C117  S    
C95   C99   A    
C46   O30   A    
O66   H38   S    
C29   C33   A    
C96   C119  S    
C53   F5    S    
Cr12  O36   S    
Cr8   O52   S    
C89   O37   A    
O68   H40   S    
C70   C74   A    
C9    C121  A    
C102  F18   S    
C87   C115  S    
C13   O67   S    
C97   C105  S    
C15   C127  S    
C22   C130  A    
C20   C132  S    
C41   C49   A    
Cr7   O27   S    
Cr5   O25   S    
C118  O14   A    
C56   F8    S    
C30   C34   A    
C60   C76   A    
C3    O27   A    
C35   C36   A    
C93   C102  A    
C1    O25   A    
C43   C44   A    
Cr5   O5    S    
O53   H25   S    
C75   O59   S    
C66   C82   S    
C7    F3    S    
C78   C82   S    
C16   C20   S    
C50   H21   S    
C82   F14   S    
Cr10  O14   S    
Cr5   O29   S    
C116  O12   A    
C125  C129  A    
C82   O62   S    
C18   C130  S    
C16   O66   S    
C4    O28   A    
C2    O22   A    
C10   C122  A    
C14   C126  S    
C57   C61   A    
C59   C63   A    
C98   C106  S    
C91   O3    A    
C60   C64   A    
Cr8   O32   S    
C1    C124  S    
C89   O1    A    
C49   H22   S    
C92   O4    A    
C49   C53   A    
Cr9   O13   S    
Cr10  O38   S    
C127  C131  A    
C78   H2    S    
C61   C65   A    
C80   H4    S    
C5    C21   A    
C20   H16   S    
Cr5   O49   S    
C126  C130  A    
C104  F20   S    
C81   O61   S    
C6    F2    S    
C120  O44   A    
Cr11  O35   S    
C67   C83   S    
C106  H6    S    
Cr1   O41   S    
Cr2   O18   S    
C97   C98   A    
C53   C54   A    
C5    C9    A    
C25   C90   S    
C64   C68   A    
C110  O46   A    
O61   H33   S    
C105  F21   S    
O59   H31   S    
C55   F7    S    
C108  F24   S    
C70   O54   S    
C115  O7    A    
C60   C109  S    
Cr4   O44   S    
C27   C44   A    
Cr12  O12   S    
C61   C77   S    
C114  O10   A    
C29   C38   A    
C107  C108  S    
Cr11  O11   S    
C17   H13   S    
O55   H27   S    
C51   C55   A    
C11   H11   S    
C107  H7    S    
C44   C52   A    
C9    H9    S    
C90   O38   A    
O69   H41   S    
Cr4   O20   S    
C47   O31   A    
C111  O51   A    
C12   H12   S    
Cr3   O19   S    
C33   C34   A    
C21   C45   S    
C100  C108  S    
C23   C47   S    
C62   C66   A    
C24   C48   S    
C76   O60   S    
C88   C116  S    
C29   F25   S    
C39   C40   A    
C79   F11   S    
C121  C125  A    
C69   O53   S    
C25   C38   A    
Cr8   O28   S    
C123  C127  A    
C114  O6    A    
C27   C40   A    
C8    C12   A    
O75   H47   S    
C112  O52   A    
C23   C131  A    
C119  O15   A    
C120  O16   A    
C21   C129  A    
C42   C50   A    
Cr6   O6    S    
C93   C97   A    
C69   C85   A    
C58   C74   A    
C62   C78   S    
C34   H18   S    
C66   C86   A    
C91   O39   A    
C48   O36   A    
C119  O43   A    
C13   C17   S    
C85   C113  S    
C13   C125  S    
Cr10  O10   S    
C7    C23   A    
C96   C100  A    
C78   F10   S    
C28   C91   S    
C112  O48   A    
Cr9   O37   S    
C109  O49   A    
Cr7   O51   S    
Cr2   O2    S    
O72   H44   S    
O64   H36   S    
C1    O21   A    
C14   O70   S    
C58   C62   A    
Cr3   O43   S    
C55   C56   A    
C101  C102  A    
C77   H1    S    
C41   C42   A    
C4    O24   A    
C84   O64   S    
O58   H30   S    
C80   C84   S    
C15   C19   S    
C50   C54   A    
C48   O32   A    
Cr9   O9    S    
Cr10  O34   S    
Cr6   O18   S    
C52   H23   S    
C94   C98   A    
O60   H32   S    
C6    C22   A    
C31   C40   A    
C32   C39   A    
Cr1   O1    S    
C108  H8    S    
Cr7   O7    S    
Cr11  O39   S    
Cr4   O4    S    
O56   H28   S    
C80   F12   S    
C69   C73   A    
Cr3   O3    S    
C8    F4    S    
C124  C128  A    
Cr6   O26   S    
O65   H37   S    
C64   C80   S    
C31   F27   S    
Cr5   O17   S    
C32   F28   S    
C106  F22   S    
C58   C111  S    
Cr8   O20   S    
C79   H3    S    
C18   O74   S    
C28   C39   A    
C30   C37   A    
C2    O26   A    
C68   C84   S    
O73   H45   S    
C18   H14   S    
C24   C132  A    
C65   C81   S    
O74   H46   S    
C77   C81   S    
C47   O35   A    
Cr3   O23   S    
C71   C87   A    
C22   C46   S    
C31   C35   A    
C32   C36   A    
C30   F26   S    
C11   C123  A    
C25   C42   A    
C6    C10   A    
C26   C37   A    
C95   C120  S    
C99   C107  S    
C105  C106  S    
C28   C43   A    
Cr2   O46   S    
C72   O56   S    
C118  O42   A    
C19   H15   S    
C16   O72   S    
O70   H42   S    
C79   C83   S    
C43   C51   A    
C117  O41   A    
C4    C121  S    
C83   O63   S    
C117  O13   A    
C35   H19   S    
C46   O34   A    
C19   O75   S    
C96   C103  A    
C103  C104  A    
C36   H20   S    
C45   O29   A    
Cr11  O15   S    
Cr12  O40   S    
C5    F1    S    
C101  F17   S    
C84   F16   S    
C14   C18   S    
C33   H17   S    
C72   C76   A    
C13   O69   S    
C63   C79   S    
C26   C89   S    
C7    C11   A    
C37   C38   A    
Cr9   O33   S    
O63   H35   S    
C109  O45   A    
Cr7   O31   S    
C57   C112  S    
C57   C73   A    
C59   C110  S    
C74   O58   S    
C54   F6    S    
C8    C24   A    
C14   O68   S    
Cr3   O47   S    
C94   C101  A    
C3    C122  S    
Cr8   O8    S    
C71   O55   S    
C51   H24   S    
Cr7   O19   S    
C128  C132  A    
C72   C88   A    
C19   C131  S    
Cr10  O18   S    
C63   C67   A    
C116  O8    A    
C17   C129  S    
O71   H43   S    
C122  C126  A    
C73   O57   S    
C92   O40   A    
C3    O23   A    
C17   O73   S    
C99   C100  A    
C12   C124  A    
C90   O2    A    
O67   H39   S    
C27   C92   S    
C16   C128  S    
Cr6   O30   S    
C107  F23   S    
C68   C88   A    
C15   O71   S    
Cr9   O17   S    
C93   C118  S    
O62   H34   S    
C70   C86   A    
C59   C75   A    
C95   C104  A    
C113  O5    A    
Cr12  O20   S    
C83   F15   S    
C20   O76   S    
Cr11  O19   S    
C81   F13   S    
C65   C85   A    
Cr1   O17   S    
C105  H5    S    
C67   C87   A    
C86   C114  S    
Cr1   O45   S    
Cr2   O22   S    
C71   C75   A    
C77   F9    S    
C110  O50   A    
O57   H29   S    
Cr6   O50   S    
C45   O33   A    
O54   H26   S    
C103  F19   S    
C15   O65   S    
C115  O11   A    
C52   C56   A    
C26   C41   A    
Cr4   O48   S    
