data_mof_unit_14345.cif
_audit_creation_date              2012-12-10T16:37:28-0500
_audit_creation_method            fapswitch 2.2
_symmetry_space_group_name_H-M    P1
_symmetry_Int_Tables_number       1
_space_group_crystal_system       triclinic
_cell_length_a                    16.858693
_cell_length_b                    16.858925
_cell_length_c                    16.858874
_cell_angle_alpha                 65.701125
_cell_angle_beta                  65.700582
_cell_angle_gamma                 65.701189
_cell_volume                      3807.34862441

loop_
_atom_site_label
_atom_site_type_symbol
_atom_type_description
_atom_site_fract_x
_atom_site_fract_y
_atom_site_fract_z
_atom_type_partial_charge
C1    C     C_R   0.413566 0.106736 0.623305 0.338378
C2    C     C_R   0.446574 0.692737 0.942333 0.343229
C3    C     C_R   0.057315 0.553298 0.307669 0.343104
C4    C     C_R   0.942289 0.446535 0.692812 0.343336
C5    C     C_R   0.963927 0.179394 0.436777 0.945306
C6    C     C_R   0.035856 0.820599 0.563340 0.948364
C7    C     C_R   0.179394 0.436759 0.963960 0.947352
C8    C     C_R   0.820599 0.563320 0.035896 0.946323
C9    C     C_R   0.436586 0.964276 0.179406 0.947651
C10   C     C_R   0.563154 0.036201 0.820611 0.946075
C11   C     C_R   0.573734 0.830584 0.004385 0.934964
C12   C     C_R   0.585244 0.894176 0.377253 0.338728
C13   C     C_R   0.426364 0.169661 0.995175 0.934249
C14   C     C_R   0.004295 0.573752 0.830635 0.934159
C15   C     C_R   0.995084 0.426386 0.169712 0.935045
C16   C     C_R   0.830084 0.005285 0.573531 0.934923
C17   C     C_R   0.169137 0.996108 0.426158 0.934230
C18   C     C_R   0.458309 0.099651 0.681005 0.609816
C19   C     C_R   0.540593 0.901268 0.319473 0.609473
C20   C     C_R   0.098997 0.680661 0.459091 0.609458
C21   C     C_R   0.900629 0.319107 0.541400 0.609879
C22   C     C_R   0.680702 0.459014 0.099048 0.609672
C23   C     C_R   0.106090 0.622900 0.414416 0.338636
C24   C     C_R   0.319148 0.541326 0.900675 0.609658
C25   C     C_R   0.260429 0.061762 0.499712 0.569984
C26   C     C_R   0.738488 0.939459 0.500451 0.570715
C27   C     C_R   0.499605 0.261145 0.060947 0.570419
C28   C     C_R   0.500336 0.739187 0.938685 0.570293
C29   C     C_R   0.060873 0.499593 0.261214 0.570544
C30   C     C_R   0.938620 0.500308 0.739261 0.570180
C31   C     C_R   0.548044 0.005455 0.548534 -0.048005
C32   C     C_R   0.450877 0.995801 0.451663 -0.048190
C33   C     C_R   0.004576 0.548378 0.548817 -0.048136
C34   C     C_R   0.893559 0.376816 0.586121 0.338452
C35   C     C_R   0.994908 0.451511 0.451657 -0.048053
C36   C     C_R   0.548404 0.548743 0.004645 -0.048129
C37   C     C_R   0.451533 0.451587 0.994976 -0.048054
C38   C     C_R   0.595815 0.964890 0.476263 -0.032673
C39   C     C_R   0.403078 0.036266 0.524008 -0.032764
C40   C     C_R   0.964100 0.476042 0.596611 -0.032736
C41   C     C_R   0.035442 0.523807 0.403874 -0.032717
C42   C     C_R   0.476076 0.596536 0.964155 -0.032746
C43   C     C_R   0.523835 0.403802 0.035500 -0.032712
C44   C     C_R   0.546083 0.953789 0.432400 -0.029391
C45   C     C_R   0.622955 0.414329 0.106130 0.338612
C46   C     C_R   0.452795 0.047315 0.567941 -0.029267
C47   C     C_R   0.432167 0.546822 0.953080 -0.029347
C48   C     C_R   0.567724 0.453522 0.046590 -0.029317
C49   C     C_R   0.953027 0.432131 0.546897 -0.029255
C50   C     C_R   0.046534 0.567689 0.453599 -0.029406
C51   C     C_R   0.549960 0.048566 0.670780 -0.060606
C52   C     C_R   0.449079 0.952753 0.329301 -0.061049
C53   C     C_R   0.047627 0.670718 0.550646 -0.061084
C54   C     C_R   0.951806 0.329236 0.449780 -0.060558
C55   C     C_R   0.670727 0.550579 0.047714 -0.060788
C56   C     C_R   0.376867 0.586039 0.893600 0.338458
C57   C     C_R   0.329247 0.449718 0.951882 -0.060871
C58   C     C_R   0.306421 0.021098 0.428463 -0.081178
C59   C     C_R   0.692571 0.980561 0.571382 -0.081957
C60   C     C_R   0.428567 0.307091 0.019990 -0.081685
C61   C     C_R   0.571479 0.693220 0.979498 -0.081493
C62   C     C_R   0.019884 0.428578 0.307155 -0.081810
C63   C     C_R   0.979395 0.571479 0.693290 -0.081363
C64   C     C_R   0.599977 0.042794 0.724550 -0.031824
C65   C     C_R   0.399206 0.958874 0.275205 -0.031606
C66   C     C_R   0.041601 0.724724 0.600560 -0.032006
C67   C     C_R   0.306873 0.058069 0.553508 0.343312
C68   C     C_R   0.957659 0.275384 0.399804 -0.031424
C69   C     C_R   0.724706 0.600502 0.041722 -0.031464
C70   C     C_R   0.275371 0.399752 0.957760 -0.031988
C71   C     C_R   0.260917 0.002376 0.385915 -0.072934
C72   C     C_R   0.738082 0.999808 0.613533 -0.073192
C73   C     C_R   0.386285 0.261588 0.000909 -0.073004
C74   C     C_R   0.613888 0.738724 0.998406 -0.073128
C75   C     C_R   0.000769 0.386322 0.261653 -0.073207
C76   C     C_R   0.998259 0.613922 0.738793 -0.072917
C77   C     C_R   0.692169 0.024485 0.691891 -0.274399
C78   C     C_R   0.692023 0.942983 0.446776 0.343111
C79   C     C_R   0.306847 0.978355 0.307207 -0.274828
C80   C     C_R   0.022458 0.692534 0.692871 -0.274496
C81   C     C_R   0.976270 0.307870 0.307569 -0.274759
C82   C     C_R   0.692470 0.692801 0.022661 -0.274834
C83   C     C_R   0.307814 0.307507 0.976445 -0.274387
C84   C     C_R   0.596774 0.010809 0.597148 -0.083941
C85   C     C_R   0.402213 0.990667 0.402844 -0.083531
C86   C     C_R   0.009769 0.597142 0.597498 -0.083538
C87   C     C_R   0.989601 0.402847 0.402950 -0.083939
C88   C     C_R   0.597150 0.597428 0.009860 -0.083722
C89   C     C_R   0.553328 0.307598 0.057361 0.343234
C90   C     C_R   0.402851 0.402884 0.989688 -0.083745
Cl1   Cl    Cl    0.325145 0.208797 0.601554 -0.406179
Cl2   Cl    Cl    0.332227 0.757477 0.946160 -0.385848
Cl3   Cl    Cl    0.053718 0.667591 0.242892 -0.386034
Cl4   Cl    Cl    0.946151 0.332182 0.757544 -0.385548
Cl5   Cl    Cl    0.673436 0.791991 0.399357 -0.405707
Cl6   Cl    Cl    0.208249 0.600883 0.326170 -0.405650
Cl7   Cl    Cl    0.791491 0.398625 0.674521 -0.406227
Cl8   Cl    Cl    0.600997 0.326034 0.208258 -0.406069
Cl9   Cl    Cl    0.398704 0.674418 0.791521 -0.405811
Cl10  Cl    Cl    0.242136 0.054161 0.667870 -0.385645
Cl11  Cl    Cl    0.756806 0.946490 0.332500 -0.385962
Cl12  Cl    Cl    0.667641 0.242835 0.053684 -0.385748
F1    F     F_    0.417113 0.154903 0.735695 -0.599384
F2    F     F_    0.482751 0.829303 0.892879 -0.619217
F3    F     F_    0.106847 0.517058 0.171140 -0.619070
F4    F     F_    0.892839 0.482702 0.829385 -0.619344
F5    F     F_    0.581708 0.845735 0.265074 -0.599116
F6    F     F_    0.154447 0.735147 0.417951 -0.598935
F7    F     F_    0.845300 0.264495 0.582581 -0.599544
F8    F     F_    0.735207 0.417867 0.154479 -0.599379
F9    F     F_    0.264552 0.582501 0.845331 -0.599114
F10   F     F_    0.170268 0.107404 0.517406 -0.619455
F11   F     F_    0.828529 0.893363 0.483065 -0.618983
F12   F     F_    0.517089 0.171066 0.106894 -0.619215
H1    H     H_    0.729152 0.029002 0.728739 0.207953
H2    H     H_    0.269748 0.974675 0.269942 0.206976
H3    H     H_    0.026370 0.729684 0.729938 0.207256
H4    H     H_    0.971972 0.270911 0.270556 0.207708
H5    H     H_    0.729588 0.729859 0.026640 0.207312
H6    H     H_    0.270830 0.270488 0.972197 0.207667
O1    O     O_R   0.982940 0.138950 0.510160 -0.545421
O2    O     O_R   0.982940 0.510160 0.138950 -0.559089
O3    O     O_R   0.861050 0.017060 0.489840 -0.559284
O4    O     O_R   0.138950 0.982940 0.510160 -0.558752
O5    O     O_R   0.867700 0.025880 0.612340 -0.623269
O6    O     O_R   0.132300 0.974120 0.387660 -0.622173
O7    O     O_R   0.025880 0.612340 0.867700 -0.622503
O8    O     O_R   0.974120 0.387660 0.132300 -0.622980
O9    O     O_R   0.612340 0.867700 0.025880 -0.622542
O10   O     O_R   0.387660 0.132300 0.974120 -0.622965
O11   O     O_R   0.387660 0.974120 0.132300 -0.657054
O12   O     O_R   0.017060 0.861050 0.489840 -0.545080
O13   O     O_R   0.612340 0.025880 0.867700 -0.657482
O14   O     O_R   0.132300 0.387660 0.974120 -0.657018
O15   O     O_R   0.867700 0.612340 0.025880 -0.657536
O16   O     O_R   0.974120 0.132300 0.387660 -0.657882
O17   O     O_R   0.025880 0.867700 0.612340 -0.656689
O18   O     O_R   0.138950 0.510160 0.982940 -0.545263
O19   O     O_R   0.861050 0.489840 0.017060 -0.545228
O20   O     O_R   0.510160 0.982940 0.138950 -0.545026
O21   O     O_R   0.489840 0.017060 0.861050 -0.545482
O22   O     O_R   0.489840 0.861050 0.017060 -0.558808
O23   O     O_R   0.510160 0.138950 0.982940 -0.559234
O24   O     O_R   0.017060 0.489840 0.861050 -0.558969
Zn1   Zn    Zn3+2 0.004880 0.004880 0.583590 1.159677
Zn2   Zn    Zn3+2 0.995120 0.995120 0.416410 1.159272
Zn3   Zn    Zn3+2 0.004880 0.583590 0.004880 1.159387
Zn4   Zn    Zn3+2 0.995120 0.416410 0.995120 1.159578
Zn5   Zn    Zn3+2 0.583590 0.004880 0.004880 1.159405
Zn6   Zn    Zn3+2 0.416410 0.995120 0.995120 1.159554

loop_
_geom_bond_atom_site_label_1
_geom_bond_atom_site_label_2
_ccdc_geom_bond_type
C5    O16   A    
C15   C75   S    
C65   C79   A    
C15   O2    A    
C89   Cl12  S    
C64   C77   A    
C36   C42   A    
C16   C72   S    
C10   O13   A    
O24   Zn4   S    
C7    C70   S    
C71   C79   A    
O6    Zn2   S    
C36   C88   A    
O9    Zn5   S    
C1    C18   A    
C43   C89   A    
C37   C90   A    
C8    O19   A    
C68   C81   A    
O17   Zn1   S    
C52   C85   A    
C16   O3    A    
C27   C60   A    
C54   C87   A    
C9    O20   A    
C17   O6    A    
C54   C68   A    
C63   C76   A    
C77   H1    S    
C40   C49   A    
C5    O1    A    
C60   C73   A    
C34   Cl7   S    
C23   Cl6   S    
C32   C39   A    
C55   C88   A    
C3    C29   A    
C69   C82   A    
C25   F10   S    
C80   H3    S    
C35   C87   A    
C19   C52   A    
O10   Zn6   S    
C4    C40   A    
C24   C57   A    
C22   F8    S    
C31   C46   A    
C25   C67   A    
C35   C49   A    
C13   O10   A    
O3    Zn2   S    
C12   Cl5   S    
C36   C48   A    
C53   C86   A    
C57   C70   A    
C37   C47   A    
C26   C59   A    
C59   C72   A    
C18   F1    S    
C28   C61   A    
C1    Cl1   S    
C79   H2    S    
C30   F4    S    
C78   Cl11  S    
C29   F3    S    
C24   F9    S    
C82   H5    S    
C74   C82   A    
C5    C68   S    
C35   C41   A    
C11   O9    A    
O21   Zn6   S    
C9    O11   A    
C32   C44   A    
C14   O24   A    
O19   Zn4   S    
C33   C40   A    
C8    O15   A    
C57   C90   A    
O13   Zn5   S    
C59   C84   A    
C7    O14   A    
C6    O12   A    
O4    Zn1   S    
O8    Zn4   S    
C23   C50   A    
C21   C34   A    
C38   C78   A    
C33   C50   A    
C81   H4    S    
C4    C30   A    
C14   O7    A    
C10   O21   A    
C14   C76   S    
C83   H6    S    
C37   C43   A    
C33   C86   A    
C38   C44   A    
C72   C77   A    
C53   C66   A    
C61   C88   A    
C28   F2    S    
C17   O4    A    
C20   C23   A    
O23   Zn5   S    
O18   Zn3   S    
C8    C69   S    
C3    Cl3   S    
C26   C78   A    
O2    Zn3   S    
C2    Cl2   S    
C70   C83   A    
C55   C69   A    
C67   Cl10  S    
C39   C46   A    
C4    Cl4   S    
C16   O5    A    
C13   C73   S    
C17   C71   S    
O15   Zn3   S    
C15   O8    A    
C63   C86   A    
C61   C74   A    
O1    Zn1   S    
C62   C75   A    
C25   C58   A    
C58   C85   A    
C41   C50   A    
C66   C80   A    
C43   C48   A    
C45   C48   A    
C29   C62   A    
C3    C41   A    
C34   C49   A    
C39   C67   A    
C75   C81   A    
C51   C64   A    
C76   C80   A    
C20   C53   A    
C11   C74   S    
C7    O18   A    
C21   F7    S    
C22   C55   A    
C60   C90   A    
C18   C51   A    
C24   C56   A    
O14   Zn4   S    
C62   C87   A    
C10   C64   S    
C31   C38   A    
C45   Cl8   S    
O12   Zn2   S    
O22   Zn6   S    
C6    O17   A    
C26   F11   S    
C12   C44   A    
O5    Zn1   S    
C21   C54   A    
C2    C42   A    
C32   C85   A    
C51   C84   A    
C12   C19   A    
C27   C89   A    
C42   C47   A    
C13   O23   A    
C1    C46   A    
C11   O22   A    
C9    C65   S    
C58   C71   A    
C31   C84   A    
C27   F12   S    
C6    C66   S    
C22   C45   A    
O11   Zn6   S    
C2    C28   A    
C56   Cl9   S    
C30   C63   A    
O20   Zn5   S    
C73   C83   A    
O16   Zn2   S    
C52   C65   A    
O7    Zn3   S    
C47   C56   A    
C20   F6    S    
C19   F5    S    
