data_mof_unit_24225.cif
_audit_creation_date              2012-12-10T18:47:07-0500
_audit_creation_method            fapswitch 2.2
_symmetry_space_group_name_H-M    P1
_symmetry_Int_Tables_number       1
_space_group_crystal_system       triclinic
_cell_length_a                    10.724042
_cell_length_b                    9.934459
_cell_length_c                    14.882739
_cell_angle_alpha                 89.863695
_cell_angle_beta                  91.640365
_cell_angle_gamma                 88.74458
_cell_volume                      1584.53324514

loop_
_atom_site_label
_atom_site_type_symbol
_atom_type_description
_atom_site_fract_x
_atom_site_fract_y
_atom_site_fract_z
_atom_type_partial_charge
Br1   Br    Br    0.763663 0.449897 0.752401 -0.398084
Br2   Br    Br    0.125123 0.804034 0.515153 -0.324658
Br3   Br    Br    0.236361 0.549968 0.247539 -0.398003
Br4   Br    Br    0.130718 0.374352 0.885778 -0.264926
Br5   Br    Br    0.869561 0.625090 0.114185 -0.264869
Br6   Br    Br    0.152306 0.333590 0.100780 -0.272446
Br7   Br    Br    0.847871 0.666098 0.899225 -0.272462
Br8   Br    Br    0.145389 0.226240 0.586273 -0.331070
Br9   Br    Br    0.854619 0.773775 0.413758 -0.331169
Br10  Br    Br    0.874884 0.195966 0.484876 -0.324647
C1    C     C_R   0.260547 0.501634 0.508088 0.959219
C2    C     C_R   0.126981 0.504884 0.516067 -0.318814
C3    C     C_R   0.562480 0.069587 0.566245 0.176258
C4    C     C_R   0.437518 0.930413 0.433755 0.176253
C5    C     C_R   0.437074 0.072727 0.433901 0.176869
C6    C     C_R   0.562927 0.927273 0.566098 0.176889
C7    C     C_R   0.499404 0.500089 0.327483 0.911442
C8    C     C_R   0.500600 0.499910 0.672517 0.911458
C9    C     C_R   0.613770 0.501729 0.815207 0.233090
C10   C     C_R   0.386298 0.498156 0.184777 0.233077
C11   C     C_R   0.500162 0.500010 0.767852 -0.189525
C12   C     C_R   0.739454 0.498366 0.491917 0.959200
C13   C     C_R   0.499884 0.499973 0.232148 -0.189501
C14   C     C_R   0.385850 0.499023 0.810379 0.045941
C15   C     C_R   0.614218 0.500937 0.189643 0.045921
C16   C     C_R   0.385701 0.481256 0.903754 0.022534
C17   C     C_R   0.614413 0.518567 0.096256 0.022543
C18   C     C_R   0.499681 0.500509 0.953051 -0.070405
C19   C     C_R   0.500438 0.499295 0.046954 -0.070394
C20   C     C_R   0.612808 0.522020 0.908134 -0.049351
C21   C     C_R   0.387301 0.477789 0.091862 -0.049374
C22   C     C_R   0.277984 0.440783 0.948965 0.259103
C23   C     C_R   0.280897 0.434313 0.042978 0.266795
C24   C     C_R   0.722165 0.558926 0.051033 0.259094
C25   C     C_R   0.719240 0.565419 0.957019 0.266772
C26   C     C_R   0.065940 0.382089 0.527261 0.241875
C27   C     C_R   0.934064 0.617917 0.472760 0.241860
C28   C     C_R   0.941188 0.374673 0.502983 0.263528
C29   C     C_R   0.058815 0.625331 0.497038 0.263519
C30   C     C_R   0.873023 0.495118 0.483949 -0.318782
H1    H     H_    0.264226 0.444403 0.710471 0.219726
H2    H     H_    0.437004 0.173632 0.315622 0.219195
H3    H     H_    0.682197 0.780098 0.615067 0.265820
H4    H     H_    0.562998 0.826371 0.684378 0.219183
H5    H     H_    0.275075 0.613083 0.725829 0.213862
H6    H     H_    0.735719 0.555794 0.289549 0.219752
H7    H     H_    0.725016 0.387080 0.274290 0.213848
H8    H     H_    0.675016 0.215283 0.616614 0.278803
H9    H     H_    0.558441 0.166667 0.685145 0.223637
H10   H     H_    0.324985 0.784712 0.383388 0.278786
H11   H     H_    0.441550 0.833344 0.314853 0.223624
H12   H     H_    0.317801 0.219899 0.384932 0.265822
N1    N     N_R   0.500000 0.857200 0.500000 -0.152604
N2    N     N_R   0.500000 0.142800 0.500000 -0.152605
N3    N     N_3   0.271766 0.520198 0.758786 -0.366400
N4    N     N_3   0.728273 0.479926 0.241284 -0.366427
N5    N     N_3   0.625156 0.134256 0.639824 -0.370477
N6    N     N_3   0.374838 0.865743 0.360178 -0.370483
N7    N     N_3   0.372063 0.140367 0.361076 -0.379369
N8    N     N_3   0.627939 0.859632 0.638923 -0.379379
O1    O     O_R   0.316770 0.614620 0.499990 -0.599408
O2    O     O_R   0.683230 0.385380 0.500010 -0.599402
O3    O     O_R   0.683230 0.614620 0.500010 -0.600765
O4    O     O_R   0.316770 0.385380 0.499990 -0.600758
O5    O     O_R   0.499980 0.614680 0.367850 -0.629021
O6    O     O_R   0.500020 0.385320 0.632150 -0.628992
O7    O     O_R   0.500020 0.614680 0.632150 -0.644312
O8    O     O_R   0.499980 0.385320 0.367850 -0.644298
Zn1   Zn    Zn3+2 0.500000 0.653120 0.500000 0.983932
Zn2   Zn    Zn3+2 0.500000 0.346880 0.500000 0.983952

loop_
_geom_bond_atom_site_label_1
_geom_bond_atom_site_label_2
_ccdc_geom_bond_type
H2    N7    S    
C1    C2    S    
Br6   C23   S    
C16   C22   A    
H12   N7    S    
O4    Zn2   S    
C12   O2    A    
C8    C11   S    
C7    O5    A    
N2    Zn2   S    
C15   N4    S    
H3    N8    S    
Br10  C28   S    
C12   C30   S    
Br5   C24   S    
C2    C29   A    
C26   C28   A    
C8    O7    A    
C10   C13   A    
N1    Zn1   S    
H8    N5    S    
C19   C21   A    
H11   N6    S    
Br4   C22   S    
C22   C23   A    
C14   N3    S    
C28   C30   A    
H7    N4    S    
H5    N3    S    
O6    Zn2   S    
C5    N7    S    
C7    C13   S    
H4    N8    S    
O5    Zn1   S    
C20   C25   A    
Br9   C27   S    
C18   C19   A    
C9    C11   A    
C14   C16   A    
C2    C26   A    
C3    N2    A    
C27   C30   A    
C13   C15   A    
C17   C24   A    
C6    N8    S    
C15   C17   A    
C4    N6    S    
Br7   C25   S    
Br1   C9    S    
C1    O1    A    
C17   C19   A    
C21   C23   A    
C11   C14   A    
O7    Zn1   S    
O1    Zn1   S    
H10   N6    S    
C5    N2    A    
Br3   C10   S    
C4    N1    A    
H9    N5    S    
O2    Zn2   S    
C27   C29   A    
C24   C25   A    
Br8   C26   S    
C3    C6    A    
H6    N4    S    
O8    Zn2   S    
C8    O6    A    
H1    N3    S    
C7    O8    A    
C3    N5    S    
C12   O3    A    
C4    C5    A    
C9    C20   A    
C16   C18   A    
Br2   C29   S    
C6    N1    A    
O3    Zn1   S    
C18   C20   A    
C1    O4    A    
C10   C21   A    
