data_mof_unit_12587.cif
_audit_creation_date              2012-10-26T19:58:22-0400
_audit_creation_method            fapswitch 2.2
_symmetry_space_group_name_H-M    P1
_symmetry_Int_Tables_number       1
_space_group_crystal_system       triclinic
_cell_length_a                    7.424246
_cell_length_b                    8.683125
_cell_length_c                    13.410218
_cell_angle_alpha                 93.799593
_cell_angle_beta                  77.148085
_cell_angle_gamma                 103.149992
_cell_volume                      820.62843781

loop_
_atom_site_label
_atom_site_type_symbol
_atom_type_description
_atom_site_fract_x
_atom_site_fract_y
_atom_site_fract_z
_atom_type_partial_charge
C1    C     C_R   0.545419 0.800212 0.502878 0.537526
C2    C     C_R   0.335898 0.494707 0.806959 -0.011759
C3    C     C_2   0.571232 0.968091 0.504060 -0.165719
C4    C     C_R   0.399058 0.497807 0.694545 0.534101
C5    C     C_2   0.427978 0.031892 0.497616 -0.165905
C6    C     C_R   0.454270 0.199789 0.497714 0.548280
C7    C     C_R   0.602401 0.512144 0.305677 0.552324
C8    C     C_R   0.883194 0.670510 0.048029 -0.121670
C9    C     C_R   0.664326 0.539025 0.194967 -0.001371
C10   C     C_R   0.151355 0.413636 0.849361 -0.138531
C11   C     C_R   0.097453 0.381987 0.953146 -0.140525
C12   C     C_R   0.416107 0.507660 0.975861 0.042345
C13   C     C_R   0.228028 0.425292 0.015640 -0.108132
C14   C     C_3   0.043055 0.822128 0.223143 0.014687
C15   C     C_3   0.239648 0.859374 0.248194 -0.251229
C16   C     C_3   0.314724 0.037460 0.257679 -0.484134
C17   C     C_R   0.464395 0.553979 0.871992 0.026703
C18   C     C_R   0.558200 0.545653 0.035286 0.011437
C19   C     C_R   0.739990 0.636729 0.992109 0.002263
C20   C     C_R   0.776808 0.695717 0.893951 -0.141225
C21   C     C_R   0.639673 0.658597 0.835834 -0.118820
C22   C     C_R   0.526462 0.494205 0.135875 -0.185459
C23   C     C_R   0.845717 0.626198 0.150524 0.241272
Cu1   Cu    Cu3+1 0.321300 0.483160 0.488710 0.932625
Cu2   Cu    Cu3+1 0.678700 0.516840 0.511290 0.955172
H1    H     H_    0.289841 0.960466 0.491703 0.127582
H2    H     H_    0.672708 0.715226 0.762650 0.138074
H3    H     H_    0.709359 0.039505 0.510034 0.129693
H4    H     H_    0.939782 0.857222 0.289474 0.145387
H5    H     H_    0.049419 0.894530 0.156338 0.109699
H6    H     H_    0.232877 0.802244 0.321104 0.193639
H7    H     H_    0.339344 0.810580 0.186419 0.180167
H8    H     H_    0.328287 0.095774 0.184273 0.139922
H9    H     H_    0.456735 0.060714 0.276619 0.147394
H10   H     H_    0.217597 0.089173 0.319034 0.164803
H11   H     H_    0.010860 0.617377 0.579221 0.235801
H12   H     H_    0.989202 0.382747 0.420703 0.241948
H13   H     H_    0.912324 0.771757 0.861942 0.106355
H14   H     H_    0.024353 0.733350 0.012394 0.119871
H15   H     H_    0.393319 0.420302 0.171306 0.129240
H16   H     H_    0.049965 0.369791 0.801604 0.140204
H17   H     H_    0.175595 0.394745 0.094947 0.128216
H18   H     H_    0.954350 0.319468 0.985085 0.124320
N1    N     N_2   0.947230 0.542220 0.528320 -0.256742
N2    N     N_2   0.052770 0.457780 0.471680 -0.251717
O1    O     O_R   0.383920 0.714220 0.492660 -0.510526
O2    O     O_R   0.685730 0.742660 0.511730 -0.508044
O3    O     O_R   0.275440 0.478800 0.636790 -0.503681
O4    O     O_R   0.577250 0.507240 0.655860 -0.501771
O5    O     O_R   0.314270 0.257340 0.488270 -0.504294
O6    O     O_R   0.616080 0.285780 0.507340 -0.502703
O7    O     O_R   0.422750 0.492760 0.344140 -0.513566
O8    O     O_R   0.724560 0.521200 0.363210 -0.456380
O9    O     O_3   0.989267 0.657552 0.204499 -0.557144

loop_
_geom_bond_atom_site_label_1
_geom_bond_atom_site_label_2
_ccdc_geom_bond_type
C12   C17   A    
Cu1   O7    S    
C2    C4    S    
Cu1   Cu2   S    
Cu2   O6    S    
C11   H18   S    
C16   H9    S    
C8    H14   S    
C16   H8    S    
C20   H13   S    
Cu2   O2    S    
C19   C20   A    
C4    O4    A    
C22   H15   S    
C21   H2    S    
Cu1   O1    S    
C15   H7    S    
C6    O5    A    
C2    C17   A    
C15   H6    S    
C12   C13   A    
C11   C13   A    
C14   H5    S    
Cu1   N2    S    
Cu2   N1    S    
C1    O2    A    
C13   H17   S    
C14   O9    S    
Cu2   O8    S    
C7    O7    A    
C16   H10   S    
Cu1   O5    S    
C5    C6    S    
C6    O6    A    
Cu2   O4    S    
C1    O1    A    
H11   N1    S    
C8    C19   A    
C10   C11   A    
C7    O8    A    
C14   H4    S    
H12   N2    S    
C15   C16   S    
Cu1   O3    S    
C3    C5    D    
C8    C23   A    
C20   C21   A    
C23   O9    S    
C18   C19   A    
C4    O3    A    
C12   C18   A    
C7    C9    S    
C14   C15   S    
C3    H3    S    
C9    C23   A    
C1    C3    S    
C18   C22   A    
C17   C21   A    
N1    N2    D    
C5    H1    S    
C9    C22   A    
C10   H16   S    
C2    C10   A    
