data_mof_unit_41057.cif
_audit_creation_date              2013-03-05T16:46:36-0500
_audit_creation_method            fapswitch 2.2
_symmetry_space_group_name_H-M    P1
_symmetry_Int_Tables_number       1
_space_group_crystal_system       triclinic
_cell_length_a                    12.88984
_cell_length_b                    8.932371
_cell_length_c                    8.109145
_cell_angle_alpha                 89.978812
_cell_angle_beta                  97.383674
_cell_angle_gamma                 90.030491
_cell_volume                      925.919013868

loop_
_atom_site_label
_atom_site_type_symbol
_atom_site_description
_atom_site_fract_x
_atom_site_fract_y
_atom_site_fract_z
_atom_type_partial_charge
O1    O     O_R   0.499990 0.285340 0.636850 -0.607337
O2    O     O_R   0.500010 0.714660 0.363150 -0.607336
O3    O     O_R   0.500010 0.285340 0.363150 -0.621077
O4    O     O_R   0.499990 0.714660 0.636850 -0.621076
N1    N     N_1   0.500020 0.500000 0.073640 -0.020139
N2    N     N_1   0.499980 0.500000 0.926360 -0.020138
C1    C     C_R   0.500016 0.218000 0.500019 0.931059
C2    C     C_R   0.499984 0.782000 0.499981 0.931064
O5    O     O_R   0.346350 0.500000 0.614250 -0.627790
O6    O     O_R   0.653650 0.500000 0.385750 -0.627800
O7    O     O_R   0.346360 0.500000 0.340500 -0.606436
O8    O     O_R   0.653640 0.500000 0.659500 -0.606450
C3    C     C_R   0.297919 0.504538 0.467490 0.891129
C4    C     C_R   0.702081 0.495460 0.532510 0.891135
Zn1   Zn    Zn3+2 0.499990 0.500000 0.682780 1.015755
Zn2   Zn    Zn3+2 0.500010 0.500000 0.317220 1.015755
C5    C     C_R   0.813805 0.498228 0.553384 -0.148500
C6    C     C_R   0.186195 0.501752 0.446618 -0.148488
C7    C     C_R   0.027858 0.391329 0.311578 0.368716
C8    C     C_R   0.972151 0.608609 0.688450 0.368713
C9    C     C_R   0.134774 0.411007 0.323123 -0.235896
C10   C     C_R   0.865233 0.588946 0.676900 -0.235910
C11   C     C_R   0.131744 0.582280 0.556011 0.078680
C12   C     C_R   0.868253 0.417696 0.443988 0.078652
C13   C     C_R   0.026482 0.548344 0.562250 -0.025263
C14   C     C_R   0.973521 0.451609 0.437765 -0.025276
H1    H     H_    0.822107 0.643043 0.766615 0.205292
H2    H     H_    0.177903 0.356900 0.233419 0.205277
C15   C     C_1   0.500010 0.065194 0.500024 -0.169885
C16   C     C_1   0.499990 0.934806 0.499976 -0.169885
N3    N     N_3   0.819708 0.293051 0.351492 -0.387853
H3    H     H_    0.785388 0.222857 0.432450 0.183377
H4    H     H_    0.762015 0.331270 0.258985 0.247003
N4    N     N_3   0.180275 0.706952 0.648477 -0.387877
H5    H     H_    0.214570 0.777151 0.567494 0.183379
H6    H     H_    0.237987 0.668765 0.740970 0.247007
N5    N     N_R   0.976004 0.317824 0.166470 0.230567
O9    O     O_R   0.906166 0.390454 0.067152 -0.365770
O10   O     O_R   0.013823 0.193710 0.115087 -0.335583
N6    N     N_R   0.024015 0.682067 0.833584 0.230577
O11   O     O_R   0.986166 0.806118 0.885086 -0.335581
O12   O     O_R   0.093894 0.609429 0.932819 -0.365792

loop_
_geom_bond_atom_site_label_1
_geom_bond_atom_site_label_2
_geom_bond_distance
_ccdc_geom_bond_type
N3    H4    1.043540 S    
C15   C16   1.164677 T    
O1    Zn1   1.953398 S    
C6    C9    1.388756 A    
O2    Zn2   1.953397 S    
O7    Zn2   2.013507 S    
O3    C1    1.262199 A    
N3    H3    1.045885 S    
O8    Zn1   2.013507 S    
O8    C4    1.271724 A    
O4    C2    1.262199 A    
C11   N4    1.439794 S    
C2    C16   1.364915 S    
O4    Zn1   1.953127 S    
N6    O12   1.301459 A    
O5    Zn1   1.986937 S    
C12   N3    1.439792 S    
N5    O10   1.301332 A    
C13   C14   1.433372 A    
O6    Zn2   1.986937 S    
O7    C3    1.271723 A    
C4    C5    1.428456 S    
N5    O9    1.301454 A    
C3    C6    1.428450 S    
C1    C15   1.364915 S    
N6    O11   1.301364 A    
C7    C9    1.380400 A    
C9    H2    1.084563 S    
C12   C14   1.397361 A    
N4    H6    1.043539 S    
C10   H1    1.084563 S    
C11   C13   1.397352 A    
N1    N2    1.194249 T    
C8    N6    1.435429 S    
C5    C12   1.399283 A    
C8    C13   1.418636 A    
C6    C11   1.399273 A    
N4    H5    1.045883 S    
O6    C4    1.271510 A    
C7    C14   1.418642 A    
O5    C3    1.271507 A    
N1    Zn2   1.975241 S    
C7    N5    1.435413 S    
N2    Zn1   1.975243 S    
O1    C1    1.262371 A    
O2    C2    1.262371 A    
O3    Zn2   1.953128 S    
C5    C10   1.388758 A    
C8    C10   1.380401 A    
