data_mof_unit_67776.cif
_audit_creation_date              2012-12-10T16:51:00-0500
_audit_creation_method            fapswitch 2.2
_symmetry_space_group_name_H-M    P1
_symmetry_Int_Tables_number       1
_space_group_crystal_system       triclinic
_cell_length_a                    8.0695
_cell_length_b                    8.722517
_cell_length_c                    10.899303
_cell_angle_alpha                 92.077578
_cell_angle_beta                  86.378355
_cell_angle_gamma                 93.959012
_cell_volume                      763.411127982

loop_
_atom_site_label
_atom_site_type_symbol
_atom_type_description
_atom_site_fract_x
_atom_site_fract_y
_atom_site_fract_z
_atom_type_partial_charge
C1    C     C_R   0.544035 0.793146 0.500688 0.915835
C2    C     C_R   0.921987 0.362123 0.040914 -0.182217
C3    C     C_R   0.037729 0.494345 0.052947 -0.183547
C4    C     C_R   0.913995 0.405354 0.915807 -0.212445
C5    C     C_R   0.187470 0.513837 0.115753 0.176249
C6    C     C_R   0.785665 0.498146 0.888689 0.191151
C7    C     C_R   0.333051 0.449157 0.066817 0.044256
C8    C     C_R   0.635187 0.443592 0.934798 -0.012884
C9    C     C_R   0.343862 0.426992 0.938541 0.028728
C10   C     C_R   0.625884 0.408899 0.059298 0.023452
C11   C     C_R   0.481208 0.443868 0.129890 -0.135404
C12   C     C_R   0.455218 0.207829 0.507407 0.879169
C13   C     C_R   0.494218 0.453650 0.871425 -0.144872
C14   C     C_3   0.739831 0.064947 0.674239 -0.633069
C15   C     C_3   0.197179 0.944394 0.394194 -0.589687
C16   C     C_2   0.563770 0.957254 0.516733 0.002543
C17   C     C_2   0.429385 0.044808 0.513028 0.006273
C18   C     C_R   0.500025 0.489309 0.738873 0.868630
C19   C     C_R   0.494051 0.484468 0.261691 0.902553
C20   C     C_R   0.201005 0.395568 0.880052 0.169527
C21   C     C_R   0.764445 0.346170 0.106571 0.208500
C22   C     C_R   0.065609 0.479355 0.923295 -0.163522
H1    H     H_    0.900774 0.305149 0.854745 0.190781
H2    H     H_    0.187500 0.818261 0.380251 0.279413
H3    H     H_    0.275945 0.001393 0.319395 0.254463
H4    H     H_    0.068132 0.977835 0.390943 0.229843
H5    H     H_    0.967545 0.589800 0.088990 0.221901
H6    H     H_    0.086458 0.591468 0.882511 0.226475
H7    H     H_    0.983182 0.256561 0.053660 0.226028
H8    H     H_    0.823425 0.966815 0.506293 0.260075
H9    H     H_    0.648307 0.149226 0.706447 0.232178
H10   H     H_    0.866297 0.118439 0.686667 0.246482
H11   H     H_    0.718697 0.961853 0.731018 0.264074
H12   H     H_    0.177411 0.042148 0.568657 0.273695
I1    I     I_    0.190099 0.161118 0.814887 -0.387826
I2    I     I_    0.692728 0.130576 0.188746 -0.297381
I3    I     I_    0.258404 0.754252 0.129823 -0.337413
I4    I     I_    0.784747 0.743910 0.931486 -0.313384
I5    I     I_    0.043311 0.291983 0.349603 -0.253932
I6    I     I_    0.975464 0.727648 0.635679 -0.244777
N1    N     N_2   0.950330 0.457950 0.466250 0.025000
N2    N     N_2   0.049670 0.542050 0.533750 0.016084
N3    N     N_2   0.724420 0.022664 0.545608 -0.283399
N4    N     N_2   0.260352 0.982523 0.513258 -0.278151
O1    O     O_R   0.389250 0.738570 0.508280 -0.585057
O2    O     O_R   0.610750 0.261430 0.491720 -0.576153
O3    O     O_R   0.678390 0.711630 0.486650 -0.607011
O4    O     O_R   0.321610 0.288370 0.513350 -0.607393
O5    O     O_R   0.355430 0.513480 0.694040 -0.601233
O6    O     O_R   0.644570 0.486520 0.305960 -0.598350
O7    O     O_R   0.644570 0.486540 0.672410 -0.609543
O8    O     O_R   0.355430 0.513460 0.327590 -0.603522
Zn1   Zn    Zn3+2 0.306940 0.517990 0.514440 1.035503
Zn2   Zn    Zn3+2 0.693060 0.482010 0.485560 1.043311

loop_
_geom_bond_atom_site_label_1
_geom_bond_atom_site_label_2
_ccdc_geom_bond_type
C12   C17   S    
C18   O7    A    
C2    C4    A    
C6    I4    S    
C8    C13   A    
C5    I3    S    
C4    C22   A    
N1    N2    D    
C9    C20   A    
C19   O6    A    
C14   H9    S    
C12   O4    A    
O7    Zn2   S    
C1    O1    A    
O2    Zn2   S    
C14   H11   S    
C3    H5    S    
C2    C3    A    
C17   N4    S    
O1    Zn1   S    
I5    N1    S    
C21   I2    S    
C22   H6    S    
C7    C11   A    
C16   N3    S    
C11   C19   S    
O6    Zn2   S    
C13   C18   S    
C2    C21   A    
C2    H7    S    
O5    Zn1   S    
I6    N2    S    
C15   H2    S    
C20   C22   A    
C15   N4    S    
O3    Zn2   S    
N2    Zn1   S    
O4    Zn1   S    
H8    N3    S    
N1    Zn2   S    
C15   H3    S    
C16   C17   D    
C10   C11   A    
C7    C9    A    
H12   N4    S    
O8    Zn1   S    
C4    C6    A    
C1    C16   S    
C5    C7    A    
C4    H1    S    
C9    C13   A    
C1    O3    A    
C3    C22   A    
C6    C8    A    
C15   H4    S    
C20   I1    S    
C10   C21   A    
C19   O8    A    
C8    C10   A    
C18   O5    A    
C14   H10   S    
C14   N3    S    
C3    C5    A    
C12   O2    A    
