data_mof_unit_66600.cif
_audit_creation_date              2012-12-11T14:23:01-0500
_audit_creation_method            fapswitch 2.2
_symmetry_space_group_name_H-M    P1
_symmetry_Int_Tables_number       1
_space_group_crystal_system       triclinic
_cell_length_a                    8.404285
_cell_length_b                    14.308592
_cell_length_c                    15.205059
_cell_angle_alpha                 93.308257
_cell_angle_beta                  100.847849
_cell_angle_gamma                 92.525629
_cell_volume                      1789.97954934

loop_
_atom_site_label
_atom_site_type_symbol
_atom_type_description
_atom_site_fract_x
_atom_site_fract_y
_atom_site_fract_z
_atom_type_partial_charge
Ba1   Ba    Ba6+2 0.142880 0.544780 0.454020 1.642338
Ba2   Ba    Ba6+2 0.667290 0.455210 0.545900 1.651440
C1    C     C_3   0.252803 0.768408 0.111507 -0.383570
C2    C     C_R   0.816329 0.802356 0.494446 0.050296
C3    C     C_R   0.658097 0.771321 0.451754 -0.253132
C4    C     C_3   0.849303 0.798242 0.243579 0.393664
C5    C     C_R   0.541978 0.834165 0.416237 -0.000436
C6    C     C_R   0.584034 0.929227 0.417235 -0.153388
C7    C     C_R   0.741646 0.963869 0.456579 0.003614
C8    C     C_R   0.857828 0.901508 0.497208 -0.026565
C9    C     C_R   0.935492 0.100414 0.501927 -0.035289
C10   C     C_R   0.047981 0.038368 0.545446 0.001678
C11   C     C_R   0.983785 0.198358 0.504316 0.049446
C12   C     C_3   0.327928 0.758087 0.206963 0.353229
C13   C     C_R   0.139533 0.229755 0.548905 -0.288577
C14   C     C_R   0.249891 0.167675 0.589368 -0.002443
C15   C     C_R   0.202835 0.073270 0.589699 -0.150066
C16   C     C_3   0.875348 0.897120 0.213927 -0.354990
C17   C     C_R   0.782004 0.061248 0.457635 -0.044808
C18   C     C_R   0.237550 0.458554 0.765632 -0.233964
C19   C     C_R   0.144068 0.428611 0.828205 0.011151
C20   C     C_R   0.204385 0.441782 0.919845 -0.130445
C21   C     C_R   0.365879 0.477138 0.953380 0.015512
C22   C     C_R   0.463092 0.496447 0.887065 -0.179060
C23   C     C_3   0.515257 0.755740 0.667579 0.505205
C24   C     C_R   0.394856 0.496871 0.794952 0.026318
C25   C     C_R   0.579908 0.550827 0.084017 -0.139448
C26   C     C_R   0.644748 0.568953 0.175192 -0.002265
C27   C     C_R   0.410635 0.486728 0.212718 0.075560
C28   C     C_3   0.781873 0.323266 0.268412 0.321884
C29   C     C_R   0.343891 0.469796 0.120498 -0.122103
C30   C     C_R   0.429296 0.500467 0.053594 0.010864
C31   C     C_R   0.558596 0.537525 0.238847 -0.288516
C32   C     C_3   0.823861 0.294124 0.177256 -0.364970
C33   C     C_3   0.048623 0.689393 0.743809 0.719045
C34   C     C_3   0.430687 0.845941 0.682625 -0.304214
C35   C     C_3   0.968538 0.729680 0.822252 -0.092571
C36   C     C_3   0.290674 0.248811 0.338065 0.380777
C37   C     C_3   0.300141 0.146472 0.305338 0.290123
C38   C     C_3   0.297649 0.690700 0.853528 0.253050
C39   C     C_3   0.373614 0.784429 0.899275 -0.179358
C40   C     C_3   0.541632 0.768872 0.955662 -0.482233
C41   C     C_3   0.889642 0.632134 0.940961 -0.254246
C42   C     C_3   0.425775 0.120813 0.180989 0.317329
C43   C     C_3   0.426589 0.016626 0.155444 -0.212131
C44   C     C_3   0.434678 0.999718 0.056501 -0.533845
C45   C     C_3   0.977932 0.201147 0.765301 0.370307
C46   C     C_3   0.761822 0.870397 0.693122 -0.266823
C47   C     C_3   0.962721 0.102141 0.796199 -0.363029
C48   C     C_3   0.489858 0.250157 0.802467 0.398641
C49   C     C_3   0.521491 0.218182 0.898002 -0.374898
C50   C     C_R   0.009136 0.941105 0.541978 -0.072462
H1    H     H_    0.314762 0.681930 0.216999 0.054595
H2    H     H_    0.136254 0.725166 0.096604 0.155573
H3    H     H_    0.190061 0.123592 0.254074 -0.020846
H4    H     H_    0.298291 0.101719 0.362527 -0.026185
H5    H     H_    0.457018 0.782303 0.216697 -0.047273
H6    H     H_    0.337303 0.740848 0.069532 0.064076
H7    H     H_    0.447962 0.718670 0.604627 0.052804
H8    H     H_    0.495385 0.888236 0.743380 0.087182
H9    H     H_    0.430380 0.888959 0.624074 0.053124
H10   H     H_    0.305201 0.830282 0.690254 0.152468
H11   H     H_    0.228442 0.842785 0.097988 0.123776
H12   H     H_    0.736928 0.238848 0.140033 0.087755
H13   H     H_    0.790728 0.945794 0.241951 0.063151
H14   H     H_    0.929244 0.199688 0.691698 0.049370
H15   H     H_    0.108870 0.222983 0.779084 -0.064517
H16   H     H_    0.839252 0.068646 0.766136 0.127535
H17   H     H_    0.058904 0.059239 0.773531 0.057403
H18   H     H_    0.980538 0.104362 0.871459 0.118387
H19   H     H_    0.358428 0.259865 0.782709 -0.092525
H20   H     H_    0.555628 0.319040 0.802172 0.088596
H21   H     H_    0.432610 0.250667 0.936325 0.064963
H22   H     H_    0.648896 0.241869 0.932705 0.122468
H23   H     H_    0.820765 0.355488 0.135232 0.079113
H24   H     H_    0.918930 0.794730 0.315127 0.075180
H25   H     H_    0.506130 0.139214 0.897640 0.122449
H26   H     H_    0.621754 0.697679 0.451118 0.069723
H27   H     H_    0.492583 0.975822 0.389075 0.092380
H28   H     H_    0.289291 0.026688 0.622422 0.066561
H29   H     H_    0.178850 0.302652 0.547952 0.071243
H30   H     H_    0.098936 0.896889 0.575127 0.105746
H31   H     H_    0.691451 0.105185 0.424227 0.147724
H32   H     H_    0.653756 0.575422 0.038816 0.048783
H33   H     H_    0.122155 0.425941 0.964773 0.059022
H34   H     H_    0.947072 0.266230 0.186815 0.128884
H35   H     H_    0.230441 0.428798 0.102700 0.075820
H36   H     H_    0.715759 0.785589 0.243370 -0.095653
H37   H     H_    0.586990 0.520785 0.907640 0.073923
H38   H     H_    0.612853 0.547199 0.309708 0.068122
H39   H     H_    0.185649 0.455356 0.696222 0.071744
H40   H     H_    0.004926 0.924451 0.241806 0.133003
H41   H     H_    0.850690 0.896483 0.138136 0.120445
H42   H     H_    0.650627 0.336611 0.258805 -0.004921
H43   H     H_    0.854542 0.389058 0.295291 0.057453
H44   H     H_    0.403008 0.654144 0.853251 0.094262
H45   H     H_    0.999415 0.616751 0.720628 -0.022567
H46   H     H_    0.248966 0.637046 0.892420 0.029258
H47   H     H_    0.390223 0.835149 0.850165 0.141885
H48   H     H_    0.292551 0.816446 0.940586 0.069907
H49   H     H_    0.531321 0.707924 0.996517 0.114918
H50   H     H_    0.596056 0.830267 0.000690 0.135428
H51   H     H_    0.626115 0.752586 0.909740 0.160073
H52   H     H_    0.088271 0.725146 0.954693 0.194204
H53   H     H_    0.948555 0.576272 0.980687 0.137254
H54   H     H_    0.795869 0.600468 0.885863 0.151125
H55   H     H_    0.838546 0.680372 0.987536 0.118381
H56   H     H_    0.009965 0.805693 0.835930 0.073642
H57   H     H_    0.528867 0.156357 0.158554 0.070839
H58   H     H_    0.314543 0.151092 0.143299 0.028526
H59   H     H_    0.532883 0.986518 0.196726 0.132156
H60   H     H_    0.315021 0.981452 0.169824 0.122073
H61   H     H_    0.326378 0.025702 0.012847 0.135536
H62   H     H_    0.435548 0.923732 0.042362 0.153068
H63   H     H_    0.547361 0.033278 0.041160 0.138943
H64   H     H_    0.741902 0.720269 0.664313 0.184135
H65   H     H_    0.883990 0.881756 0.679145 0.136865
H66   H     H_    0.771510 0.879159 0.767040 0.103779
H67   H     H_    0.836195 0.726307 0.803117 0.100895
H68   H     H_    0.698186 0.928867 0.659633 0.110851
H69   H     H_    0.171910 0.258014 0.359127 -0.129013
H70   H     H_    0.392025 0.267143 0.395907 0.043575
N1    N     N_2   0.009666 0.683687 0.905922 -0.463473
N2    N     N_2   0.678614 0.779555 0.656038 -0.462655
O1    O     O_2   0.113690 0.728200 0.532750 -0.445066
O2    O     O_2   0.806944 0.435944 0.818417 -0.497018
O3    O     O_3   0.893293 0.262796 0.812991 -0.582896
O4    O     O_3   0.871900 0.612110 0.540440 -0.496634
O5    O     O_3   0.421180 0.451020 0.394720 -0.495980
O6    O     O_2   0.662730 0.548230 0.717350 -0.471705
O7    O     O_3   0.519835 0.700302 0.742511 -0.632541
O8    O     O_2   0.575545 0.166131 0.575289 -0.487707
O9    O     O_3   0.541323 0.183743 0.743306 -0.584804
O10   O     O_3   0.325660 0.668890 0.372600 -0.482896
O11   O     O_2   0.209341 0.827807 0.426785 -0.487697
O12   O     O_3   0.302874 0.303578 0.266271 -0.652354
O13   O     O_3   0.011533 0.752513 0.676676 -0.671384
O14   O     O_3   0.249661 0.813571 0.262376 -0.588454
O15   O     O_2   0.147570 0.451710 0.282630 -0.455850
O16   O     O_3   0.905540 0.621350 0.329600 -0.482951
O17   O     O_2   0.975630 0.556191 0.176910 -0.485938
O18   O     O_3   0.220627 0.693749 0.762527 -0.673577
O19   O     O_3   0.449541 0.136117 0.275538 -0.646703
O20   O     O_3   0.901266 0.731738 0.182758 -0.590443
O21   O     O_2   0.696600 0.271740 0.467230 -0.457664
O22   O     O_3   0.938380 0.387880 0.459490 -0.498034
O23   O     O_3   0.484630 0.331100 0.627330 -0.477824
O24   O     O_3   0.813784 0.249150 0.324576 -0.619724
O25   O     O_3   0.389110 0.548970 0.605210 -0.472649
O26   O     O_3   0.904740 0.378630 0.670330 -0.480547
P1    P     P_3+3 0.947560 0.714050 0.560480 0.974782
P2    P     P_3+3 0.325150 0.423860 0.297970 0.982129
P3    P     P_3+3 0.854616 0.618958 0.213607 0.940739
P4    P     P_3+3 0.862730 0.285940 0.439440 0.988234
P5    P     P_3+3 0.937128 0.377486 0.785633 0.961032
P6    P     P_3+3 0.331672 0.789798 0.371672 0.952328
P7    P     P_3+3 0.485859 0.576307 0.716965 0.968863
P8    P     P_3+3 0.461860 0.210486 0.632903 0.956813

loop_
_geom_bond_atom_site_label_1
_geom_bond_atom_site_label_2
_ccdc_geom_bond_type
Ba2   O26   S    
C47   H16   S    
C38   O18   S    
C39   C40   S    
Ba1   O4    S    
C8    C50   A    
C40   H51   S    
C43   H60   S    
C5    C6    A    
C13   H29   S    
H52   N1    S    
C43   C44   S    
Ba2   O21   S    
C9    C17   A    
C44   H63   S    
C24   P7    S    
O6    P7    D    
C25   H32   S    
C33   C35   S    
Ba1   O1    S    
O9    P8    S    
Ba1   O5    S    
C38   H46   S    
C36   C37   S    
C1    H2    S    
C34   H10   S    
C13   C14   A    
C27   C31   A    
O15   P2    D    
Ba2   O5    S    
C4    H36   S    
Ba1   P2    S    
Ba1   Ba2   S    
C41   H53   S    
C20   H33   S    
O20   P3    S    
O7    P7    S    
C48   H20   S    
O1    P1    D    
O12   P2    S    
C35   N1    S    
C7    C17   A    
O10   P6    S    
C5    P6    S    
C12   O14   S    
C6    C7    A    
O22   P4    S    
C10   C15   A    
C6    H27   S    
C21   C22   A    
C39   H47   S    
Ba1   O25   S    
C36   O12   S    
C7    C8    A    
C45   H14   S    
Ba1   O15   S    
O16   P3    S    
C42   H57   S    
Ba2   O25   S    
Ba2   P4    S    
C47   H17   S    
C19   C20   A    
C22   H37   S    
Ba1   O22   S    
O24   P4    S    
C38   H44   S    
C17   H31   S    
C40   H50   S    
C45   H15   S    
C10   C50   A    
C4    C16   S    
C18   H39   S    
C37   H3    S    
C29   H35   S    
C28   C32   S    
C14   P8    S    
C35   H56   S    
C46   H68   S    
O3    P5    S    
C3    C5    A    
C44   H62   S    
C14   C15   A    
C46   H66   S    
C33   O18   S    
Ba2   O23   S    
C15   H28   S    
O8    P8    D    
O11   P6    D    
C49   H22   S    
C16   H13   S    
C41   H54   S    
C48   H19   S    
C49   H25   S    
C28   H43   S    
O4    P1    S    
C37   H4    S    
C35   H67   S    
C32   H12   S    
C48   C49   S    
C19   P5    S    
C39   H48   S    
C41   H55   S    
C50   H30   S    
Ba1   O16   S    
C36   H70   S    
C1    C12   S    
O5    P2    S    
O21   P4    D    
C38   C39   S    
C37   O19   S    
C26   C31   A    
O26   P5    S    
C11   C13   A    
C26   P3    S    
Ba2   O22   S    
C4    O20   S    
C34   H9    S    
C23   O7    S    
C40   H49   S    
C41   N1    S    
C42   C43   S    
O14   P6    S    
C12   H5    S    
H64   N2    S    
C44   H61   S    
C25   C30   A    
C4    H24   S    
C29   C30   A    
C49   H21   S    
C22   C24   A    
C2    C3    A    
C34   H8    S    
C48   O9    S    
C46   N2    S    
C9    C10   A    
C43   H59   S    
C28   O24   S    
C46   H65   S    
C1    H11   S    
C45   C47   S    
C32   H23   S    
C32   H34   S    
C47   H18   S    
C16   H40   S    
C21   C30   S    
C27   C29   A    
C31   H38   S    
O2    P5    D    
C27   P2    S    
C9    C11   A    
O17   P3    D    
C18   C24   A    
C45   O3    S    
C2    P1    S    
C42   O19   S    
Ba2   O6    S    
Ba1   P1    S    
C23   N2    S    
C11   P4    S    
C36   H69   S    
C23   C34   S    
C1    H6    S    
C12   H1    S    
C18   C19   A    
C28   H42   S    
C25   C26   A    
C16   H41   S    
C20   C21   A    
O13   P1    S    
C23   H7    S    
O25   P7    S    
C3    H26   S    
C33   H45   S    
O23   P8    S    
C2    C8    A    
C33   O13   S    
Ba1   O10   S    
C42   H58   S    
Ba2   O4    S    
