data_mof_unit_9385.cif
_audit_creation_date              2013-03-05T15:43:59-0500
_audit_creation_method            fapswitch 2.2
_symmetry_space_group_name_H-M    P1
_symmetry_Int_Tables_number       1
_space_group_crystal_system       triclinic
_cell_length_a                    11.515734
_cell_length_b                    10.625101
_cell_length_c                    10.106935
_cell_angle_alpha                 93.32861
_cell_angle_beta                  88.910752
_cell_angle_gamma                 91.235983
_cell_volume                      1234.0736081

loop_
_atom_site_label
_atom_site_type_symbol
_atom_site_description
_atom_site_fract_x
_atom_site_fract_y
_atom_site_fract_z
_atom_type_partial_charge
O1    O     O_R   0.499980 0.319060 0.613040 -0.632511
O2    O     O_R   0.500020 0.319100 0.386900 -0.592010
C1    C     C_R   0.498305 0.262450 0.495250 0.898432
O3    O     O_R   0.334430 0.499990 0.613070 -0.636562
O4    O     O_R   0.334470 0.500030 0.386930 -0.628446
C2    C     C_R   0.282271 0.502519 0.501044 0.979564
Zn1   Zn    Zn3+2 0.499980 0.499970 0.650990 1.017736
Zn2   Zn    Zn3+2 0.500020 0.500030 0.349010 1.009896
O5    O     O_R   0.499980 0.680900 0.613100 -0.616779
O6    O     O_R   0.500020 0.680940 0.386960 -0.567380
O7    O     O_R   0.665530 0.499970 0.613070 -0.579772
O8    O     O_R   0.665570 0.500010 0.386930 -0.569713
C3    C     C_R   0.500364 0.737093 0.504633 0.986114
C4    C     C_R   0.717831 0.500639 0.499012 0.886658
C5    C     C_1   0.161752 0.505282 0.502264 -0.128548
C6    C     C_1   0.059496 0.506328 0.500860 0.002954
C7    C     C_1   0.940781 0.505562 0.498414 0.019425
C8    C     C_1   0.838453 0.503474 0.497416 -0.124601
C9    C     C_2   0.396251 0.926504 0.488853 0.471360
C10   C     C_2   0.492422 0.869007 0.520718 -0.351826
H1    H     H_    0.562711 0.919148 0.572928 0.101714
C11   C     C_2   0.396689 0.063850 0.512008 0.098151
C12   C     C_2   0.493791 0.128204 0.476734 0.132285
C13   C     C_2   0.558097 0.580985 0.929510 0.546731
N1    N     N_2   0.501210 0.501330 0.852150 0.024033
C14   C     C_2   0.578822 0.556905 0.074355 0.231660
N2    N     N_2   0.501250 0.501360 0.147810 -0.234979
H2    H     H_    0.419572 0.491800 0.110560 0.161567
O9    O     O_3   0.297514 0.856336 0.452055 -0.637046
C15   C     C_3   0.250825 0.901800 0.336313 0.110288
H3    H     H_    0.319907 0.914537 0.259078 0.140371
H4    H     H_    0.207059 0.992966 0.359800 0.187245
C16   C     C_3   0.161156 0.805480 0.280999 -0.340754
H5    H     H_    0.203315 0.713031 0.260169 0.230375
H6    H     H_    0.090533 0.793056 0.356009 0.244650
C17   C     C_3   0.108750 0.847254 0.153551 -0.908657
H7    H     H_    0.066041 0.939604 0.171786 0.267332
H8    H     H_    0.042705 0.776269 0.117565 0.294893
H9    H     H_    0.177353 0.855499 0.075583 0.263172
N3    N     N_R   0.297733 0.122957 0.576547 0.166739
O10   O     O_R   0.254376 0.222910 0.529879 -0.470741
O11   O     O_R   0.238098 0.063484 0.664958 -0.390785
O12   O     O_3   0.572952 0.070665 0.387265 -0.653824
C18   C     C_3   0.689578 0.096978 0.424302 0.074557
H10   H     H_    0.730786 0.005575 0.440207 0.181041
H11   H     H_    0.699491 0.156286 0.518460 0.104663
C19   C     C_3   0.755025 0.159434 0.311621 -0.314128
H12   H     H_    0.743918 0.100872 0.217755 0.242860
H13   H     H_    0.718513 0.253667 0.298449 0.242145
C20   C     C_3   0.884467 0.174534 0.340101 -0.908742
H14   H     H_    0.897908 0.230382 0.435056 0.269684
H15   H     H_    0.928758 0.224333 0.259102 0.274443
H16   H     H_    0.924090 0.080659 0.346090 0.270150
O13   O     O_3   0.611385 0.683271 0.871827 -0.615823
C21   C     C_3   0.579320 0.798856 0.938401 0.056462
H17   H     H_    0.635461 0.873984 0.897229 0.189355
H18   H     H_    0.596868 0.801859 0.046031 0.177572
C22   C     C_3   0.451758 0.830733 0.916035 -0.422251
H19   H     H_    0.432522 0.821089 0.808860 0.268561
H20   H     H_    0.393523 0.764631 0.968677 0.188522
C23   C     C_3   0.425998 0.965529 0.967034 -0.879969
H21   H     H_    0.446207 0.979201 0.073972 0.269514
H22   H     H_    0.332681 0.984700 0.953686 0.274514
H23   H     H_    0.478611 0.033896 0.910717 0.271890
O14   O     O_3   0.466591 0.393520 0.907802 -0.633375
C24   C     C_3   0.351980 0.359443 0.868715 0.210782
H24   H     H_    0.327636 0.271823 0.918327 0.149662
H25   H     H_    0.347510 0.333132 0.762354 0.231785
C25   C     C_3   0.260043 0.458717 0.909185 -0.488075
H26   H     H_    0.253505 0.473187 0.018437 0.210972
H27   H     H_    0.282956 0.550455 0.867127 0.234344
C26   C     C_3   0.140034 0.415472 0.860875 -0.799183
H28   H     H_    0.141472 0.395900 0.751900 0.283342
H29   H     H_    0.076207 0.490331 0.886344 0.273079
H30   H     H_    0.111584 0.328449 0.909208 0.263601
N4    N     N_R   0.688547 0.596799 0.128877 0.223226
O15   O     O_R   0.783564 0.568809 0.063027 -0.389559
O16   O     O_R   0.692703 0.684526 0.223953 -0.394033

loop_
_geom_bond_atom_site_label_1
_geom_bond_atom_site_label_2
_geom_bond_distance
_ccdc_geom_bond_type
O4    Zn2   1.937416 S    
C14   N4    1.433934 S    
O12   C18   1.418727 S    
C13   O13   1.388809 S    
C16   C17   1.525761 S    
O9    C15   1.411232 S    
C23   H23   1.111146 S    
C4    C8    1.388538 S    
C24   H25   1.096811 S    
C19   H12   1.111836 S    
Zn1   N1    2.032639 S    
C18   C19   1.529357 S    
O8    C4    1.292423 A    
C16   H5    1.112465 S    
Zn2   O8    1.951708 S    
C11   N3    1.439971 S    
C23   H21   1.110539 S    
C22   C23   1.527000 S    
C17   H8    1.110623 S    
C20   H14   1.110249 S    
C2    C5    1.388619 S    
C12   O12   1.396766 S    
C19   H13   1.110297 S    
C21   H18   1.108710 S    
O1    Zn1   1.938119 S    
C24   H24   1.111009 S    
C10   H1    1.087404 S    
C15   H4    1.112857 S    
N4    O15   1.300763 A    
C14   N2    1.303987 D    
O4    C2    1.289582 A    
C17   H9    1.110919 S    
C26   H30   1.110953 S    
N4    O16   1.300121 A    
Zn2   O6    1.938120 S    
N3    O10   1.299862 A    
C16   H6    1.112267 S    
C13   C14   1.524782 S    
C7    C8    1.178326 T    
C19   C20   1.526811 S    
O2    C1    1.279496 A    
C25   H26   1.107329 S    
O3    Zn1   1.951708 S    
C15   H3    1.115605 S    
O7    C4    1.290760 A    
C21   H17   1.111040 S    
C20   H15   1.110444 S    
C20   H16   1.111057 S    
C6    C7    1.367625 S    
C22   H20   1.111574 S    
C5    C6    1.178209 T    
C24   C25   1.543505 S    
Zn1   O5    1.981859 S    
C9    C11   1.464393 S    
N1    O14   1.354270 S    
C13   N1    1.294402 D    
C26   H28   1.108816 S    
C26   H29   1.110587 S    
O14   C24   1.418349 S    
C21   C22   1.538395 S    
N2    H2    1.020616 S    
C25   H27   1.110479 S    
Zn2   N2    2.034163 S    
O5    C3    1.278291 A    
O13   C21   1.418261 S    
C17   H7    1.111325 S    
Zn1   O7    1.937416 S    
C18   H11   1.116760 S    
C15   C16   1.528431 S    
C22   H19   1.108229 S    
C11   C12   1.350988 D    
O3    C2    1.293653 A    
C1    C12   1.427746 S    
C3    C10   1.406327 S    
C23   H22   1.110245 S    
O2    Zn2   1.981858 S    
C18   H10   1.111352 S    
C9    C10   1.330058 D    
C25   C26   1.526970 S    
N3    O11   1.301102 A    
O1    C1    1.302560 A    
O6    C3    1.299277 A    
C9    O9    1.390789 S    
