data_mof_unit_37711.cif
_audit_creation_date              2012-12-10T17:20:23-0500
_audit_creation_method            fapswitch 2.2
_symmetry_space_group_name_H-M    P1
_symmetry_Int_Tables_number       1
_space_group_crystal_system       triclinic
_cell_length_a                    11.7081
_cell_length_b                    10.861375
_cell_length_c                    9.616706
_cell_angle_alpha                 88.989174
_cell_angle_beta                  89.750923
_cell_angle_gamma                 93.855813
_cell_volume                      1219.94185385

loop_
_atom_site_label
_atom_site_type_symbol
_atom_type_description
_atom_site_fract_x
_atom_site_fract_y
_atom_site_fract_z
_atom_type_partial_charge
C1    C     C_R   0.507942 0.262983 0.502256 0.833857
C2    C     C_R   0.478133 0.043003 0.887407 -0.303419
C3    C     C_R   0.416570 0.929409 0.873900 -0.051912
C4    C     C_R   0.412118 0.873933 0.743543 -0.111721
C5    C     C_R   0.465974 0.933210 0.625980 -0.096261
C6    C     C_R   0.503041 0.058778 0.635030 -0.024404
C7    C     C_R   0.517091 0.128912 0.508597 -0.159895
C8    C     C_R   0.522946 0.067908 0.382124 -0.290151
C9    C     C_R   0.512577 0.940723 0.378376 0.587512
C10   C     C_R   0.484926 0.871394 0.499920 -0.195351
C11   C     C_R   0.649898 0.680306 0.132525 0.595968
C12   C     C_R   0.284140 0.499547 0.500247 0.787776
C13   C     C_R   0.712712 0.770741 0.052511 -0.042760
C14   C     C_R   0.710652 0.764096 0.909823 -0.292355
C15   C     C_R   0.645888 0.670857 0.846928 -0.181792
C16   C     C_R   0.571853 0.585262 0.921770 0.171330
C17   C     C_R   0.572617 0.587109 0.071371 0.102642
C18   C     C_R   0.431945 0.418666 0.075856 -0.030568
C19   C     C_R   0.431871 0.418860 0.928239 0.042710
C20   C     C_R   0.492452 0.737070 0.499349 0.850805
C21   C     C_R   0.715851 0.500164 0.499805 0.862569
C22   C     C_1   0.162405 0.499906 0.500603 -0.147542
C23   C     C_1   0.059920 0.500189 0.500340 0.021959
C24   C     C_1   0.940090 0.500370 0.499776 0.022801
C25   C     C_1   0.837594 0.500345 0.499492 -0.136343
C26   C     C_R   0.523107 0.106638 0.769980 0.649235
Cu1   Cu    Cu3+1 0.499990 0.499990 0.640660 0.995263
Cu2   Cu    Cu3+1 0.500010 0.500010 0.359340 1.031172
H1    H     H_    0.536826 0.118702 0.284843 0.187262
H2    H     H_    0.762061 0.829710 0.845582 0.220765
H3    H     H_    0.658537 0.671154 0.738122 0.223091
H4    H     H_    0.375975 0.352064 0.874866 0.120743
H5    H     H_    0.491814 0.082506 0.989184 0.167753
H6    H     H_    0.363923 0.786023 0.733987 0.200475
H7    H     H_    0.376068 0.351811 0.132401 0.125713
N1    N     N_R   0.501070 0.501210 0.147910 -0.178361
N2    N     N_R   0.501110 0.501290 0.852040 -0.168673
O1    O     O_R   0.499990 0.319640 0.618810 -0.530500
O2    O     O_R   0.500000 0.319660 0.381240 -0.606716
O3    O     O_R   0.337190 0.500000 0.618790 -0.583345
O4    O     O_R   0.337200 0.500030 0.381210 -0.570869
O5    O     O_R   0.500000 0.680340 0.618760 -0.631200
O6    O     O_R   0.500010 0.680360 0.381190 -0.453085
O7    O     O_R   0.662800 0.499970 0.618790 -0.586459
O8    O     O_R   0.662810 0.500000 0.381210 -0.511334
F1    F     F_    0.597897 0.205290 0.791682 -0.642970
C27   C     C_2   0.361376 0.867744 0.997441 0.445174
H8    H     H_    0.358373 0.916474 0.094744 0.111437
O9    O     O_2   0.318343 0.762346 0.992220 -0.543637
F2    F     F_    0.528172 0.886600 0.254521 -0.690564
F3    F     F_    0.674550 0.687251 0.267477 -0.668938
C28   C     C_2   0.784493 0.870866 0.119800 0.489581
H9    H     H_    0.786887 0.877616 0.232208 0.126690
O10   O     O_2   0.841459 0.947970 0.050464 -0.543159

loop_
_geom_bond_atom_site_label_1
_geom_bond_atom_site_label_2
_ccdc_geom_bond_type
C12   O3    A    
C20   O5    A    
C23   C24   S    
C15   H3    S    
C12   O4    A    
C17   N1    A    
C21   O7    A    
C9    C10   A    
C16   N2    A    
Cu2   O6    S    
C27   H8    S    
Cu1   O3    S    
C2    C3    A    
C5    C10   A    
C2    C26   A    
C13   C14   A    
C24   C25   T    
C11   C13   A    
Cu1   O5    S    
C6    C26   A    
C1    O1    A    
Cu1   N2    S    
C8    H1    S    
C2    H5    S    
C3    C27   S    
C14   H2    S    
C6    C7    A    
C21   O8    A    
C22   C23   T    
C5    C6    A    
C4    H6    S    
Cu2   O8    S    
C11   F3    S    
C19   H4    S    
Cu1   O1    S    
C15   C16   A    
C13   C28   S    
C12   C22   S    
Cu2   O4    S    
C7    C8    A    
C20   O6    A    
C28   H9    S    
Cu2   N1    S    
C27   O9    D    
C18   C19   A    
C18   H7    S    
C10   C20   S    
Cu1   Cu2   S    
C26   F1    S    
C14   C15   A    
C4    C5    A    
C21   C25   S    
C19   N2    A    
Cu2   O2    S    
C1    C7    S    
C1    O2    A    
C18   N1    A    
Cu1   O7    S    
C11   C17   A    
C9    F2    S    
C3    C4    A    
C16   C17   A    
C28   O10   D    
C8    C9    A    
