data_mof_unit_67886.cif
_audit_creation_date              2012-12-10T17:09:25-0500
_audit_creation_method            fapswitch 2.2
_symmetry_space_group_name_H-M    P1
_symmetry_Int_Tables_number       1
_space_group_crystal_system       triclinic
_cell_length_a                    10.638677
_cell_length_b                    10.710596
_cell_length_c                    10.347179
_cell_angle_alpha                 92.999336
_cell_angle_beta                  89.564242
_cell_angle_gamma                 88.8923
_cell_volume                      1177.14660001

loop_
_atom_site_label
_atom_site_type_symbol
_atom_type_description
_atom_site_fract_x
_atom_site_fract_y
_atom_site_fract_z
_atom_type_partial_charge
C1    C     C_R   0.508763 0.264066 0.496472 0.876162
C2    C     C_2   0.503976 0.598788 0.079008 -0.079147
C3    C     C_R   0.258547 0.500380 0.500201 0.864550
C4    C     C_R   0.487625 0.736373 0.503092 0.852157
C5    C     C_R   0.741794 0.501843 0.499769 0.881355
C6    C     C_3   0.041560 0.484214 0.620708 -0.232463
C7    C     C_3   0.960413 0.392050 0.538746 -0.315252
C8    C     C_3   0.877557 0.503586 0.499502 -0.160028
C9    C     C_3   0.958649 0.594463 0.579675 0.515760
C10   C     C_3   0.040959 0.611935 0.460119 0.029420
C11   C     C_3   0.653529 0.076568 0.524963 -0.336657
C12   C     C_3   0.961246 0.518628 0.380952 0.506055
C13   C     C_3   0.762811 0.125211 0.446702 -0.960522
C14   C     C_3   0.683497 0.729391 0.910296 0.097959
C15   C     C_3   0.692949 0.839458 0.011154 -0.435927
C16   C     C_3   0.759273 0.804795 0.135459 -0.877338
C17   C     C_3   0.386440 0.429823 0.863977 -0.075183
C18   C     C_3   0.268780 0.506156 0.905922 -0.875489
C19   C     C_3   0.475060 0.288720 0.121850 0.232606
C20   C     C_3   0.618976 0.276370 0.117465 -0.380431
C21   C     C_3   0.661117 0.140235 0.099905 -1.025204
C22   C     C_3   0.006314 0.758785 0.726787 0.059309
C23   C     C_3   0.045656 0.407720 0.417998 -0.266901
C24   C     C_3   0.016843 0.720861 0.865961 -0.372534
C25   C     C_3   0.116286 0.793278 0.941462 -0.999421
C26   C     C_3   0.081306 0.735645 0.406372 -0.374374
C27   C     C_3   0.969754 0.828313 0.403710 -0.842983
C28   C     C_3   0.886926 0.443326 0.180808 0.109410
C29   C     C_3   0.987996 0.415464 0.077450 -0.374463
C30   C     C_3   0.941271 0.326772 0.968606 -0.978702
C31   C     C_3   0.350287 0.945754 0.194855 0.087343
C32   C     C_3   0.211591 0.978206 0.226526 -0.379560
C33   C     C_3   0.165378 0.093404 0.159253 -1.000899
C34   C     C_3   0.123529 0.501371 0.499709 -0.133413
C35   C     C_3   0.328207 0.959628 0.673879 0.121327
C36   C     C_3   0.331117 0.063174 0.781251 -0.305476
C37   C     C_3   0.205511 0.134071 0.793883 -1.051281
C38   C     C_2   0.432565 0.932656 0.405820 0.387410
C39   C     C_2   0.453390 0.868030 0.512832 0.160255
C40   C     C_2   0.435507 0.069411 0.422217 -0.328577
C41   C     C_2   0.527764 0.131459 0.483417 0.066490
C42   C     C_2   0.519748 0.597360 0.931959 0.542498
H1    H     H_    0.926661 0.302949 0.574781 0.181994
H2    H     H_    0.659844 0.973481 0.513008 0.227291
H3    H     H_    0.729107 0.757077 0.819749 0.213006
H4    H     H_    0.737449 0.644876 0.939803 0.112407
H5    H     H_    0.746741 0.915088 0.968084 0.212137
H6    H     H_    0.597470 0.877478 0.036471 0.252306
H7    H     H_    0.722943 0.717305 0.172879 0.282977
H8    H     H_    0.743988 0.881186 0.210884 0.259704
H9    H     H_    0.861950 0.792789 0.119054 0.277746
H10   H     H_    0.273594 0.549446 0.005098 0.284877
H11   H     H_    0.253653 0.580769 0.837492 0.268080
H12   H     H_    0.516779 0.687991 0.130245 0.171569
H13   H     H_    0.187904 0.443277 0.902721 0.222086
H14   H     H_    0.362603 0.384127 0.772040 0.230159
H15   H     H_    0.401668 0.340133 0.903503 0.147944
H16   H     H_    0.439332 0.223140 0.045132 0.085591
H17   H     H_    0.429298 0.246430 0.203224 0.157416
H18   H     H_    0.655271 0.327084 0.034547 0.200987
H19   H     H_    0.658108 0.316459 0.208767 0.246051
H20   H     H_    0.617942 0.084609 0.175316 0.280287
H21   H     H_    0.764709 0.131965 0.108002 0.271726
H22   H     H_    0.632544 0.102821 0.002691 0.267562
H23   H     H_    0.076929 0.464107 0.717396 0.159057
H24   H     H_    0.981574 0.860076 0.728005 0.157525
H25   H     H_    0.099965 0.746366 0.678734 0.125105
H26   H     H_    0.926784 0.738482 0.915948 0.233058
H27   H     H_    0.037724 0.619940 0.866460 0.221160
H28   H     H_    0.208254 0.788253 0.890593 0.270842
H29   H     H_    0.128149 0.751111 0.036303 0.270829
H30   H     H_    0.085774 0.892558 0.957019 0.278925
H31   H     H_    0.882363 0.780186 0.374208 0.292385
H32   H     H_    0.953986 0.875267 0.500451 0.255018
H33   H     H_    0.987014 0.901857 0.334974 0.238359
H34   H     H_    0.084461 0.330554 0.352948 0.153660
H35   H     H_    0.158251 0.777072 0.465296 0.163465
H36   H     H_    0.118069 0.715651 0.306600 0.236313
H37   H     H_    0.797988 0.467693 0.132090 0.161064
H38   H     H_    0.870158 0.358535 0.236172 0.126065
H39   H     H_    0.014335 0.504744 0.036711 0.239983
H40   H     H_    0.073029 0.374272 0.121560 0.231443
H41   H     H_    0.923705 0.233439 0.005639 0.275659
H42   H     H_    0.012881 0.315564 0.890554 0.267931
H43   H     H_    0.854086 0.364743 0.925731 0.267231
H44   H     H_    0.354086 0.892392 0.099856 0.158626
H45   H     H_    0.354608 0.122083 0.389456 0.128256
H46   H     H_    0.406945 0.029636 0.180685 0.133628
H47   H     H_    0.153902 0.898087 0.194703 0.226180
H48   H     H_    0.195770 0.994288 0.332237 0.222216
H49   H     H_    0.215426 0.177615 0.196366 0.261161
H50   H     H_    0.063133 0.108449 0.178033 0.269208
H51   H     H_    0.181294 0.080001 0.053728 0.284832
H52   H     H_    0.282349 0.876362 0.710560 0.129130
H53   H     H_    0.269887 0.992866 0.592906 0.117145
H54   H     H_    0.354637 0.021929 0.874665 0.205135
H55   H     H_    0.405210 0.130831 0.759301 0.236309
H56   H     H_    0.761598 0.083575 0.346560 0.273720
H57   H     H_    0.185025 0.182702 0.703898 0.276043
H58   H     H_    0.210345 0.205463 0.875103 0.271212
H59   H     H_    0.128301 0.069079 0.813062 0.272923
H60   H     H_    0.758103 0.228486 0.443617 0.255758
H61   H     H_    0.853116 0.097536 0.491127 0.251821
H62   H     H_    0.667437 0.102519 0.629204 0.217236
N1    N     N_2   0.501360 0.501330 0.852150 -0.142917
N2    N     N_2   0.501400 0.501360 0.147810 0.038496
O1    O     O_R   0.499980 0.319060 0.613040 -0.662296
O2    O     O_3   0.424211 0.410703 0.104478 -0.580657
O3    O     O_3   0.908683 0.691920 0.663183 -0.659486
O4    O     O_3   0.919162 0.550108 0.257741 -0.651433
O5    O     O_3   0.403535 0.868848 0.288223 -0.649573
O6    O     O_3   0.453108 0.927267 0.635722 -0.640799
O7    O     O_R   0.500020 0.319100 0.386900 -0.643061
O8    O     O_R   0.313930 0.499950 0.613050 -0.658864
O9    O     O_R   0.313970 0.499990 0.386910 -0.584637
O10   O     O_R   0.499980 0.680900 0.613100 -0.538098
O11   O     O_R   0.500020 0.680940 0.386960 -0.594248
O12   O     O_R   0.686030 0.500010 0.613090 -0.587980
O13   O     O_R   0.686070 0.500050 0.386950 -0.641573
O14   O     O_3   0.556736 0.706621 0.879288 -0.618791
Zn1   Zn    Zn3+2 0.499970 0.499970 0.650990 0.952788
Zn2   Zn    Zn3+2 0.500030 0.500030 0.349010 0.965764

loop_
_geom_bond_atom_site_label_1
_geom_bond_atom_site_label_2
_ccdc_geom_bond_type
C37   H59   S    
C35   C36   S    
C16   H9    S    
C15   H5    S    
C23   H34   S    
C6    C9    S    
C12   O4    S    
C18   H10   S    
C7    C8    S    
C14   H4    S    
C12   C23   S    
C28   C29   S    
C26   C27   S    
C26   H36   S    
C5    O13   A    
C40   H45   S    
C36   C37   S    
C16   H8    S    
C33   H49   S    
C38   C39   D    
C35   H52   S    
C15   C16   S    
C20   H19   S    
C13   H56   S    
C28   H37   S    
C22   H24   S    
C21   H22   S    
C18   H11   S    
O8    Zn1   S    
C6    H23   S    
C32   H48   S    
O7    Zn2   S    
C31   C32   S    
C8    C9    S    
C11   H62   S    
C25   H29   S    
C7    H1    S    
C20   H18   S    
C27   H32   S    
C9    C10   S    
C19   O2    S    
C10   C26   S    
C31   H44   S    
C1    O7    A    
C15   H6    S    
C27   H33   S    
C24   H27   S    
C14   H3    S    
C19   H16   S    
C9    O3    S    
C26   H35   S    
O10   Zn1   S    
C24   C25   S    
C2    H12   S    
C33   H50   S    
C3    C34   S    
C28   O4    S    
C2    N2    D    
C6    C34   S    
O12   Zn1   S    
O11   Zn2   S    
C29   H39   S    
C29   C30   S    
C17   N1    S    
C36   H54   S    
C32   H47   S    
C4    C39   S    
C8    C12   S    
C22   O3    S    
N2    Zn2   S    
C17   C18   S    
N1    Zn1   S    
C11   H2    S    
C10   C34   S    
C25   H30   S    
C16   H7    S    
C30   H43   S    
C17   H14   S    
C21   H20   S    
C36   H55   S    
C10   C12   S    
C18   H13   S    
C1    O1    A    
C1    C41   S    
C39   O6    S    
C14   O14   S    
C22   C24   S    
C4    O11   A    
C13   H61   S    
O1    Zn1   S    
C37   H57   S    
O13   Zn2   S    
C40   C41   D    
C23   C34   S    
C31   H46   S    
C4    O10   A    
C3    O8    A    
C33   H51   S    
C5    C8    S    
C6    C7    S    
C35   H53   S    
C5    O12   A    
C19   H17   S    
C32   C33   S    
C19   C20   S    
C13   H60   S    
C29   H40   S    
C3    O9    A    
C38   C40   S    
C11   C13   S    
C42   O14   S    
N2    O2    S    
C2    C42   S    
C7    C23   S    
C11   C41   S    
C30   H42   S    
C28   H38   S    
C42   N1    D    
C22   H25   S    
C21   H21   S    
C24   H26   S    
C20   C21   S    
C30   H41   S    
O9    Zn2   S    
C31   O5    S    
C14   C15   S    
C25   H28   S    
C38   O5    S    
C27   H31   S    
C37   H58   S    
C35   O6    S    
C17   H15   S    
