data_mof_unit_64141.cif
_audit_creation_date              2012-12-10T19:31:28-0500
_audit_creation_method            fapswitch 2.2
_symmetry_space_group_name_H-M    P1
_symmetry_Int_Tables_number       1
_space_group_crystal_system       triclinic
_cell_length_a                    36.025556
_cell_length_b                    43.211918
_cell_length_c                    28.139866
_cell_angle_alpha                 90.000678
_cell_angle_beta                  129.815778
_cell_angle_gamma                 89.998785
_cell_volume                      33647.9111937

loop_
_atom_site_label
_atom_site_type_symbol
_atom_type_description
_atom_site_fract_x
_atom_site_fract_y
_atom_site_fract_z
_atom_type_partial_charge
C1    C     C_R   0.599738 0.250018 0.999978 0.823240
C2    C     C_R   0.489446 0.016281 0.949155 -0.045813
C3    C     C_R   0.809475 0.730041 0.666180 -0.175944
C4    C     C_R   0.309499 0.769979 0.666180 -0.175980
C5    C     C_R   0.690503 0.230022 0.333820 -0.175961
C6    C     C_R   0.690523 0.769961 0.333820 -0.176015
C7    C     C_R   0.309504 0.230017 0.666181 -0.176012
C8    C     C_R   0.816672 0.249990 0.633367 0.112200
C9    C     C_R   0.183329 0.750011 0.366633 0.112143
C10   C     C_R   0.183329 0.249988 0.366633 0.112112
C11   C     C_R   0.816673 0.750009 0.633367 0.112098
C12   C     C_R   0.316671 0.749988 0.633367 0.112084
C13   C     C_R   0.489447 0.983721 0.949155 -0.045832
C14   C     C_R   0.683327 0.250009 0.366633 0.112140
C15   C     C_R   0.683325 0.749992 0.366633 0.112039
C16   C     C_R   0.316672 0.250010 0.633367 0.112051
C17   C     C_R   0.856660 0.229993 0.666186 -0.176150
C18   C     C_R   0.143345 0.770011 0.333813 -0.176120
C19   C     C_R   0.143345 0.229989 0.333813 -0.176124
C20   C     C_R   0.856683 0.769987 0.666185 -0.176117
C21   C     C_R   0.356654 0.729988 0.666187 -0.175873
C22   C     C_R   0.643339 0.270006 0.333814 -0.175905
C23   C     C_R   0.643316 0.730014 0.333815 -0.175870
C24   C     C_R   0.510555 0.016281 0.050850 -0.045868
C25   C     C_R   0.356652 0.270012 0.666186 -0.175879
C26   C     C_R   0.888902 0.229973 0.730687 -0.180749
C27   C     C_R   0.111103 0.770031 0.269313 -0.180637
C28   C     C_R   0.111103 0.229969 0.269313 -0.180601
C29   C     C_R   0.888924 0.770008 0.730686 -0.180587
C30   C     C_R   0.388897 0.729969 0.730687 -0.180401
C31   C     C_R   0.611098 0.270027 0.269313 -0.180511
C32   C     C_R   0.611075 0.729993 0.269314 -0.180351
C33   C     C_R   0.388894 0.270032 0.730686 -0.180364
C34   C     C_R   0.881740 0.249974 0.763515 -0.007992
C35   C     C_R   0.010834 0.483722 0.051009 -0.045838
C36   C     C_R   0.118260 0.750027 0.236485 -0.008069
C37   C     C_R   0.118260 0.249973 0.236485 -0.008086
C38   C     C_R   0.881741 0.750026 0.763514 -0.008114
C39   C     C_R   0.381740 0.749973 0.763515 -0.008127
C40   C     C_R   0.618259 0.250026 0.236485 -0.008052
C41   C     C_R   0.618259 0.749974 0.236485 -0.008172
C42   C     C_R   0.381740 0.250026 0.763515 -0.008145
C43   C     C_R   0.799717 0.248484 0.532269 -0.176363
C44   C     C_R   0.200282 0.751521 0.467730 -0.176369
C45   C     C_R   0.200284 0.248477 0.467731 -0.176390
C46   C     C_R   0.989160 0.516281 0.948989 -0.045837
C47   C     C_R   0.799719 0.751484 0.532268 -0.176392
C48   C     C_R   0.299717 0.748478 0.532270 -0.176358
C49   C     C_R   0.700282 0.251515 0.467731 -0.176351
C50   C     C_R   0.700280 0.748517 0.467732 -0.176380
C51   C     C_R   0.299719 0.251520 0.532270 -0.176379
C52   C     C_R   0.767475 0.248486 0.467774 -0.178474
C53   C     C_R   0.232523 0.751518 0.532224 -0.178448
C54   C     C_R   0.232525 0.248479 0.532225 -0.178441
C55   C     C_R   0.767476 0.751483 0.467773 -0.178431
C56   C     C_R   0.267476 0.748481 0.467776 -0.178510
C57   C     C_R   0.989164 0.483721 0.948991 -0.045892
C58   C     C_R   0.732523 0.251512 0.532226 -0.178538
C59   C     C_R   0.732522 0.748518 0.532227 -0.178495
C60   C     C_R   0.267477 0.251518 0.467776 -0.178502
C61   C     C_R   0.717473 0.250002 0.434937 0.103622
C62   C     C_R   0.282525 0.749996 0.565063 0.103614
C63   C     C_R   0.282526 0.250002 0.565063 0.103618
C64   C     C_R   0.717473 0.750000 0.434937 0.103609
C65   C     C_R   0.217474 0.750003 0.434937 0.103585
C66   C     C_R   0.782525 0.249997 0.565063 0.103592
C67   C     C_R   0.782526 0.750002 0.565063 0.103581
C68   C     C_R   0.010839 0.516281 0.051011 -0.045848
C69   C     C_R   0.217475 0.249996 0.434938 0.103590
C70   C     C_R   0.496458 0.615330 0.040024 -0.185183
C71   C     C_R   0.503551 0.384669 0.959984 -0.185226
C72   C     C_R   0.503542 0.615330 0.959975 -0.185356
C73   C     C_R   0.496449 0.384670 0.040017 -0.185528
C74   C     C_R   0.996366 0.115331 0.039942 -0.185261
C75   C     C_R   0.003634 0.884669 0.960059 -0.185218
C76   C     C_R   0.003633 0.115330 0.960057 -0.185555
C77   C     C_R   0.996366 0.884670 0.039943 -0.185383
C78   C     C_R   0.500000 0.334199 0.000000 0.784867
C79   C     C_R   0.500000 0.032586 0.000003 -0.045999
C80   C     C_R   0.500000 0.665800 1.000000 0.784897
C81   C     C_R   1.000000 0.834200 0.000000 0.784890
C82   C     C_R   1.000000 0.165800 1.000000 0.784859
C83   C     C_R   0.496440 0.583075 0.039998 -0.177893
C84   C     C_R   0.503569 0.416925 0.960010 -0.177908
C85   C     C_R   0.503559 0.583075 0.960000 -0.177917
C86   C     C_R   0.496432 0.416925 0.039992 -0.177965
C87   C     C_R   0.996386 0.083075 0.039950 -0.177896
C88   C     C_R   0.003614 0.916925 0.960050 -0.177884
C89   C     C_R   0.003613 0.083074 0.960048 -0.177969
C90   C     C_R   0.500001 0.967416 0.000002 -0.045999
C91   C     C_R   0.996386 0.916925 0.039951 -0.177918
C92   C     C_R   0.500000 0.566673 0.999999 0.112795
C93   C     C_R   0.500000 0.433327 0.000001 0.112849
C94   C     C_R   1.000000 0.066673 0.999999 0.112838
C95   C     C_R   1.000000 0.933327 0.000000 0.112787
C96   C     C_R   0.500000 0.165820 0.000000 0.795200
C97   C     C_R   0.500000 0.834180 1.000000 0.795035
C98   C     C_R   0.000000 0.665821 0.000000 0.795025
C99   C     C_R   1.000000 0.334179 0.999999 0.795184
C100  C     C_R   0.456374 0.884717 0.960004 -0.185066
C101  C     C_R   0.000000 0.532586 0.000000 -0.046022
C102  C     C_R   0.456372 0.115284 0.960038 -0.184708
C103  C     C_R   0.543625 0.884716 0.039995 -0.184920
C104  C     C_R   0.543629 0.115284 0.039968 -0.184988
C105  C     C_R   0.043639 0.384715 0.039858 -0.184761
C106  C     C_R   0.043646 0.615285 0.039803 -0.185122
C107  C     C_R   0.956359 0.384715 0.960140 -0.185042
C108  C     C_R   0.956354 0.615286 0.960198 -0.184977
C109  C     C_R   0.456412 0.916991 0.960052 -0.153608
C110  C     C_R   0.456409 0.083010 0.960086 -0.153475
C111  C     C_R   0.543588 0.916990 0.039948 -0.153565
C112  C     C_R   0.400262 0.749982 0.000022 0.823206
C113  C     C_R   0.999999 0.467415 1.000000 -0.045981
C114  C     C_R   0.543592 0.083009 0.039921 -0.153619
C115  C     C_R   0.043602 0.416988 0.039807 -0.153506
C116  C     C_R   0.043609 0.583011 0.039751 -0.153660
C117  C     C_R   0.956396 0.416989 0.960192 -0.153649
C118  C     C_R   0.956392 0.583012 0.960250 -0.153615
C119  C     C_R   0.500000 0.933225 0.000001 0.136365
C120  C     C_R   0.500000 0.066776 0.000003 0.136324
C121  C     C_R   0.999999 0.433224 0.999999 0.136347
C122  C     C_R   0.000000 0.566777 0.000000 0.136404
C123  C     C_R   0.500000 0.467472 0.000001 0.104102
C124  C     C_R   0.532150 0.516126 0.997111 -0.178606
C125  C     C_R   0.500000 0.532528 0.999999 0.104103
C126  C     C_R   1.000000 0.967472 0.000000 0.104393
C127  C     C_R   1.000000 0.032528 1.000000 0.104378
C128  C     C_R   0.500000 0.868277 0.999999 -0.009805
C129  C     C_R   0.500000 0.131724 0.000002 -0.009828
C130  C     C_R   0.999999 0.368275 0.999999 -0.009819
C131  C     C_R   0.000000 0.631725 0.000001 -0.009782
C132  C     C_1   0.520468 0.966964 0.102592 0.177767
C133  C     C_1   0.479528 0.033039 0.897410 0.177768
C134  C     C_1   0.479534 0.966965 0.897411 0.177850
C135  C     C_R   0.467850 0.483875 0.002888 -0.178628
C136  C     C_1   0.520472 0.033038 0.102595 0.177972
C137  C     C_1   0.021029 0.466967 0.102922 0.177609
C138  C     C_1   0.978947 0.533037 0.897065 0.177662
C139  C     C_1   0.978970 0.466966 0.897078 0.177815
C140  C     C_1   0.021052 0.533038 0.102935 0.177745
C141  C     C_R   0.467850 0.516127 0.002888 -0.178586
C142  C     C_R   0.532150 0.483874 0.997112 -0.178592
C143  C     C_R   0.973139 0.016126 0.943966 -0.178520
C144  C     C_R   0.026861 0.983874 0.056034 -0.178498
C145  C     C_R   0.026861 0.016126 0.056034 -0.178541
C146  C     C_R   0.973139 0.983874 0.943966 -0.178533
C147  C     C_R   0.500000 0.631743 0.999999 -0.006837
C148  C     C_R   0.400263 0.250019 0.000023 0.823795
C149  C     C_R   0.500000 0.368257 0.000001 -0.006764
C150  C     C_R   1.000000 0.131743 0.999999 -0.006750
C151  C     C_R   0.000000 0.868257 0.000001 -0.006823
C152  C     C_3   0.749448 0.722749 0.023422 -0.296777
C153  C     C_3   0.252973 0.278170 0.981423 -0.296618
C154  C     C_3   0.248430 0.723766 0.972328 -0.296936
C155  C     C_3   0.751206 0.276423 0.026944 -0.296937
C156  C     C_3   0.247026 0.221830 0.018576 -0.296350
C157  C     C_3   0.750552 0.777250 0.976578 -0.296508
C158  C     C_3   0.748794 0.223578 0.973057 -0.296673
C159  C     C_R   0.599737 0.749982 0.999977 0.823500
C160  C     C_3   0.251570 0.776234 0.027671 -0.296671
C161  C     C_3   0.290327 0.244199 0.055811 0.525886
C162  C     C_3   0.709276 0.753340 0.943386 0.526000
C163  C     C_3   0.709122 0.248525 0.943067 0.526093
C164  C     C_3   0.290896 0.751081 0.056969 0.526102
C165  C     C_3   0.790724 0.746659 0.056614 0.526030
C166  C     C_3   0.209673 0.255802 0.944188 0.525905
C167  C     C_3   0.209104 0.748919 0.943031 0.526142
C168  C     C_3   0.790878 0.251475 0.056934 0.526132
C169  C     C_1   0.360506 0.250077 0.999842 -0.136978
C170  C     C_R   0.099738 0.750018 0.999978 0.823233
C171  C     C_1   0.639492 0.749930 0.000153 -0.136949
C172  C     C_1   0.639490 0.250063 0.000151 -0.136927
C173  C     C_1   0.360510 0.749938 0.999850 -0.136918
C174  C     C_1   0.860508 0.750069 0.999846 -0.136872
C175  C     C_1   0.139494 0.249923 0.000157 -0.136897
C176  C     C_1   0.139490 0.750062 0.000150 -0.136842
C177  C     C_1   0.860510 0.249937 0.999849 -0.136847
C178  C     C_3   0.242578 0.227904 0.960500 -0.294260
C179  C     C_3   0.755411 0.773738 0.035487 -0.294224
C180  C     C_3   0.753813 0.225149 0.032293 -0.294177
C181  C     C_R   0.900262 0.249982 0.000022 0.823270
C182  C     C_3   0.246532 0.775073 0.968396 -0.294177
C183  C     C_3   0.744589 0.726262 0.964513 -0.294438
C184  C     C_3   0.257422 0.272097 0.039500 -0.294452
C185  C     C_3   0.253468 0.724927 0.031603 -0.294406
C186  C     C_3   0.746188 0.274852 0.967708 -0.294400
C187  C     C_3   0.286271 0.250126 0.999135 0.096718
C188  C     C_3   0.713733 0.749911 0.000874 0.096716
C189  C     C_3   0.713734 0.250059 0.000875 0.096724
C190  C     C_3   0.286266 0.749947 0.999123 0.096712
C191  C     C_3   0.786267 0.750088 0.999127 0.096705
C192  C     C_R   0.900263 0.750018 0.000023 0.823526
C193  C     C_3   0.213728 0.249874 0.000864 0.096699
C194  C     C_3   0.213734 0.750053 0.000876 0.096709
C195  C     C_3   0.786267 0.249941 0.999126 0.096719
C196  C     C_1   0.327004 0.250108 0.999561 0.013207
C197  C     C_1   0.672996 0.749911 0.000439 0.013209
C198  C     C_1   0.672995 0.250074 0.000437 0.013190
C199  C     C_1   0.327005 0.749930 0.999564 0.013207
C200  C     C_1   0.827004 0.750089 0.999561 0.013279
C201  C     C_1   0.172996 0.249892 0.000439 0.013280
C202  C     C_1   0.172994 0.750070 0.000436 0.013277
C203  C     C_R   0.099737 0.249981 0.999977 0.823825
C204  C     C_1   0.827005 0.249927 0.999564 0.013262
C205  C     C_R   0.415808 0.250033 0.831638 0.789266
C206  C     C_R   0.584192 0.749967 0.168363 0.789304
C207  C     C_R   0.584192 0.250033 0.168363 0.789644
C208  C     C_R   0.415807 0.749967 0.831637 0.789519
C209  C     C_R   0.915808 0.750033 0.831637 0.789238
C210  C     C_R   0.084192 0.249967 0.168362 0.789199
C211  C     C_R   0.084193 0.750033 0.168363 0.789455
C212  C     C_R   0.915807 0.249967 0.831637 0.789574
C213  C     C_R   0.841749 0.269982 0.730682 -0.184165
C214  C     C_R   0.510554 0.983721 0.050849 -0.045821
C215  C     C_R   0.158247 0.730015 0.269318 -0.184200
C216  C     C_R   0.158247 0.269983 0.269318 -0.184250
C217  C     C_R   0.841729 0.730036 0.730682 -0.184252
C218  C     C_R   0.341753 0.769985 0.730682 -0.184197
C219  C     C_R   0.658250 0.230018 0.269318 -0.184154
C220  C     C_R   0.658270 0.769965 0.269318 -0.184247
C221  C     C_R   0.341757 0.230013 0.730683 -0.184240
C222  C     C_R   0.809496 0.269977 0.666180 -0.175890
C223  C     C_R   0.190501 0.730020 0.333820 -0.175909
C224  C     C_R   0.190501 0.269978 0.333820 -0.175941
H1    H     H_    0.557780 0.528252 0.995781 0.133488
H2    H     H_    0.137353 0.785919 0.358051 0.133502
H3    H     H_    0.779223 0.714144 0.641936 0.133321
H4    H     H_    0.279268 0.785893 0.641936 0.133246
H5    H     H_    0.720737 0.214111 0.358064 0.133234
H6    H     H_    0.720775 0.785857 0.358063 0.133257
H7    H     H_    0.279276 0.214102 0.641938 0.133254
H8    H     H_    0.325340 0.235259 0.141609 0.324875
H9    H     H_    0.673653 0.758488 0.856354 0.324825
H10   H     H_    0.673265 0.246238 0.855550 0.324790
H11   H     H_    0.326783 0.752759 0.144540 0.324786
H12   H     H_    0.826347 0.741512 0.143646 0.324815
H13   H     H_    0.137353 0.214082 0.358051 0.133562
H14   H     H_    0.174659 0.264741 0.858391 0.324856
H15   H     H_    0.173217 0.747241 0.855459 0.324784
H16   H     H_    0.826736 0.253762 0.144451 0.324786
H17   H     H_    0.862696 0.785877 0.641947 0.133585
H18   H     H_    0.362646 0.714080 0.641949 0.133651
H19   H     H_    0.637344 0.285911 0.358052 0.133557
H20   H     H_    0.637304 0.714124 0.358054 0.133733
H21   H     H_    0.362641 0.285921 0.641948 0.133713
H22   H     H_    0.919352 0.214238 0.754797 0.162162
H23   H     H_    0.080656 0.785769 0.245203 0.162358
H24   H     H_    0.080656 0.214232 0.245203 0.162499
H25   H     H_    0.442219 0.471749 0.004218 0.133448
H26   H     H_    0.919391 0.785728 0.754795 0.162536
H27   H     H_    0.419344 0.714231 0.754797 0.162461
H28   H     H_    0.580648 0.285762 0.245203 0.162263
H29   H     H_    0.580609 0.714272 0.245205 0.162637
H30   H     H_    0.419338 0.285772 0.754796 0.162601
H31   H     H_    0.838138 0.247766 0.556520 0.135041
H32   H     H_    0.161861 0.752244 0.443478 0.135070
H33   H     H_    0.161863 0.247754 0.443479 0.135071
H34   H     H_    0.838140 0.752177 0.556519 0.135080
H35   H     H_    0.338138 0.747755 0.556522 0.135049
H36   H     H_    0.442219 0.528254 0.004218 0.133517
H37   H     H_    0.661861 0.252233 0.443480 0.135020
H38   H     H_    0.661858 0.747824 0.443481 0.135059
H39   H     H_    0.338139 0.252244 0.556522 0.135053
H40   H     H_    0.781665 0.247771 0.443557 0.133522
H41   H     H_    0.218332 0.752238 0.556441 0.133536
H42   H     H_    0.218335 0.247759 0.556442 0.133536
H43   H     H_    0.781666 0.752175 0.443554 0.133542
H44   H     H_    0.281667 0.747762 0.443559 0.133504
H45   H     H_    0.718334 0.252228 0.556443 0.133491
H46   H     H_    0.718333 0.747827 0.556446 0.133511
H47   H     H_    0.557781 0.471747 0.995783 0.133512
H48   H     H_    0.281667 0.252238 0.443559 0.133502
H49   H     H_    0.493817 0.627390 0.071497 0.161438
H50   H     H_    0.506200 0.372610 0.928518 0.161405
H51   H     H_    0.506183 0.627389 0.928502 0.161288
H52   H     H_    0.493800 0.372611 0.071483 0.161126
H53   H     H_    0.993393 0.127390 0.071115 0.161423
H54   H     H_    0.006607 0.872610 0.928885 0.161456
H55   H     H_    0.006607 0.127389 0.928884 0.161141
H56   H     H_    0.993393 0.872611 0.071116 0.161305
H57   H     H_    0.494255 0.570945 0.071817 0.133173
H58   H     H_    0.951564 0.028252 0.900121 0.133122
H59   H     H_    0.505761 0.429054 0.928197 0.133162
H60   H     H_    0.505745 0.570944 0.928182 0.133125
H61   H     H_    0.494239 0.429055 0.071804 0.133053
H62   H     H_    0.992964 0.070946 0.070655 0.133210
H63   H     H_    0.007036 0.929054 0.929346 0.133216
H64   H     H_    0.007036 0.070944 0.929344 0.133090
H65   H     H_    0.992964 0.929056 0.070656 0.133163
H66   H     H_    0.422227 0.872667 0.928709 0.161801
H67   H     H_    0.422221 0.127336 0.928768 0.161918
H68   H     H_    0.577773 0.872665 0.071290 0.161853
H69   H     H_    0.048436 0.971747 0.099879 0.133137
H70   H     H_    0.577780 0.127334 0.071237 0.161812
H71   H     H_    0.077799 0.372663 0.071044 0.161909
H72   H     H_    0.077811 0.627336 0.070942 0.161794
H73   H     H_    0.922200 0.372665 0.928954 0.161801
H74   H     H_    0.922191 0.627337 0.929059 0.161846
H75   H     H_    0.422516 0.929360 0.929070 0.138023
H76   H     H_    0.422511 0.070642 0.929128 0.138067
H77   H     H_    0.577484 0.929358 0.070931 0.138036
H78   H     H_    0.577490 0.070640 0.070879 0.138018
H79   H     H_    0.077511 0.429356 0.070679 0.138028
H80   H     H_    0.048436 0.028253 0.099878 0.133135
H81   H     H_    0.077522 0.570643 0.070576 0.137983
H82   H     H_    0.922487 0.429357 0.929320 0.137978
H83   H     H_    0.922479 0.570645 0.929424 0.137995
H84   H     H_    0.749456 0.700749 0.043793 0.163222
H85   H     H_    0.254923 0.300976 0.964969 0.163259
H86   H     H_    0.246713 0.702645 0.948531 0.163193
H87   H     H_    0.752631 0.297707 0.050154 0.163197
H88   H     H_    0.245077 0.199024 0.035030 0.163513
H89   H     H_    0.750544 0.799251 0.956207 0.163459
H90   H     H_    0.747369 0.202293 0.949846 0.163416
H91   H     H_    0.951563 0.971747 0.900122 0.133135
H92   H     H_    0.253287 0.797355 0.051469 0.163409
H93   H     H_    0.760214 0.792730 0.065563 0.164026
H94   H     H_    0.236170 0.210298 0.927219 0.163968
H95   H     H_    0.243286 0.795200 0.941433 0.164070
H96   H     H_    0.757335 0.205209 0.059809 0.164061
H97   H     H_    0.263830 0.289702 0.072780 0.163861
H98   H     H_    0.739786 0.707270 0.934437 0.163903
H99   H     H_    0.742666 0.294791 0.940192 0.163930
H100  H     H_    0.256713 0.704800 0.058567 0.163935
H101  H     H_    0.835408 0.285711 0.754790 0.160641
H102  H     H_    0.862655 0.214088 0.641949 0.133408
H103  H     H_    0.164584 0.714283 0.245210 0.160651
H104  H     H_    0.164585 0.285715 0.245210 0.160676
H105  H     H_    0.835370 0.714322 0.754790 0.160668
H106  H     H_    0.335415 0.785717 0.754790 0.160637
H107  H     H_    0.664591 0.214288 0.245210 0.160630
H108  H     H_    0.664629 0.785679 0.245209 0.160654
H109  H     H_    0.335423 0.214279 0.754791 0.160668
H110  H     H_    0.779262 0.285888 0.641936 0.133297
H111  H     H_    0.220731 0.714106 0.358064 0.133311
H112  H     H_    0.220731 0.285891 0.358063 0.133314
N1    N     N_1   0.528370 0.953582 0.143837 -0.191655
N2    N     N_1   0.471623 0.046421 0.856165 -0.191659
N3    N     N_1   0.471632 0.953583 0.856167 -0.191508
N4    N     N_1   0.528377 0.046421 0.143841 -0.191290
N5    N     N_1   0.029156 0.453587 0.144302 -0.191673
N6    N     N_1   0.970805 0.546418 0.855677 -0.191665
N7    N     N_1   0.970844 0.453585 0.855698 -0.191307
N8    N     N_1   0.029194 0.546419 0.144323 -0.191519
O1    O     O_3   0.500000 0.250020 0.000000 -0.475617
O2    O     O_R   0.899640 0.268150 0.963690 -0.640484
O3    O     O_R   0.899640 0.731850 0.963690 -0.640162
O4    O     O_R   0.100360 0.268150 0.036310 -0.639732
O5    O     O_R   0.452240 0.268200 0.861400 -0.643696
O6    O     O_R   0.547760 0.731800 0.138600 -0.643680
O7    O     O_R   0.547760 0.268200 0.138600 -0.643795
O8    O     O_R   0.452240 0.731800 0.861400 -0.643721
O9    O     O_R   0.952240 0.768200 0.861400 -0.643748
O10   O     O_R   0.047760 0.231800 0.138600 -0.643763
O11   O     O_R   0.047760 0.768200 0.138600 -0.643788
O12   O     O_3   0.500000 0.749980 0.000000 -0.475652
O13   O     O_R   0.952240 0.231800 0.861400 -0.643861
O14   O     O_R   0.503360 0.319320 0.963650 -0.646358
O15   O     O_R   0.496640 0.680680 0.036350 -0.646352
O16   O     O_R   0.496640 0.319320 0.036350 -0.646624
O17   O     O_R   0.503360 0.680680 0.963650 -0.646504
O18   O     O_R   0.003360 0.819320 0.963650 -0.646353
O19   O     O_R   0.996640 0.180680 0.036350 -0.646358
O20   O     O_R   0.996640 0.819320 0.036350 -0.646503
O21   O     O_R   0.003360 0.180680 0.963650 -0.646625
O22   O     O_R   0.539730 0.180720 0.036330 -0.644592
O23   O     O_3   1.000000 0.750020 0.000000 -0.475646
O24   O     O_R   0.460270 0.819280 0.963670 -0.644596
O25   O     O_R   0.460270 0.180720 0.963670 -0.644421
O26   O     O_R   0.539730 0.819280 0.036330 -0.644508
O27   O     O_R   0.039730 0.680720 0.036330 -0.644608
O28   O     O_R   0.960270 0.319280 0.963670 -0.644599
O29   O     O_R   0.960270 0.680720 0.963670 -0.644520
O30   O     O_R   0.039730 0.319280 0.036330 -0.644428
O31   O     O_R   0.409160 0.231870 0.861420 -0.646579
O32   O     O_R   0.590840 0.768130 0.138580 -0.646548
O33   O     O_R   0.590840 0.231870 0.138580 -0.646453
O34   O     O_3   1.000000 0.249980 0.000000 -0.475611
O35   O     O_R   0.409160 0.768130 0.861420 -0.646484
O36   O     O_R   0.909160 0.731870 0.861420 -0.646517
O37   O     O_R   0.090840 0.268130 0.138580 -0.646556
O38   O     O_R   0.090840 0.731870 0.138580 -0.646455
O39   O     O_R   0.909160 0.268130 0.861420 -0.646429
O40   O     O_R   0.564010 0.268190 0.963640 -0.629962
O41   O     O_R   0.435990 0.731810 0.036360 -0.629864
O42   O     O_R   0.435990 0.268190 0.036360 -0.631186
O43   O     O_R   0.564010 0.731810 0.963640 -0.630482
O44   O     O_R   0.064010 0.768190 0.963640 -0.629746
O45   O     O_R   0.600360 0.231850 0.036310 -0.640414
O46   O     O_R   0.935990 0.231810 0.036360 -0.629847
O47   O     O_R   0.935990 0.768190 0.036360 -0.630364
O48   O     O_R   0.064010 0.231810 0.963640 -0.631070
O49   O     O_3   0.333962 0.238074 0.114764 -0.753814
O50   O     O_3   0.665222 0.756866 0.883586 -0.753795
O51   O     O_3   0.664905 0.246970 0.882929 -0.753774
O52   O     O_3   0.335133 0.752220 0.117143 -0.753761
O53   O     O_3   0.834778 0.743134 0.116415 -0.753800
O54   O     O_3   0.166037 0.261927 0.885236 -0.753836
O55   O     O_3   0.164867 0.747779 0.882857 -0.753750
O56   O     O_R   0.399640 0.768150 0.963690 -0.640449
O57   O     O_3   0.835095 0.253030 0.117072 -0.753765
O58   O     O_R   0.399640 0.231850 0.963690 -0.639660
O59   O     O_R   0.600360 0.768150 0.036310 -0.640084
O60   O     O_R   0.100360 0.731850 0.036310 -0.640528
Zn1   Zn    Zn3+2 0.443260 0.224070 0.948090 0.975329
Zn2   Zn    Zn3+2 0.495180 0.724020 0.051930 0.977931
Zn3   Zn    Zn3+2 0.495180 0.275980 0.051930 0.977132
Zn4   Zn    Zn3+2 0.504820 0.724020 0.948070 0.977582
Zn5   Zn    Zn3+2 0.004820 0.775980 0.948070 0.977943
Zn6   Zn    Zn3+2 0.995180 0.224020 0.051930 0.977845
Zn7   Zn    Zn3+2 0.995180 0.775980 0.051930 0.977594
Zn8   Zn    Zn3+2 0.004820 0.224020 0.948070 0.977144
Zn9   Zn    Zn3+2 0.556740 0.775930 0.051910 0.974982
Zn10  Zn    Zn3+2 0.556740 0.224070 0.051910 0.974965
Zn11  Zn    Zn3+2 0.443260 0.775930 0.948090 0.974814
Zn12  Zn    Zn3+2 0.943260 0.724070 0.948090 0.974939
Zn13  Zn    Zn3+2 0.056740 0.275930 0.051910 0.975287
Zn14  Zn    Zn3+2 0.056740 0.724070 0.051910 0.974770
Zn15  Zn    Zn3+2 0.943260 0.275930 0.948090 0.974923
Zn16  Zn    Zn3+2 0.504820 0.275980 0.948070 0.977833

loop_
_geom_bond_atom_site_label_1
_geom_bond_atom_site_label_2
_ccdc_geom_bond_type
C74   H53   S    
O24   Zn11  S    
C153  C166  S    
C39   C218  A    
C166  C193  S    
C90   C214  A    
C221  H109  S    
C152  C165  S    
O1    Zn10  S    
C170  C176  S    
C116  H81   S    
C133  N2    T    
C166  O54   S    
C206  O6    A    
C50   C59   A    
O16   Zn3   S    
C52   C61   A    
C36   C215  A    
O48   Zn8   S    
C224  H112  S    
C54   C63   A    
C184  C193  S    
C87   C94   A    
C114  H78   S    
C193  C201  S    
C157  C179  S    
C160  C182  S    
C89   C94   A    
C158  C180  S    
C108  C131  A    
C100  H66   S    
C155  C189  S    
C156  C178  S    
C44   C53   A    
C77   C91   A    
C109  H75   S    
C11   C67   S    
C208  O35   A    
C110  H76   S    
C32   H29   S    
O39   Zn15  S    
C4    C12   A    
C42   C221  A    
O22   Zn10  S    
C145  H80   S    
C10   C224  A    
C156  H88   S    
C88   C95   A    
C100  C109  A    
C70   H49   S    
O29   Zn12  S    
O34   Zn6   S    
C98   O27   A    
O23   Zn14  S    
C22   H19   S    
C84   H59   S    
C153  H85   S    
C190  C199  S    
C20   H17   S    
C11   C20   A    
C45   C69   A    
O25   Zn1   S    
C68   C101  A    
C182  H95   S    
C44   H32   S    
C179  C188  S    
C153  C187  S    
O13   Zn8   S    
C97   O26   A    
C168  C180  S    
O34   Zn15  S    
C139  N7    T    
C218  H106  S    
C216  C224  A    
C27   H23   S    
C12   C62   S    
C213  C222  A    
C79   C120  S    
C177  C204  T    
C127  C143  A    
C210  O10   A    
C116  C122  A    
C127  C145  A    
C104  C129  A    
O32   Zn9   S    
C27   C36   A    
C154  C167  S    
C68   C140  S    
O7    Zn3   S    
C140  N8    T    
C110  C120  A    
C76   H55   S    
C142  H47   S    
C41   C220  A    
C16   C25   A    
C91   H65   S    
C170  O44   A    
O37   Zn13  S    
C93   C123  S    
C144  C145  A    
C34   C213  A    
C210  O37   A    
C101  C122  S    
C161  C184  S    
C17   H102  S    
C35   C137  S    
C8    C17   A    
C5    C219  A    
O27   Zn14  S    
C43   C66   A    
C53   H41   S    
C141  H36   S    
C35   C113  A    
C84   C93   A    
C223  H111  S    
C9    C65   S    
O19   Zn6   S    
C3    C11   A    
C211  O38   A    
C10   C69   S    
O41   Zn2   S    
C117  H82   S    
O42   Zn3   S    
H14   O54   S    
C138  N6    T    
C134  N3    T    
C182  C190  S    
H9    O50   S    
C96   O22   A    
C157  C162  S    
C26   H22   S    
C96   C129  S    
C194  C202  S    
O30   Zn13  S    
C115  C121  A    
C72   H51   S    
C92   C125  S    
C124  H1    S    
O47   Zn7   S    
C94   C127  S    
O34   Zn13  S    
C33   C42   A    
C168  O57   S    
C213  H101  S    
H12   O53   S    
C180  C189  S    
C7    C221  A    
C96   O25   A    
C47   H34   S    
C186  H99   S    
C41   C206  S    
C35   C68   A    
C30   H27   S    
C42   C205  S    
C111  C119  A    
C118  C122  A    
C192  O3    A    
C59   C67   A    
C81   O18   A    
C24   C214  A    
C75   C151  A    
C29   C38   A    
C32   C41   A    
C172  C198  T    
C74   C87   A    
C37   C216  A    
C76   C89   A    
C24   C136  S    
C118  H83   S    
C164  O52   S    
C44   C65   A    
C97   C128  S    
C164  C190  S    
C85   C92   A    
O44   Zn5   S    
C46   C101  A    
C148  O58   A    
O4    Zn13  S    
C176  C202  T    
C191  C200  S    
C57   C113  A    
C80   O15   A    
O5    Zn16  S    
C137  N5    T    
C81   C151  S    
C51   H39   S    
C132  N1    T    
C123  C135  A    
C98   C131  S    
O26   Zn9   S    
C103  C128  A    
C86   C93   A    
C174  C192  S    
C24   C79   A    
C48   C62   A    
C153  C184  S    
C76   C150  A    
O18   Zn5   S    
C39   C208  S    
C148  C169  S    
O3    Zn12  S    
C152  C183  S    
C19   C28   A    
H10   O51   S    
C158  C163  S    
C6    C220  A    
C154  H86   S    
C156  C161  S    
C4    C218  A    
C6    H6    S    
C165  C179  S    
O59   Zn9   S    
H11   O52   S    
C8    C222  A    
C180  H96   S    
C100  C128  A    
C105  C115  A    
C207  O7    A    
C105  C130  A    
C72   C147  A    
C14   C22   A    
C95   C126  S    
O20   Zn7   S    
O35   Zn11  S    
C60   C69   A    
C177  C181  S    
O36   Zn12  S    
C126  C144  A    
C157  H89   S    
C30   C39   A    
C56   H44   S    
C37   C210  S    
C185  H100  S    
C91   C95   A    
C9    C18   A    
C135  C141  A    
C183  H98   S    
C113  C121  S    
H16   O57   S    
C102  H67   S    
C51   C60   A    
C163  O51   S    
O38   Zn14  S    
C80   O17   A    
C78   C149  S    
C161  O49   S    
O31   Zn1   S    
C143  C146  A    
O10   Zn6   S    
C187  C196  S    
C173  C199  T    
C215  H103  S    
C185  C194  S    
C152  C188  S    
C181  O46   A    
O43   Zn4   S    
C192  O47   A    
C183  C191  S    
C7    H7    S    
C82   O19   A    
C159  C171  S    
C163  C186  S    
C160  C164  S    
C77   H56   S    
C205  O5    A    
C33   H30   S    
C19   H13   S    
C167  C182  S    
C73   H52   S    
C104  H70   S    
O8    Zn4   S    
C146  H91   S    
C31   C40   A    
C57   C139  S    
C98   O29   A    
C103  C111  A    
O45   Zn10  S    
C28   H24   S    
C181  O2    A    
C203  O48   A    
C2    C79   A    
C168  C195  S    
C152  H84   S    
C15   C64   S    
C87   H62   S    
C166  C178  S    
C16   C63   S    
O1    Zn16  S    
C112  O56   A    
C154  C190  S    
C40   C207  S    
C99   O30   A    
C38   C217  A    
C135  H25   S    
C107  C130  A    
C167  O55   S    
C72   C85   A    
C106  C131  A    
C52   H40   S    
C2    C133  S    
C49   C61   A    
C75   H54   S    
C51   C63   A    
C164  C185  S    
C107  H73   S    
C88   H63   S    
C49   H37   S    
C195  C204  S    
O12   Zn2   S    
C219  H107  S    
C59   H46   S    
C106  C116  A    
O23   Zn12  S    
C208  O8    A    
C10   C19   A    
C163  C189  S    
C211  O11   A    
C70   C83   A    
C5    C14   A    
C178  C187  S    
C7    C16   A    
O33   Zn10  S    
C40   C219  A    
C86   H61   S    
C102  C110  A    
C13   C90   A    
C209  O36   A    
C3    H3    S    
C109  C119  A    
C50   H38   S    
C99   C130  S    
C73   C149  A    
C105  H71   S    
C106  H72   S    
C45   H33   S    
C108  H74   S    
C112  O41   A    
O6    Zn2   S    
C21   C30   A    
C1    C172  S    
C174  C200  T    
O60   Zn14  S    
C23   C32   A    
C216  H104  S    
C81   O20   A    
C175  C203  S    
C161  C187  S    
C111  H77   S    
C29   H26   S    
C162  C188  S    
C103  H68   S    
C71   C149  A    
C165  O53   S    
C188  C197  S    
C1    O45   A    
C123  C142  A    
C165  C191  S    
C144  H69   S    
C31   H28   S    
C4    H4    S    
C43   C52   A    
C160  H92   S    
C36   C211  S    
C78   O16   A    
H8    O49   S    
C89   H64   S    
C148  O42   A    
C99   O28   A    
C97   O24   A    
C115  H79   S    
C70   C147  A    
C23   H20   S    
C136  N4    T    
O23   Zn7   S    
C107  C117  A    
C114  C120  A    
C21   H18   S    
C205  O31   A    
C25   H21   S    
C189  C198  S    
C217  H105  S    
C48   H35   S    
C8    C66   S    
C50   C64   A    
C13   C134  S    
O28   Zn15  S    
C102  C129  A    
H15   O55   S    
C159  O59   A    
C77   C151  A    
C157  C191  S    
C126  C146  A    
O12   Zn4   S    
C83   C92   A    
C58   H45   S    
C54   H42   S    
C209  O9    A    
C17   C26   A    
C158  H90   S    
C56   C65   A    
O40   Zn16  S    
C71   H50   S    
C2    C13   A    
O21   Zn8   S    
C117  C121  A    
C18   H2    S    
O15   Zn2   S    
C6    C15   A    
O12   Zn9   S    
C58   C66   A    
C80   C147  S    
C28   C37   A    
C85   H60   S    
O11   Zn7   S    
O9    Zn5   S    
C155  C168  S    
C220  H108  S    
C46   C138  S    
C15   C23   A    
C112  C173  S    
C207  O33   A    
C124  C142  A    
C47   C67   A    
C26   C34   A    
C169  C196  T    
C20   C29   A    
C154  C185  S    
C155  H87   S    
C22   C31   A    
C184  H97   S    
C108  C118  A    
C186  C195  S    
C55   H43   S    
C175  C201  T    
C125  C141  A    
C14   C61   S    
C12   C21   A    
C49   C58   A    
C83   H57   S    
C162  C183  S    
C78   O14   A    
O58   Zn1   S    
C53   C62   A    
C9    C223  A    
C222  H110  S    
C1    O40   A    
C3    C217  A    
C55   C64   A    
C212  O39   A    
C60   H48   S    
O56   Zn11  S    
C212  O13   A    
O23   Zn5   S    
C82   C150  S    
C34   C212  S    
C104  C114  A    
C45   C54   A    
C46   C57   A    
C167  C194  S    
C5    H5    S    
C132  C214  S    
C47   C55   A    
C71   C84   A    
C43   H31   S    
C48   C56   A    
O17   Zn4   S    
C143  H58   S    
O34   Zn8   S    
C179  H93   S    
C18   C27   A    
C155  C186  S    
C215  C223  A    
C206  O32   A    
C158  C195  S    
O2    Zn15  S    
C170  O60   A    
C90   C119  S    
C156  C193  S    
C171  C197  T    
O12   Zn11  S    
O46   Zn6   S    
C203  O4    A    
O1    Zn1   S    
C38   C209  S    
C178  H94   S    
C73   C86   A    
C82   O21   A    
C75   C88   A    
O1    Zn3   S    
O14   Zn16  S    
C160  C194  S    
C25   C33   A    
C74   C150  A    
C159  O43   A    
C162  O50   S    
C124  C125  A    
