data_mof_unit_37761.cif
_audit_creation_date              2012-12-11T16:07:29-0500
_audit_creation_method            fapswitch 2.2
_symmetry_space_group_name_H-M    P1
_symmetry_Int_Tables_number       1
_space_group_crystal_system       triclinic
_cell_length_a                    6.943665
_cell_length_b                    14.493692
_cell_length_c                    15.860209
_cell_angle_alpha                 90.264023
_cell_angle_beta                  89.881169
_cell_angle_gamma                 89.437885
_cell_volume                      1596.0636499

loop_
_atom_site_label
_atom_site_type_symbol
_atom_type_description
_atom_site_fract_x
_atom_site_fract_y
_atom_site_fract_z
_atom_type_partial_charge
O1    O     O_R   0.494320 0.415010 0.412140 -0.544591
O2    O     O_R   0.824010 0.404260 0.587250 -0.549613
O3    O     O_R   0.994320 0.584990 0.587860 -0.532505
C1    C     C_R   0.655314 0.379051 0.613879 0.819028
O4    O     O_R   0.824040 0.403870 0.412760 -0.524438
O5    O     O_R   0.994350 0.584590 0.412130 -0.556950
C2    C     C_R   0.655968 0.382022 0.383254 0.753337
O6    O     O_R   0.494300 0.415410 0.587870 -0.548464
O7    O     O_3   0.660800 0.559290 0.500000 -0.357694
V1    V     V_3+5 0.935650 0.489000 0.500000 1.490303
O8    O     O_R   0.324060 0.595740 0.412750 -0.483613
C3    C     C_R   0.154699 0.617729 0.383510 0.743367
O9    O     O_R   0.324040 0.596130 0.587240 -0.534769
C4    C     C_R   0.154578 0.618845 0.615718 0.717770
V2    V     V_3+5 0.435660 0.511000 0.500000 1.551927
O10   O     O_3   0.160640 0.440710 0.500000 -0.380281
C5    C     C_3   0.015608 0.685385 0.763578 0.101857
C6    C     C_3   0.183604 0.711779 0.821615 -0.289627
H1    H     H_    0.224217 0.677472 0.881548 0.181315
C7    C     C_3   0.126133 0.814478 0.810041 -0.178045
C8    C     C_3   0.956788 0.786969 0.753202 0.693195
C9    C     C_3   0.087176 0.793696 0.673943 -0.257944
C10   C     C_3   0.259199 0.822208 0.731591 -0.134752
C11   C     C_3   0.309841 0.718959 0.742130 0.220007
C12   C     C_3   0.143476 0.690353 0.684890 -0.120221
H2    H     H_    0.045593 0.827176 0.613778 0.172641
H3    H     H_    0.363840 0.877950 0.719070 0.231850
C13   C     C_3   0.219979 0.853258 0.264991 0.349351
H4    H     H_    0.362016 0.882569 0.247923 0.094349
C14   C     C_3   0.248329 0.780209 0.336403 0.699110
C15   C     C_3   0.240151 0.721061 0.156353 0.609451
C16   C     C_3   0.920027 0.777454 0.212868 -0.339209
C17   C     C_3   0.124288 0.809464 0.185625 -0.221718
H5    H     H_    0.848977 0.742125 0.159102 0.208891
H6    H     H_    0.827894 0.837918 0.230232 0.221550
C18   C     C_3   0.144298 0.687170 0.311529 -0.276346
C19   C     C_3   0.246051 0.646655 0.229571 0.689111
C20   C     C_3   0.930455 0.710937 0.288519 -0.478513
H7    H     H_    0.852989 0.742068 0.342984 0.242516
H8    H     H_    0.847526 0.647777 0.273906 0.227627
C21   C     C_3   0.497082 0.230554 0.662893 -0.496731
H9    H     H_    0.349992 0.261510 0.659857 0.174459
H10   H     H_    0.523602 0.201058 0.599210 0.187894
C22   C     C_3   0.500863 0.152854 0.730690 1.113815
H11   H     H_    0.430762 0.387308 0.752315 0.145487
C23   C     C_3   0.573330 0.355534 0.767434 -0.060076
C24   C     C_3   0.847697 0.259809 0.700661 -0.009496
C25   C     C_3   0.646000 0.307346 0.684064 -0.188659
H12   H     H_    0.954573 0.313904 0.716093 0.102205
C26   C     C_3   0.620433 0.184939 0.809614 -0.273166
C27   C     C_3   0.543810 0.282722 0.841265 0.242523
C28   C     C_3   0.834308 0.194485 0.777858 0.490816
H13   H     H_    0.927021 0.221826 0.828608 0.057283
C29   C     C_3   0.522783 0.347649 0.238942 -0.484341
H14   H     H_    0.376936 0.368897 0.261350 0.201363
H15   H     H_    0.591196 0.410305 0.212355 0.184871
C30   C     C_3   0.501108 0.273608 0.168527 -0.351634
H16   H     H_    0.550007 0.302810 0.107433 0.168054
H17   H     H_    0.346205 0.256614 0.160911 0.199652
H18   H     H_    0.392541 0.242460 0.358676 0.186598
C31   C     C_3   0.544346 0.220740 0.345643 0.081475
C32   C     C_3   0.848816 0.286131 0.276534 0.495443
C33   C     C_3   0.645893 0.309890 0.313550 -0.062452
H19   H     H_    0.915750 0.350607 0.252933 0.053049
C34   C     C_3   0.620271 0.184993 0.189417 -0.007384
C35   C     C_3   0.540503 0.142822 0.274975 0.324149
C36   C     C_3   0.832551 0.217577 0.202197 -0.398011
H20   H     H_    0.882952 0.252184 0.143706 0.121141
H21   H     H_    0.933277 0.158529 0.211480 0.203257
O11   O     O_R   0.771990 0.083520 0.910980 -0.526407
O12   O     O_R   0.442180 0.095020 0.086060 -0.550749
O13   O     O_R   0.271950 0.914280 0.086680 -0.553140
C37   C     C_R   0.610492 0.116581 0.116054 0.660798
O14   O     O_R   0.442270 0.094630 0.911580 -0.502192
O15   O     O_R   0.272040 0.913890 0.910940 -0.533985
C38   C     C_R   0.610507 0.114715 0.880814 0.900392
O16   O     O_R   0.771900 0.083910 0.086710 -0.554854
O17   O     O_3   0.605520 0.939610 0.998840 -0.374888
V3    V     V_3+5 0.330640 0.009880 0.998810 1.569531
O18   O     O_R   0.942330 0.902710 0.911540 -0.514266
C39   C     C_R   0.112032 0.882545 0.881346 0.843126
O19   O     O_R   0.942240 0.903100 0.086030 -0.553400
C40   C     C_R   0.111618 0.880455 0.114867 0.816625
V4    V     V_3+5 0.830640 0.987830 0.998780 1.565646
O20   O     O_3   0.105630 0.058150 0.998800 -0.376807
F1    F     F_    0.444713 0.763647 0.344302 -0.666749
N1    N     N_3   0.434964 0.745667 0.128691 -0.633875
H22   H     H_    0.517145 0.766791 0.180079 0.226345
H23   H     H_    0.502174 0.687183 0.102706 0.277076
F2    F     F_    0.436126 0.624649 0.248870 -0.676810
F3    F     F_    0.147013 0.684974 0.086169 -0.699989
N2    N     N_3   0.157907 0.559983 0.200789 -0.601682
H24   H     H_    0.158883 0.511533 0.249373 0.195344
H25   H     H_    0.015623 0.569996 0.181563 0.231717
N3    N     N_3   0.890153 0.608830 0.781871 -0.623906
H26   H     H_    0.844363 0.616597 0.844341 0.235282
H27   H     H_    0.977960 0.549936 0.780339 0.231785
F4    F     F_    0.582298 0.073657 0.695852 -0.624432
F5    F     F_    0.314212 0.130112 0.752632 -0.628702
N4    N     N_3   0.336508 0.277056 0.861773 -0.595108
H28   H     H_    0.252724 0.276808 0.807253 0.228997
H29   H     H_    0.292955 0.336611 0.894397 0.213446
N5    N     N_3   0.925104 0.208999 0.627051 -0.536846
H30   H     H_    0.951337 0.252875 0.576515 0.239883
H31   H     H_    0.831180 0.157811 0.606768 0.305974
F6    F     F_    0.912520 0.108275 0.758426 -0.552502
N6    N     N_3   0.696711 0.433090 0.790164 -0.651074
H32   H     H_    0.629434 0.472471 0.837322 0.252443
H33   H     H_    0.830252 0.410348 0.812111 0.211428
F7    F     F_    0.775665 0.826616 0.759396 -0.681121
N7    N     N_3   0.643141 0.308207 0.920412 -0.682569
H34   H     H_    0.589449 0.370779 0.944129 0.238713
H35   H     H_    0.791457 0.314663 0.913749 0.199507
N8    N     N_3   0.338529 0.114723 0.264096 -0.633341
H36   H     H_    0.331697 0.055793 0.226210 0.251320
H37   H     H_    0.283571 0.094509 0.322592 0.302154
F8    F     F_    0.971819 0.250536 0.337135 -0.702676
N9    N     N_3   0.619538 0.189404 0.427378 -0.688915
H38   H     H_    0.537541 0.133651 0.447922 0.271378
H39   H     H_    0.762277 0.167143 0.422925 0.309526
N10   N     N_3   0.653588 0.060743 0.300609 -0.627404
H40   H     H_    0.649276 0.010350 0.253284 0.216530
H41   H     H_    0.798140 0.076527 0.309967 0.283412
N11   N     N_3   0.500951 0.678334 0.737245 -0.594697
H42   H     H_    0.571507 0.698898 0.792040 0.285833
H43   H     H_    0.571169 0.707475 0.685645 0.283710
F9    F     F_    0.107777 0.927158 0.292994 -0.702603
N12   N     N_3   0.182341 0.818164 0.417875 -0.554657
H44   H     H_    0.217282 0.772503 0.466437 0.203672
H45   H     H_    0.033704 0.829077 0.418846 0.237907

loop_
_geom_bond_atom_site_label_1
_geom_bond_atom_site_label_2
_ccdc_geom_bond_type
N1    H22   S    
N6    H33   S    
C21   H9    S    
N3    H26   S    
O18   V4    S    
N12   H44   S    
O12   V3    S    
C8    F7    S    
C24   H12   S    
H11   C23   S    
O14   C38   A    
C19   F2    S    
C6    C11   S    
N11   H43   S    
C18   C19   S    
O13   V3    S    
O5    C3    A    
C20   H7    S    
C22   F5    S    
C30   H17   S    
C29   C33   S    
V2    O10   S    
C11   N11   S    
C34   C37   S    
C6    H1    S    
C31   C33   S    
N9    H38   S    
N4    H28   S    
C32   F8    S    
C32   H19   S    
O9    C4    A    
O8    V2    S    
C31   C35   S    
N7    H34   S    
C13   C14   S    
C34   C36   S    
C9    C12   S    
C26   C28   S    
N6    H32   S    
C15   C17   S    
C5    N3    S    
C16   C20   S    
C3    C18   S    
O11   V4    S    
O7    V1    S    
C13   F9    S    
C1    O6    A    
C28   F6    S    
C8    C9    S    
C21   H10   S    
C22   F4    S    
N4    H29   S    
C26   C27   S    
C14   N12   S    
C29   H15   S    
C15   N1    S    
C36   H20   S    
C16   H6    S    
C24   N5    S    
V4    O20   S    
N5    H31   S    
O4    C2    A    
O17   V3    S    
O15   C39   A    
O16   V4    S    
C23   C27   S    
C5    C8    S    
C15   C19   S    
H18   C31   S    
C36   H21   S    
C16   H5    S    
O2    C1    A    
C32   C33   S    
C26   C38   S    
C24   C25   S    
C7    C10   S    
C10   C11   S    
C23   N6    S    
N2    H25   S    
C5    C6    S    
C35   N10   S    
N7    H35   S    
C11   C12   S    
C17   C40   S    
C2    C33   S    
N10   H40   S    
O3    C4    A    
O1    V2    S    
C32   C36   S    
C13   C17   S    
O19   C40   A    
O6    V2    S    
C10   H3    S    
O14   V3    S    
N1    H23   S    
O11   C38   A    
C21   C22   S    
C14   F1    S    
O2    V1    S    
V3    O20   S    
C28   H13   S    
O12   C37   A    
C1    C25   S    
C22   C26   S    
C27   N4    S    
C29   H14   S    
C13   H4    S    
C27   N7    S    
C35   N8    S    
C19   N2    S    
C31   N9    S    
O1    C2    A    
C15   F3    S    
C30   C34   S    
O18   C39   A    
N12   H45   S    
O5    V1    S    
N8    H37   S    
O8    C3    A    
N3    H27   S    
N8    H36   S    
C24   C28   S    
O19   V4    S    
C14   C18   S    
C5    C12   S    
C16   C17   S    
O9    V2    S    
O7    V2    S    
O4    V1    S    
O3    V1    S    
V1    O10   S    
C20   H8    S    
C30   H16   S    
C18   C20   S    
N2    H24   S    
C21   C25   S    
C6    C7    S    
C4    C12   S    
N9    H39   S    
N10   H41   S    
O13   C40   A    
C23   C25   S    
O17   V4    S    
C7    C8    S    
C34   C35   S    
C9    H2    S    
N5    H30   S    
C37   O16   A    
C9    C10   S    
C7    C39   S    
O15   V3    S    
N11   H42   S    
C29   C30   S    
