data_mof_unit_28871.cif
_audit_creation_date              2012-12-11T19:16:26-0500
_audit_creation_method            fapswitch 2.2
_symmetry_space_group_name_H-M    P1
_symmetry_Int_Tables_number       1
_space_group_crystal_system       triclinic
_cell_length_a                    8.456329
_cell_length_b                    15.474396
_cell_length_c                    18.754853
_cell_angle_alpha                 103.800745
_cell_angle_beta                  91.306696
_cell_angle_gamma                 100.3887
_cell_volume                      2338.70416221

loop_
_atom_site_label
_atom_site_type_symbol
_atom_type_description
_atom_site_fract_x
_atom_site_fract_y
_atom_site_fract_z
_atom_type_partial_charge
Ba1   Ba    Ba6+2 0.853510 0.540900 0.466480 1.890192
Ba2   Ba    Ba6+2 0.336320 0.459170 0.533530 1.869155
C1    C     C_3   0.767725 0.858040 0.319057 0.446103
C2    C     C_R   0.914732 0.390390 0.086277 -0.061193
C3    C     C_R   0.785432 0.402826 0.944104 -0.067887
C4    C     C_3   0.088472 0.731926 0.263019 0.726676
C5    C     C_R   0.947399 0.439617 0.970011 0.055188
C6    C     C_R   0.727239 0.404673 0.875043 -0.096082
C7    C     C_R   0.826157 0.444523 0.828345 -0.086443
C8    C     C_R   0.988669 0.485608 0.852964 0.001399
C9    C     C_R   0.049390 0.482705 0.924200 0.053096
C10   C     C_R   0.762836 0.450869 0.760236 -0.068383
C11   C     C_R   0.860418 0.504286 0.720982 0.168985
C12   C     C_3   0.665580 0.763110 0.295142 0.255294
C13   C     C_R   0.027059 0.535421 0.736939 -0.003861
C14   C     C_R   0.088973 0.531382 0.807429 -0.097387
C15   C     C_R   0.168506 0.479481 0.066872 0.026811
C16   C     C_3   0.019567 0.747531 0.189469 0.230150
C17   C     C_R   0.226310 0.481789 0.140068 -0.043480
C18   C     C_R   0.120733 0.443566 0.187967 -0.091118
C19   C     C_R   0.969633 0.392278 0.156986 0.675712
C20   C     C_R   0.242908 0.577796 0.836753 0.058793
C21   C     C_R   0.303165 0.573366 0.905316 -0.067832
C22   C     C_R   0.210713 0.523918 0.949534 0.011176
C23   C     C_3   0.503764 0.268310 0.297837 0.983205
C24   C     C_R   0.272318 0.518256 0.019537 -0.025161
C25   C     C_R   0.436730 0.547283 0.042752 -0.078241
C26   C     C_R   0.390250 0.520397 0.164161 0.027326
C27   C     C_R   0.495072 0.547860 0.112696 0.608314
C28   C     C_3   0.208813 0.745394 0.626795 0.300445
C29   C     C_R   0.442930 0.530571 0.238546 0.162591
C30   C     C_R   0.333760 0.496820 0.286253 -0.176546
C31   C     C_R   0.172722 0.454333 0.263276 -0.019501
C32   C     C_R   0.345435 0.817722 0.449559 0.072211
C33   C     C_R   0.584199 0.790875 0.513363 0.000127
C34   C     C_3   0.419426 0.212589 0.222666 0.601556
C35   C     C_R   0.751651 0.230796 0.531056 -0.236828
C36   C     C_R   0.851005 0.175254 0.549479 -0.005901
C37   C     C_R   0.796135 0.081425 0.535985 -0.004822
C38   C     C_R   0.639608 0.040734 0.503560 0.054271
C39   C     C_R   0.545952 0.098286 0.478344 -0.081726
C40   C     C_3   0.160108 0.838200 0.646912 -0.248258
C41   C     C_R   0.574273 0.944861 0.493856 0.082358
C42   C     C_R   0.416942 0.910028 0.458403 -0.048899
C43   C     C_R   0.331997 0.968293 0.432888 -0.001182
C44   C     C_R   0.395581 0.059278 0.441713 -0.009051
C45   C     C_3   0.050316 0.272526 0.725485 0.373765
C46   C     C_R   0.654867 0.883648 0.521585 0.064211
C47   C     C_R   0.431143 0.759389 0.475626 -0.247000
C48   C     C_R   0.604438 0.193871 0.490584 0.007779
C49   C     C_3   0.963436 0.258604 0.371965 0.785452
C50   C     C_3   0.875623 0.160191 0.346934 0.333234
C51   C     C_3   0.597379 0.754929 0.705753 0.206955
C52   C     C_3   0.563542 0.844031 0.752292 0.272613
C53   C     C_3   0.070122 0.249366 0.799170 -0.297254
C54   C     C_3   0.568178 0.233677 0.714390 0.237642
C55   C     C_3   0.468887 0.138726 0.687177 0.328838
C56   C     C_R   0.007863 0.437360 0.041116 -0.058840
F1    F     F_    0.873208 0.307354 0.420642 -0.759852
F2    F     F_    0.833333 0.875446 0.390017 -0.700579
F3    F     F_    0.664036 0.294985 0.289024 -0.615134
F4    F     F_    0.876114 0.336800 0.191419 -0.579685
F5    F     F_    0.656222 0.575314 0.127984 -0.727619
H1    H     H_    0.597283 0.753781 0.343193 0.108903
H2    H     H_    0.675303 0.896652 0.761276 0.150640
H3    H     H_    0.470001 0.865023 0.722972 0.104659
H4    H     H_    0.596294 0.763087 0.245169 0.117059
H5    H     H_    0.690644 0.908734 0.318292 0.069950
H6    H     H_    0.447674 0.328585 0.318259 -0.316225
H7    H     H_    0.288929 0.199899 0.230046 -0.031899
H8    H     H_    0.863434 0.867396 0.281333 0.135681
H9    H     H_    0.037252 0.690742 0.143287 0.034167
H10   H     H_    0.118618 0.342274 0.729929 0.036736
H11   H     H_    0.920191 0.270071 0.713368 -0.070834
H12   H     H_    0.223675 0.881050 0.699119 0.174274
H13   H     H_    0.015993 0.295430 0.842147 0.055613
H14   H     H_    0.008567 0.178546 0.795428 0.172346
H15   H     H_    0.199919 0.256782 0.815344 0.137758
H16   H     H_    0.646264 0.238645 0.764197 0.029884
H17   H     H_    0.645410 0.247833 0.669742 -0.072045
H18   H     H_    0.434523 0.125093 0.627465 0.023412
H19   H     H_    0.033846 0.662200 0.266198 -0.026234
H20   H     H_    0.356534 0.131480 0.716627 0.093730
H21   H     H_    0.600931 0.377132 0.860185 0.096237
H22   H     H_    0.318981 0.619543 0.807704 0.152241
H23   H     H_    0.188545 0.873621 0.602495 0.083952
H24   H     H_    0.375057 0.504518 0.342844 0.034094
H25   H     H_    0.697234 0.374140 0.976712 0.105321
H26   H     H_    0.798854 0.347933 0.067645 0.157895
H27   H     H_    0.421968 0.612673 0.923515 0.092535
H28   H     H_    0.525589 0.568133 0.006808 0.099681
H29   H     H_    0.373779 0.689594 0.470431 0.048856
H30   H     H_    0.213246 0.944859 0.405413 0.164753
H31   H     H_    0.769672 0.907371 0.552736 0.099744
H32   H     H_    0.795747 0.303210 0.542922 0.112876
H33   H     H_    0.878517 0.041857 0.550745 0.097357
H34   H     H_    0.029531 0.831100 0.654574 0.143385
H35   H     H_    0.322211 0.099234 0.420846 0.155305
H36   H     H_    0.889354 0.744664 0.185504 0.071336
H37   H     H_    0.332826 0.754903 0.609289 -0.122477
H38   H     H_    0.130427 0.703495 0.578367 0.053891
H39   H     H_    0.028486 0.105339 0.162576 0.393485
H40   H     H_    0.559432 0.777111 0.928163 0.371536
H41   H     H_    0.211845 0.220531 0.095656 0.362976
H42   H     H_    0.423942 0.999594 0.090693 0.403713
H43   H     H_    0.617327 0.104749 0.821610 0.347342
H44   H     H_    0.913902 0.678354 0.647732 0.347957
H45   H     H_    0.081260 0.261161 0.399413 -0.027843
H46   H     H_    0.428716 0.865634 0.244103 0.406992
H47   H     H_    0.220550 0.792866 0.069800 0.348723
H48   H     H_    0.749524 0.156956 0.328093 0.109456
H49   H     H_    0.875030 0.127225 0.393350 -0.106867
H50   H     H_    0.648849 0.725962 0.746793 0.201981
H51   H     H_    0.489297 0.707896 0.677746 0.056168
O1    O     O_2   0.871970 0.437290 0.322980 -0.311339
O2    O     O_2   0.178635 0.181079 0.534290 -0.493264
O3    O     O_3   0.110725 0.209857 0.671082 -0.571235
O4    O     O_3   0.121420 0.444460 0.412460 -0.505292
O5    O     O_3   0.580410 0.613230 0.540280 -0.431553
O6    O     O_2   0.337420 0.273080 0.457680 -0.485070
O7    O     O_3   0.489435 0.211660 0.346263 -0.665874
O8    O     O_2   0.429303 0.458602 0.757255 -0.451986
O9    O     O_3   0.460886 0.292995 0.733368 -0.629385
O10   O     O_3   0.661430 0.607560 0.372520 -0.487625
O11   O     O_2   0.772492 0.528638 0.251707 -0.406763
O12   O     O_3   0.718656 0.771165 0.658009 -0.630599
O13   O     O_3   0.985623 0.293202 0.309903 -0.522339
O14   O     O_3   0.754635 0.695445 0.271506 -0.627362
O15   O     O_2   0.852280 0.726960 0.542370 -0.476070
O16   O     O_3   0.083990 0.657360 0.410240 -0.496659
O17   O     O_2   0.025790 0.817682 0.470157 -0.444401
O18   O     O_2   0.132036 0.090119 0.301958 -0.294389
O19   O     O_2   0.866590 0.006296 0.244183 -0.248022
O20   O     O_3   0.991594 0.149462 0.203111 -0.431655
O21   O     O_2   0.518605 0.929715 0.890751 -0.191115
O22   O     O_2   0.318057 0.794548 0.833200 -0.278234
O23   O     O_3   0.062949 0.795532 0.328197 -0.559142
O24   O     O_3   0.598338 0.772925 0.878259 -0.530423
O25   O     O_2   0.551303 0.364298 0.180188 -0.290079
O26   O     O_2   0.529740 0.221821 0.087931 -0.204959
O27   O     O_3   0.268462 0.283202 0.118849 -0.562000
O28   O     O_2   0.650805 0.117111 0.174800 -0.173898
O29   O     O_2   0.454791 0.051346 0.250624 -0.241398
O30   O     O_3   0.361122 0.044404 0.116436 -0.429340
O31   O     O_2   0.506512 0.968734 0.650209 -0.384344
O32   O     O_2   0.753216 0.081993 0.692287 -0.352608
O33   O     O_3   0.554231 0.047593 0.790200 -0.473319
O34   O     O_2   0.317740 0.562750 0.677070 -0.440835
O35   O     O_2   0.750961 0.520259 0.595978 -0.282820
O36   O     O_2   0.605788 0.575068 0.702236 -0.308213
O37   O     O_3   0.880301 0.670642 0.695725 -0.557033
O38   O     O_2   0.339486 0.681526 0.305647 -0.489429
O39   O     O_2   0.332701 0.699704 0.179010 -0.391752
O40   O     O_3   0.386685 0.846161 0.287754 -0.554133
O41   O     O_2   0.981902 0.879418 0.122926 -0.222322
O42   O     O_2   0.157969 0.923946 0.235821 -0.141416
O43   O     O_3   0.265309 0.837526 0.116167 -0.445350
O44   O     O_3   0.068290 0.555610 0.587550 -0.481101
O45   O     O_3   0.528280 0.392520 0.627490 -0.405708
O46   O     O_3   0.202784 0.708793 0.689329 -0.584765
O47   O     O_3   0.609300 0.386850 0.459730 -0.376142
O48   O     O_3   0.105720 0.342720 0.589770 -0.490376
P1    P     P_3+3 0.039440 0.410950 0.333260 1.201236
P2    P     P_3+3 0.676740 0.714970 0.563520 1.064332
P3    P     P_3+3 0.130956 0.772056 0.411959 1.106559
P4    P     P_3+3 0.150270 0.589130 0.666750 1.068074
P5    P     P_3+3 0.060330 0.226621 0.585135 0.990456
P6    P     P_3+3 0.651014 0.590199 0.278972 1.135726
P7    P     P_3+3 0.517331 0.268814 0.439659 1.067943
P8    P     P_3+3 0.548516 0.398799 0.721937 1.045349
S1    S     S_3+6 0.969995 0.098180 0.272892 0.010290
S2    S     S_3+6 0.494288 0.836022 0.840786 -0.039421
S3    S     S_3+6 0.448833 0.272180 0.150937 -0.027981
S4    S     S_3+6 0.477139 0.103768 0.192531 0.077316
S5    S     S_3+6 0.577139 0.056793 0.703402 -0.160911
S6    S     S_3+6 0.767224 0.566979 0.675685 -0.093190
S7    S     S_3+6 0.293421 0.737232 0.256650 -0.187247
S8    S     S_3+6 0.105828 0.851230 0.166692 0.038548

loop_
_geom_bond_atom_site_label_1
_geom_bond_atom_site_label_2
_ccdc_geom_bond_type
C11   S6    S    
O7    P7    S    
C27   F5    S    
C34   S4    S    
C4    H19   S    
O45   P8    S    
C25   C27   A    
O34   P4    D    
O36   S6    D    
C1    H5    S    
C43   H30   S    
Ba2   O48   S    
H42   O30   S    
O23   P3    S    
Ba2   O4    S    
O28   S4    D    
C52   H2    S    
C51   C52   S    
C51   H51   S    
C28   O46   S    
C40   H12   S    
C54   H16   S    
C46   H31   S    
C15   C24   A    
C26   C27   A    
C31   P1    S    
C22   C24   A    
Ba1   O15   S    
C50   S1    S    
C36   C37   A    
C53   H14   S    
O33   S5    S    
O6    P7    D    
C50   H49   S    
Ba2   O34   S    
C13   C14   A    
C28   H37   S    
C9    C22   A    
C12   O14   S    
C54   C55   S    
C35   H32   S    
Ba1   Ba2   S    
Ba1   O5    S    
C20   H22   S    
O38   S7    D    
C15   C17   A    
C55   S5    S    
C3    H25   S    
O42   S8    D    
C38   C41   A    
O31   S5    D    
Ba1   P2    S    
C34   H7    S    
C6    C7    A    
O8    P8    D    
C33   C47   A    
O13   P1    S    
C39   C44   A    
C55   H20   S    
C13   P4    S    
C25   H28   S    
C40   H23   S    
O18   S1    D    
O46   P4    S    
C32   P3    S    
C41   C46   A    
Ba2   P4    S    
C5    C56   A    
O41   S8    D    
Ba2   O44   S    
C15   C56   A    
Ba1   O4    S    
O47   P7    S    
C1    F2    S    
C44   H35   S    
Ba1   O47   S    
C34   S3    S    
O10   P6    S    
O27   S3    S    
O12   P2    S    
C33   C46   A    
Ba2   O47   S    
C51   H50   S    
C16   H9    S    
C36   P5    S    
C4    C16   S    
O17   P3    D    
O39   S7    D    
O4    P1    S    
O24   S2    S    
C49   C50   S    
C54   O9    S    
C52   S2    S    
O11   P6    D    
C32   C42   A    
C45   H10   S    
Ba1   O16   S    
C51   O12   S    
C40   H34   S    
C37   C38   A    
C3    C5    A    
C53   H15   S    
Ba2   O6    S    
Ba2   O45   S    
C10   P8    S    
C23   C34   S    
C50   H48   S    
C43   C44   A    
C30   H24   S    
H43   O33   S    
O15   P2    D    
C5    C9    A    
C41   C42   A    
H39   O20   S    
C35   C36   A    
H46   O40   S    
C29   C30   A    
O22   S2    D    
C12   H4    S    
H41   O27   S    
C12   H1    S    
O32   S5    D    
C18   C19   A    
C24   C25   A    
C21   H27   S    
O2    P5    D    
C23   F3    S    
O21   S2    D    
C10   C11   A    
C2    C19   A    
C17   C26   A    
H47   O43   S    
C16   S8    S    
C19   F4    S    
C1    C12   S    
C53   H13   S    
C38   C39   A    
C49   H45   S    
O20   S1    S    
C11   C13   A    
C4    S7    S    
C55   H18   S    
H40   O24   S    
C49   F1    S    
C16   H36   S    
C18   C31   A    
C47   H29   S    
C2    C56   A    
O3    P5    S    
C39   C48   A    
C42   C43   A    
O44   P4    S    
C45   C53   S    
C2    H26   S    
C7    C8    A    
Ba1   O44   S    
C32   C47   A    
C14   C20   A    
O37   S6    S    
C6    H21   S    
C26   C29   A    
C45   H11   S    
O5    P2    S    
C3    C6    A    
Ba2   O5    S    
C1    H8    S    
C52   H3    S    
C33   P2    S    
C54   H17   S    
O35   S6    D    
C49   O13   S    
C30   C31   A    
C17   C18   A    
O19   S1    D    
Ba1   O10   S    
H44   O37   S    
C8    C14   A    
C35   C48   A    
O16   P3    S    
C4    O23   S    
C28   H38   S    
O26   S3    D    
C48   P7    S    
O43   S8    S    
O1    P1    D    
C7    C10   A    
C37   H33   S    
O9    P8    S    
O25   S3    D    
C8    C9    A    
C21   C22   A    
O48   P5    S    
C45   O3    S    
C23   H6    S    
C29   P6    S    
Ba1   P1    S    
O40   S7    S    
O30   S4    S    
O14   P6    S    
C20   C21   A    
C28   C40   S    
Ba1   O1    S    
O29   S4    D    
C23   O7    S    
