data_mof_unit_50562.cif
_audit_creation_date              2012-10-26T19:35:15-0400
_audit_creation_method            fapswitch 2.2
_symmetry_space_group_name_H-M    P1
_symmetry_Int_Tables_number       1
_space_group_crystal_system       triclinic
_cell_length_a                    10.865874
_cell_length_b                    10.835902
_cell_length_c                    9.554226
_cell_angle_alpha                 90.779287
_cell_angle_beta                  91.013473
_cell_angle_gamma                 91.136761
_cell_volume                      1124.42246855

loop_
_atom_site_label
_atom_site_type_symbol
_atom_type_description
_atom_site_fract_x
_atom_site_fract_y
_atom_site_fract_z
_atom_type_partial_charge
C1    C     C_R   0.497312 0.262350 0.499189 0.559456
C2    C     C_R   0.479527 0.933582 0.371474 -0.148411
C3    C     C_R   0.486606 0.870771 0.499338 0.006262
C4    C     C_R   0.262391 0.507455 0.499799 0.556213
C5    C     C_R   0.476305 0.938134 0.623877 0.030908
C6    C     C_3   0.555173 0.937329 0.753325 -0.270207
C7    C     C_3   0.551506 0.077066 0.753694 -0.266557
C8    C     C_R   0.548850 0.597743 0.076278 0.141083
C9    C     C_R   0.433064 0.414312 0.070213 0.347775
C10   C     C_R   0.435651 0.413099 0.921763 0.037023
C11   C     C_R   0.546845 0.599109 0.929292 0.149473
C12   C     C_R   0.064320 0.523691 0.629440 -0.014717
C13   C     C_3   0.674206 0.652493 0.927677 -0.274474
C14   C     C_3   0.676689 0.648591 0.086466 -0.271028
C15   C     C_R   0.498289 0.737726 0.500417 0.544882
C16   C     C_R   0.737438 0.489551 0.501485 0.538102
C17   C     C_R   0.119410 0.571292 0.754669 -0.052779
C18   C     C_R   0.065212 0.549984 0.883219 0.254408
C19   C     C_R   0.956123 0.480768 0.888266 -0.098895
C20   C     C_R   0.893218 0.448221 0.763830 -0.150695
C21   C     C_R   0.940925 0.482764 0.633068 0.016118
C22   C     C_R   0.127869 0.512629 0.501602 -0.006886
C23   C     C_R   0.061578 0.486852 0.377462 -0.104714
C24   C     C_R   0.934422 0.476703 0.378393 -0.141332
C25   C     C_R   0.871976 0.477700 0.505512 -0.003905
C26   C     C_R   0.474694 0.065293 0.622961 0.028936
C27   C     C_R   0.484873 0.129100 0.497601 0.012698
C28   C     C_R   0.479193 0.062164 0.370631 -0.133757
Cl1   Cl    Cl    0.334918 0.306142 0.148674 -0.601779
Cl2   Cl    Cl    0.136709 0.607930 0.036952 -0.636813
Cu1   Cu    Cu3+1 0.499990 0.499980 0.640670 0.943159
Cu2   Cu    Cu3+1 0.500010 0.500020 0.359330 1.038308
H1    H     H_    0.107936 0.474756 0.279303 0.226833
H2    H     H_    0.203233 0.626708 0.754295 0.170373
H3    H     H_    0.916839 0.457363 0.988067 0.126536
H4    H     H_    0.808250 0.395428 0.771660 0.142319
H5    H     H_    0.885294 0.466003 0.279283 0.137126
H6    H     H_    0.481256 0.108387 0.271000 0.181320
H7    H     H_    0.480745 0.884271 0.272132 0.148471
H8    H     H_    0.506769 0.895433 0.843133 0.152116
H9    H     H_    0.648560 0.902085 0.732584 0.134969
H10   H     H_    0.499175 0.115922 0.842425 0.154229
H11   H     H_    0.642839 0.121933 0.736364 0.139117
H12   H     H_    0.384824 0.342311 0.862867 0.152231
H13   H     H_    0.739164 0.589933 0.878396 0.160179
H14   H     H_    0.677730 0.747730 0.887884 0.125857
H15   H     H_    0.743200 0.581445 0.128642 0.148348
H16   H     H_    0.680923 0.741674 0.136866 0.138634
N1    N     N_R   0.500790 0.500930 0.147930 -0.221845
N2    N     N_R   0.500790 0.500890 0.852020 -0.270470
O1    O     O_R   0.500000 0.319640 0.618810 -0.522225
O2    O     O_R   0.500010 0.319680 0.381230 -0.460407
O3    O     O_R   0.319640 0.499980 0.618820 -0.519528
O4    O     O_R   0.319650 0.500020 0.381230 -0.431912
O5    O     O_R   0.499990 0.680320 0.618770 -0.499976
O6    O     O_R   0.500000 0.680360 0.381190 -0.504982
O7    O     O_R   0.680350 0.499980 0.618770 -0.517264
O8    O     O_R   0.680360 0.500020 0.381180 -0.517907

loop_
_geom_bond_atom_site_label_1
_geom_bond_atom_site_label_2
_ccdc_geom_bond_type
C12   C17   A    
C2    C28   A    
C23   C24   A    
C6    C7    S    
C18   Cl2   S    
C9    Cl1   S    
C4    O3    A    
C4    C22   S    
C9    C10   A    
C2    H7    S    
C19   C20   A    
C28   H6    S    
Cu2   O8    S    
C3    C5    A    
Cu1   O5    S    
C15   O6    A    
Cu1   O7    S    
C2    C3    A    
C3    C15   S    
C11   N2    A    
C19   H3    S    
C13   C14   S    
Cu1   O3    S    
C13   H13   S    
C1    O1    A    
C26   C27   A    
C14   H15   S    
C7    C26   S    
C8    C11   A    
C12   C21   A    
Cu2   O4    S    
C15   O5    A    
C24   H5    S    
C7    H11   S    
C16   O7    A    
C5    C6    S    
C1    O2    A    
C6    H8    S    
Cu2   N1    S    
C17   H2    S    
Cu1   N2    S    
C10   H12   S    
C5    C26   A    
C10   N2    A    
C12   C22   A    
C11   C13   S    
C9    N1    A    
C24   C25   A    
C17   C18   A    
C18   C19   A    
C16   C25   S    
C7    H10   S    
C27   C28   A    
C1    C27   S    
C14   H16   S    
C21   C25   A    
C13   H14   S    
Cu2   O2    S    
C16   O8    A    
C8    C14   S    
C4    O4    A    
C20   C21   A    
C22   C23   A    
C8    N1    A    
Cu2   O6    S    
Cu1   Cu2   S    
Cu1   O1    S    
C23   H1    S    
C6    H9    S    
C20   H4    S    
