data_mof_unit_61555.cif
_audit_creation_date              2012-10-26T18:45:09-0400
_audit_creation_method            fapswitch 2.2
_symmetry_space_group_name_H-M    P1
_symmetry_Int_Tables_number       1
_space_group_crystal_system       triclinic
_cell_length_a                    15.993463
_cell_length_b                    14.76291
_cell_length_c                    10.765705
_cell_angle_alpha                 90.034897
_cell_angle_beta                  90.104342
_cell_angle_gamma                 89.960932
_cell_volume                      2541.88592264

loop_
_atom_site_label
_atom_site_type_symbol
_atom_type_description
_atom_site_fract_x
_atom_site_fract_y
_atom_site_fract_z
_atom_type_partial_charge
C1    C     C_R   0.340834 0.500028 0.500115 0.539547
C2    C     C_1   0.176651 0.500098 0.500337 -0.060253
C3    C     C_1   0.251708 0.500088 0.500241 -0.030389
C4    C     C_1   0.748250 0.499982 0.499216 0.029885
C5    C     C_R   0.530583 0.952102 0.602719 -0.106678
C6    C     C_R   0.530574 0.047915 0.602717 -0.109491
C7    C     C_R   0.499484 0.499871 0.259396 0.533291
C8    C     C_R   0.500064 0.902855 0.500142 0.001982
C9    C     C_R   0.500054 0.097126 0.500139 0.002991
C10   C     C_R   0.469561 0.952066 0.397569 -0.108873
C11   C     C_R   0.469557 0.047866 0.397567 -0.108866
C12   C     C_3   0.590148 0.539423 0.930908 0.072108
C13   C     C_1   0.500025 0.802722 0.500109 0.133233
C14   C     C_1   0.500016 0.197272 0.500099 0.121843
C15   C     C_R   0.659140 0.499991 0.499078 0.600029
C16   C     C_R   0.501328 0.499965 0.740793 0.571990
C17   C     C_3   0.425322 0.553334 0.070867 -0.240318
C18   C     C_3   0.497453 0.401246 0.071051 -0.238939
C19   C     C_3   0.427735 0.554870 0.927954 -0.248692
C20   C     C_3   0.492770 0.401590 0.928940 -0.253084
C21   C     C_3   0.582430 0.545854 0.076236 -0.225159
C22   C     C_3   0.501080 0.499726 0.122005 0.006621
C23   C     C_R   0.956263 0.580102 0.525639 -0.096802
C24   C     C_3   0.504167 0.500012 0.878837 0.001067
C25   C     C_2   0.609483 0.634260 0.879734 0.575569
C26   C     C_2   0.662322 0.475732 0.893850 0.572235
C27   C     C_R   0.956399 0.419899 0.474680 -0.102079
C28   C     C_R   0.912743 0.499993 0.500012 0.040338
C29   C     C_R   0.043656 0.419928 0.474865 -0.104141
C30   C     C_R   0.043524 0.580135 0.525812 -0.104081
C31   C     C_R   0.087186 0.500052 0.500382 0.037495
C32   C     C_1   0.823293 0.499991 0.499571 -0.032761
Cu1   Cu    Cu3+1 0.500000 0.589220 0.500040 1.017991
Cu2   Cu    Cu3+1 0.500000 0.410780 0.500040 0.999544
H1    H     H_    0.425964 0.624139 0.106451 0.152860
H2    H     H_    0.541021 0.354815 0.891196 0.159333
H3    H     H_    0.076877 0.642364 0.545631 0.114712
H4    H     H_    0.077110 0.357729 0.455130 0.113686
H5    H     H_    0.922799 0.642303 0.545334 0.121989
H6    H     H_    0.923045 0.357679 0.454802 0.116995
H7    H     H_    0.554503 0.083632 0.683164 0.113987
H8    H     H_    0.554520 0.916409 0.683159 0.128224
H9    H     H_    0.581573 0.617722 0.107700 0.147123
H10   H     H_    0.636860 0.516478 0.125987 0.157725
H11   H     H_    0.685447 0.714492 0.777999 0.334735
H12   H     H_    0.553995 0.363047 0.101234 0.164364
H13   H     H_    0.754477 0.389753 0.945254 0.344396
H14   H     H_    0.445630 0.916354 0.317121 0.113863
H15   H     H_    0.445626 0.083539 0.317115 0.109034
H16   H     H_    0.366063 0.521444 0.102715 0.117734
H17   H     H_    0.441723 0.365300 0.108402 0.133117
H18   H     H_    0.368746 0.524792 0.891471 0.107292
H19   H     H_    0.431081 0.374122 0.899001 0.128530
H20   H     H_    0.428327 0.625849 0.894297 0.184894
N1    N     N_1   0.499980 0.276710 0.500040 -0.196566
N2    N     N_1   0.499980 0.723290 0.500040 -0.189237
O1    O     O_R   0.380310 0.575320 0.500060 -0.496557
O2    O     O_R   0.680207 0.649178 0.805978 -0.653626
O3    O     O_2   0.678005 0.463504 0.783945 -0.491530
O4    O     O_R   0.709760 0.429773 0.983240 -0.730586
O5    O     O_R   0.380310 0.424680 0.500060 -0.496603
O6    O     O_R   0.499990 0.575340 0.317720 -0.509677
O7    O     O_R   0.499990 0.424660 0.317720 -0.507526
O8    O     O_R   0.619690 0.575360 0.500000 -0.478998
O9    O     O_R   0.619690 0.424640 0.500000 -0.476576
O10   O     O_R   0.500010 0.575340 0.682340 -0.474831
O11   O     O_R   0.500010 0.424660 0.682340 -0.493709
O12   O     O_2   0.563685 0.698191 0.904264 -0.555722

loop_
_geom_bond_atom_site_label_1
_geom_bond_atom_site_label_2
_ccdc_geom_bond_type
C17   H16   S    
Cu2   O11   S    
C5    C8    A    
C9    C14   S    
C7    O6    A    
C8    C13   S    
C11   H15   S    
C1    O1    A    
C27   C29   A    
C21   H10   S    
C26   O3    D    
C12   C24   S    
C17   C22   S    
C27   H6    S    
C15   O8    A    
C13   N2    T    
C14   N1    T    
Cu1   O10   S    
C6    C9    A    
C2    C3    T    
Cu2   N1    S    
C16   C24   S    
C16   O11   A    
C4    C32   T    
C21   C22   S    
C9    C11   A    
C7    O7    A    
C30   C31   A    
C25   O12   D    
C12   C21   S    
Cu1   N2    S    
Cu1   O8    S    
C23   H5    S    
C18   H12   S    
Cu2   O9    S    
C8    C10   A    
Cu2   O7    S    
C17   C19   S    
C19   C24   S    
C18   H17   S    
Cu1   Cu2   S    
C18   C20   S    
C2    C31   S    
C4    C15   S    
C10   H14   S    
C5    C6    A    
H11   O2    S    
C23   C28   A    
C10   C11   A    
C12   C25   S    
C1    O5    A    
C7    C22   S    
C23   C30   A    
C15   O9    A    
C28   C32   S    
C29   H4    S    
C16   O10   A    
C19   H20   S    
C5    H8    S    
C29   C31   A    
C25   O2    S    
C27   C28   A    
Cu1   O6    S    
Cu1   O1    S    
C17   H1    S    
H13   O4    S    
C18   C22   S    
C26   O4    S    
C19   H18   S    
Cu2   O5    S    
C21   H9    S    
C20   C24   S    
C30   H3    S    
C12   C26   S    
C20   H19   S    
C1    C3    S    
C6    H7    S    
C20   H2    S    
