data_mof_unit_58041.cif
_audit_creation_date              2013-03-05T15:41:56-0500
_audit_creation_method            fapswitch 2.2
_symmetry_space_group_name_H-M    P1
_symmetry_Int_Tables_number       1
_space_group_crystal_system       triclinic
_cell_length_a                    19.397225
_cell_length_b                    7.248752
_cell_length_c                    17.717906
_cell_angle_alpha                 89.999504
_cell_angle_beta                  107.69168
_cell_angle_gamma                 89.999457
_cell_volume                      2373.4165451

loop_
_atom_site_label
_atom_site_type_symbol
_atom_site_description
_atom_site_fract_x
_atom_site_fract_y
_atom_site_fract_z
_atom_type_partial_charge
O1    O     O_R   0.414820 0.494320 0.416790 -0.557742
O2    O     O_R   0.585180 0.994320 0.583210 -0.557745
O3    O     O_R   0.560270 0.819500 0.430140 -0.562908
O4    O     O_R   0.439730 0.319500 0.569860 -0.562960
C1    C     C_R   0.581549 0.655602 0.415235 0.817339
C2    C     C_R   0.418453 0.155602 0.584767 0.817353
O5    O     O_R   0.413840 0.823740 0.407440 -0.558179
O6    O     O_R   0.586160 0.323740 0.592560 -0.558183
O7    O     O_R   0.437710 0.998590 0.560350 -0.548249
O8    O     O_R   0.562290 0.498590 0.439650 -0.548206
C3    C     C_R   0.387568 0.654940 0.385304 0.829067
C4    C     C_R   0.612432 0.154938 0.614696 0.829098
O9    O     O_3   0.508000 0.662290 0.550200 -0.287043
O10   O     O_3   0.492000 0.162290 0.449800 -0.286987
V1    V     V_3+5 0.498520 0.935380 0.490690 1.141116
V2    V     V_3+5 0.501480 0.435380 0.509310 1.141082
C5    C     C_2   0.785450 0.271758 0.788303 -0.088138
C6    C     C_2   0.214548 0.771756 0.211696 -0.088140
C7    C     C_2   0.820481 0.113492 0.817002 -0.199931
C8    C     C_2   0.179519 0.613489 0.182998 -0.199940
H1    H     H_    0.807457 0.401932 0.815452 0.104763
H2    H     H_    0.192538 0.901930 0.184547 0.104774
H3    H     H_    0.800232 0.981913 0.790545 0.074303
H4    H     H_    0.199769 0.481909 0.209456 0.074313
C9    C     C_2   0.717583 0.284548 0.720212 -0.090975
C10   C     C_2   0.282414 0.784549 0.279788 -0.090971
C11   C     C_2   0.679386 0.138503 0.682485 -0.202479
C12   C     C_2   0.320614 0.638506 0.317515 -0.202477
H5    H     H_    0.698411 0.422726 0.701141 0.102016
H6    H     H_    0.301584 0.922728 0.298858 0.102032
H7    H     H_    0.697117 0.999487 0.700916 0.074651
H8    H     H_    0.302885 0.499490 0.299084 0.074668
C13   C     C_R   0.316912 0.290809 0.625864 -0.096982
C14   C     C_R   0.683078 0.790807 0.374129 -0.096909
C15   C     C_R   0.367846 0.149128 0.632752 -0.115534
C16   C     C_R   0.632155 0.649135 0.367248 -0.115720
C17   C     C_R   0.369628 0.002249 0.684594 -0.059589
C18   C     C_R   0.630372 0.502297 0.315403 -0.059430
C19   C     C_R   0.321924 0.997715 0.730254 0.088232
C20   C     C_R   0.678076 0.497775 0.269745 0.088081
C21   C     C_R   0.270838 0.141492 0.723622 0.038095
C22   C     C_R   0.729140 0.641565 0.276352 0.037882
C23   C     C_R   0.267777 0.289756 0.670764 -0.013452
C24   C     C_R   0.732181 0.789843 0.329189 -0.013372
C25   C     C_R   0.324220 0.849931 0.781982 -0.069946
C26   C     C_R   0.675801 0.349987 0.218043 -0.070064
C27   C     C_R   0.276795 0.843519 0.827312 -0.089708
C28   C     C_R   0.723224 0.343574 0.172713 -0.089766
C29   C     C_R   0.226199 0.984892 0.821869 0.092361
C30   C     C_R   0.773796 0.484952 0.178128 0.092499
C31   C     C_R   0.222582 0.134642 0.769430 0.056188
C32   C     C_R   0.777392 0.634711 0.230540 0.056189
C33   C     C_R   0.170701 0.275832 0.762913 -0.002927
C34   C     C_R   0.829257 0.775890 0.237036 -0.003001
C35   C     C_R   0.165102 0.420608 0.707333 -0.076995
C36   C     C_R   0.834828 0.920718 0.292575 -0.077139
C37   C     C_R   0.214165 0.428792 0.661907 -0.070524
C38   C     C_R   0.785750 0.928966 0.337988 -0.070702
C39   C     C_R   0.178905 0.977345 0.867847 -0.084314
C40   C     C_R   0.821098 0.477380 0.132160 -0.084170
C41   C     C_R   0.129329 0.120039 0.864618 -0.107926
C42   C     C_R   0.870664 0.620050 0.135375 -0.107917
C43   C     C_R   0.126168 0.269131 0.813077 -0.087851
C44   C     C_R   0.873802 0.769150 0.186885 -0.087878
H9    H     H_    0.315227 0.399072 0.583436 0.118503
H10   H     H_    0.684780 0.898952 0.416601 0.118880
H11   H     H_    0.408648 0.892080 0.689897 0.082558
H12   H     H_    0.591364 0.392128 0.310111 0.082751
H13   H     H_    0.362625 0.738467 0.787137 0.067854
H14   H     H_    0.637420 0.238506 0.212917 0.068035
H15   H     H_    0.279595 0.727353 0.866650 0.055866
H16   H     H_    0.720450 0.227387 0.133407 0.055890
H17   H     H_    0.181803 0.861873 0.907623 0.070100
H18   H     H_    0.818220 0.361893 0.092412 0.070094
H19   H     H_    0.088227 0.378830 0.812393 0.114844
H20   H     H_    0.911732 0.878833 0.187553 0.114767
O11   O     O_R   0.937810 0.773680 0.060480 -0.559454
O12   O     O_R   0.062190 0.273680 0.939520 -0.559451
O13   O     O_R   0.086190 0.439740 0.092580 -0.558006
O14   O     O_R   0.913810 0.939740 0.907420 -0.558012
C45   C     C_R   0.112442 0.608314 0.114781 0.824879
C46   C     C_R   0.887558 0.108315 0.885219 0.824873
O15   O     O_R   0.939760 0.444210 0.069890 -0.555587
O16   O     O_R   0.060240 0.944210 0.930110 -0.555591
O17   O     O_R   0.914790 0.269640 0.916760 -0.557239
O18   O     O_R   0.085210 0.769640 0.083240 -0.557237
C47   C     C_R   0.919312 0.612455 0.085060 0.810810
C48   C     C_R   0.080687 0.112454 0.914939 0.810823
O19   O     O_3   0.992050 0.601530 0.949880 -0.284080
O20   O     O_3   0.007950 0.101530 0.050120 -0.284079
V3    V     V_3+5 0.001480 0.328340 0.009300 1.133978
V4    V     V_3+5 0.998520 0.828340 0.990700 1.133968
C49   C     C_2   0.106857 0.561570 0.694890 0.904493
O21   O     O_2   0.121836 0.725787 0.698325 -0.601169
O22   O     O_R   0.034701 0.505669 0.677336 -0.728475
H21   H     H_    0.000103 0.613782 0.669796 0.325146
C50   C     C_2   0.893075 0.061669 0.304987 0.905029
O23   O     O_2   0.878094 0.225902 0.301445 -0.601186
O24   O     O_R   0.965240 0.005734 0.322634 -0.728399
H22   H     H_    0.999852 0.113835 0.330171 0.325195
C51   C     C_2   0.205884 0.577410 0.601879 0.893005
O25   O     O_2   0.256145 0.682033 0.605208 -0.626616
O26   O     O_R   0.139906 0.598763 0.542289 -0.710064
H23   H     H_    0.140590 0.705161 0.505376 0.331731
C52   C     C_2   0.793914 0.077895 0.397863 0.892627
O27   O     O_2   0.743450 0.181739 0.394652 -0.627009
O28   O     O_R   0.860014 0.100510 0.457146 -0.709875
H24   H     H_    0.859230 0.207103 0.493920 0.331798

loop_
_geom_bond_atom_site_label_1
_geom_bond_atom_site_label_2
_geom_bond_distance
_ccdc_geom_bond_type
O15   C47   1.334803 A    
O11   V4    1.989275 S    
O4    V2    2.017968 S    
C49   O21   1.222443 D    
C7    H3    1.082506 S    
O22   H21   1.013841 S    
O1    C3    1.329270 A    
C35   C49   1.489195 S    
O2    C4    1.329276 A    
C14   H10   1.080190 S    
C2    O7    1.311594 A    
C50   O23   1.222511 D    
O17   V3    2.005313 S    
C13   H9    1.080316 S    
C27   C29   1.401825 A    
C20   C26   1.401498 A    
C52   O28   1.398405 S    
C51   O25   1.222355 D    
C43   H19   1.081033 S    
C15   C17   1.399693 A    
C1    C16   1.481863 S    
C2    C15   1.481858 S    
C40   C42   1.401386 A    
O6    V2    2.013940 S    
C25   C27   1.393732 A    
C41   C43   1.404137 A    
C42   C44   1.403923 A    
C5    C7    1.351440 D    
C8    H4    1.082506 S    
C24   C38   1.422175 A    
C29   C31   1.416623 A    
C6    C10   1.493918 S    
C30   C32   1.416446 A    
O28   H24   1.013811 S    
C7    C46   1.483021 S    
C39   H17   1.084599 S    
O13   V3    2.013867 S    
C45   O18   1.333947 A    
C19   C25   1.401692 A    
C28   C30   1.401624 A    
C37   C51   1.487846 S    
C49   O22   1.398331 S    
C8    C45   1.483023 S    
C21   C23   1.414868 A    
C22   C24   1.414769 A    
C36   C50   1.489226 S    
C28   H16   1.083724 S    
C50   O24   1.398409 S    
C32   C34   1.415023 A    
C34   C36   1.420393 A    
C33   C35   1.420521 A    
C9    H5    1.085970 S    
O11   C47   1.333871 A    
C26   C28   1.393700 A    
C39   C41   1.401587 A    
C4    C11   1.481687 S    
C11   H7    1.082632 S    
C13   C23   1.414956 A    
C12   H8    1.082633 S    
C14   C24   1.414999 A    
O4    C2    1.310658 A    
O13   C45   1.336215 A    
O5    V1    2.013963 S    
C25   H13   1.083867 S    
C5    H1    1.085908 S    
C31   C33   1.415221 A    
O14   V4    2.013845 S    
O5    C3    1.337622 A    
C41   C48   1.483057 S    
O24   H22   1.013963 S    
O6    C4    1.337618 A    
C44   H20   1.080879 S    
O1    V2    2.005128 S    
O19   V4    1.785139 S    
O2    V1    2.005141 S    
C27   H15   1.083886 S    
O14   C46   1.336210 A    
C18   H12   1.084409 S    
C10   H6    1.085971 S    
C35   C37   1.422159 A    
O3    V1    2.017968 S    
C42   C47   1.483059 S    
O12   C48   1.333875 A    
C6    H2    1.085908 S    
O16   C48   1.334800 A    
C20   C22   1.418004 A    
O3    C1    1.310657 A    
O12   V3    1.989275 S    
C9    C11   1.347407 D    
C46   O17   1.333952 A    
O15   V3    2.018005 S    
C52   O27   1.222362 D    
C10   C12   1.347402 D    
C29   C39   1.400864 A    
C38   C52   1.487898 S    
C30   C40   1.400863 A    
C16   C18   1.399506 A    
O7    V1    2.002357 S    
C5    C9    1.493919 S    
C1    O8    1.311590 A    
C17   C19   1.402410 A    
O8    V2    2.002357 S    
C18   C20   1.402384 A    
C33   C43   1.416038 A    
O20   V3    1.785125 S    
C34   C44   1.416050 A    
C3    C12   1.481687 S    
C17   H11   1.084533 S    
C40   H18   1.084435 S    
C13   C15   1.404437 A    
C14   C16   1.404274 A    
C36   C38   1.422248 A    
C6    C8    1.351446 D    
C26   H14   1.083718 S    
C23   C37   1.422183 A    
C19   C21   1.418156 A    
C51   O26   1.398323 S    
O9    V2    1.786231 S    
O26   H23   1.013925 S    
O10   V1    1.786218 S    
O18   V4    2.005301 S    
O16   V4    2.018006 S    
C21   C31   1.413900 A    
C22   C32   1.413887 A    
