data_mof_unit_10118.cif
_audit_creation_date              2012-12-10T16:53:11-0500
_audit_creation_method            fapswitch 2.2
_symmetry_space_group_name_H-M    P1
_symmetry_Int_Tables_number       1
_space_group_crystal_system       triclinic
_cell_length_a                    10.819592
_cell_length_b                    10.888977
_cell_length_c                    9.702123
_cell_angle_alpha                 91.851101
_cell_angle_beta                  90.4513
_cell_angle_gamma                 90.276063
_cell_volume                      1142.40206134

loop_
_atom_site_label
_atom_site_type_symbol
_atom_type_description
_atom_site_fract_x
_atom_site_fract_y
_atom_site_fract_z
_atom_type_partial_charge
C1    C     C_R   0.497230 0.265313 0.497496 0.801791
C2    C     C_R   0.065841 0.610523 0.550860 -0.029632
C3    C     C_R   0.127923 0.503579 0.498430 -0.250369
C4    C     C_R   0.059991 0.398857 0.448768 -0.181107
C5    C     C_R   0.931378 0.403410 0.448870 0.574796
C6    C     C_R   0.870222 0.506283 0.501719 -0.177778
C7    C     C_2   0.574853 0.933905 0.406694 -0.127346
C8    C     C_2   0.539872 0.865344 0.513345 0.411906
C9    C     C_2   0.574183 0.068842 0.423760 -0.148983
C10   C     C_2   0.483846 0.133049 0.487959 -0.092258
C11   C     C_2   0.431902 0.426175 0.918956 -0.116213
C12   C     C_R   0.262326 0.499299 0.499515 0.957049
C13   C     C_2   0.438333 0.420467 0.074136 0.708674
C14   C     C_R   0.514044 0.733858 0.502480 0.845522
C15   C     C_R   0.736988 0.502229 0.500530 0.854427
C16   C     C_R   0.129025 0.718765 0.599434 0.609511
C17   C     C_R   0.063936 0.819880 0.652268 -0.184151
C18   C     C_R   0.935856 0.818232 0.654898 -0.184961
C19   C     C_R   0.871582 0.715123 0.605199 -0.108726
C20   C     C_R   0.935054 0.610247 0.553643 -0.047048
Cu1   Cu    Cu3+1 0.500020 0.500020 0.638630 1.051557
Cu2   Cu    Cu3+1 0.499980 0.499980 0.361370 1.092866
H1    H     H_    0.368914 0.363176 0.864884 0.209007
H2    H     H_    0.563403 0.553523 0.896662 0.193596
H3    H     H_    0.541340 0.571774 0.108916 0.151298
H4    H     H_    0.113381 0.900968 0.690142 0.199667
H5    H     H_    0.886011 0.897633 0.694482 0.199978
H6    H     H_    0.771813 0.718873 0.607196 0.140731
H7    H     H_    0.652834 0.117856 0.382388 0.199135
N1    N     N_2   0.498640 0.498660 0.846910 -0.307735
N2    N     N_2   0.498610 0.498630 0.153040 -0.322421
O1    O     O_R   0.500020 0.321960 0.617040 -0.559613
O2    O     O_R   0.499980 0.321920 0.382900 -0.501847
O3    O     O_R   0.319670 0.500020 0.617100 -0.547643
O4    O     O_R   0.319630 0.499980 0.382950 -0.518501
O5    O     O_R   0.500020 0.678080 0.617100 -0.498675
O6    O     O_R   0.499980 0.678040 0.382960 -0.591893
O7    O     O_R   0.680370 0.500020 0.617050 -0.600682
O8    O     O_R   0.680330 0.499980 0.382900 -0.542504
C21   C     C_2   0.118325 0.281307 0.399919 0.929334
O9    O     O_2   0.219383 0.280711 0.345128 -0.541472
O10   O     O_R   0.054989 0.170093 0.413669 -0.677756
H8    H     H_    0.099104 0.097995 0.367923 0.344447
C22   C     C_2   0.361768 0.080526 0.524742 0.970743
O11   O     O_2   0.303157 0.126553 0.620343 -0.580209
O12   O     O_R   0.311359 0.982335 0.446303 -0.733885
H9    H     H_    0.227797 0.955537 0.480881 0.340824
F1    F     F_    0.375069 0.328329 0.132910 -0.581952
F2    F     F_    0.253260 0.730653 0.594125 -0.663323
F3    F     F_    0.863486 0.306644 0.397096 -0.636768
C23   C     C_2   0.626642 0.881029 0.276578 0.844587
O13   O     O_2   0.607220 0.931675 0.167891 -0.513529
O14   O     O_R   0.702992 0.777789 0.279020 -0.778286
H10   H     H_    0.733499 0.751746 0.184014 0.340312
F4    F     F_    0.527666 0.919384 0.641264 -0.624489

loop_
_geom_bond_atom_site_label_1
_geom_bond_atom_site_label_2
_ccdc_geom_bond_type
H3    N2    S    
C13   F1    S    
C15   O7    A    
Cu2   O4    S    
C2    C20   A    
C6    C20   A    
Cu1   N1    S    
C19   C20   A    
Cu1   O3    S    
C9    H7    S    
C21   O10   S    
C17   C18   A    
C7    C23   S    
C7    C8    D    
Cu1   O5    S    
O14   H10   S    
C22   O11   D    
C12   O4    A    
C19   H6    S    
C11   C13   S    
C15   O8    A    
C23   O13   D    
C16   C17   A    
C17   H4    S    
C8    F4    S    
C11   H1    S    
C21   O9    D    
C22   O12   S    
C2    C3    A    
C1    O2    A    
C14   O5    A    
C5    C6    A    
Cu1   O1    S    
H2    N1    S    
C5    F3    S    
Cu2   N2    S    
Cu2   O8    S    
C10   C22   S    
C3    C4    A    
C9    C10   D    
C2    C16   A    
C16   F2    S    
C14   O6    A    
C18   C19   A    
O10   H8    S    
C7    C9    S    
Cu2   O2    S    
O12   H9    S    
Cu1   O7    S    
C8    C14   S    
C3    C12   S    
C6    C15   S    
Cu1   Cu2   S    
Cu2   O6    S    
C12   O3    A    
C1    C10   S    
C13   N2    D    
C1    O1    A    
C18   H5    S    
C4    C21   S    
C11   N1    D    
C4    C5    A    
C23   O14   S    
