data_mof_unit_14143.cif
_audit_creation_date              2012-12-11T19:09:46-0500
_audit_creation_method            fapswitch 2.2
_symmetry_space_group_name_H-M    P1
_symmetry_Int_Tables_number       1
_space_group_crystal_system       triclinic
_cell_length_a                    8.29495
_cell_length_b                    15.133546
_cell_length_c                    27.015406
_cell_angle_alpha                 98.280486
_cell_angle_beta                  93.340402
_cell_angle_gamma                 80.786718
_cell_volume                      3310.49640829

loop_
_atom_site_label
_atom_site_type_symbol
_atom_type_description
_atom_site_fract_x
_atom_site_fract_y
_atom_site_fract_z
_atom_type_partial_charge
Ba1   Ba    Ba6+2 0.860050 0.456430 0.522540 1.705938
Ba2   Ba    Ba6+2 0.329780 0.543490 0.477450 1.707088
C1    C     C_3   0.813393 0.192367 0.721647 -0.280028
C2    C     C_R   0.896093 0.597737 0.180663 0.568082
C3    C     C_2   0.753792 0.564140 0.274854 -0.052145
C4    C     C_3   0.262144 0.203162 0.648220 0.510022
C5    C     C_3   0.732235 0.583173 0.330604 -0.073739
C6    C     C_1   0.981466 0.479009 0.341372 0.020089
C7    C     C_2   0.025432 0.484068 0.295067 -0.092543
C8    C     C_2   0.902057 0.524340 0.257575 0.199942
C9    C     C_R   0.019145 0.517624 0.103627 -0.079833
C10   C     C_R   0.063110 0.440629 0.128127 -0.043200
C11   C     C_R   0.147057 0.362089 0.101607 -0.049485
C12   C     C_3   0.721218 0.249958 0.684191 0.432128
C13   C     C_R   0.933990 0.596340 0.130140 -0.021773
C14   C     C_2   0.833006 0.511331 0.357046 -0.206052
C15   C     C_2   0.338034 0.470519 0.639881 -0.235875
C16   C     C_3   0.348263 0.113586 0.663262 -0.370401
C17   C     C_R   0.194875 0.435684 0.976380 0.020602
C18   C     C_R   0.047667 0.590803 0.976570 0.020516
C19   C     C_R   0.141448 0.512267 0.951236 0.051277
C20   C     C_R   0.293895 0.360806 0.950149 -0.100454
C21   C     C_R   0.334267 0.359970 0.900871 -0.052216
C22   C     C_R   0.278550 0.433749 0.875172 -0.033213
C23   C     C_3   0.479945 0.724045 0.637150 0.784630
C24   C     C_R   0.182539 0.510177 0.900177 -0.082065
C25   C     C_R   0.128162 0.584396 0.874160 -0.029662
C26   C     C_R   0.169172 0.580769 0.823436 0.587195
C27   C     C_R   0.317431 0.431620 0.824804 0.623892
C28   C     C_3   0.227417 0.265746 0.412520 0.313542
C29   C     C_2   0.443497 0.458356 0.727729 -0.075999
C30   C     C_3   0.456332 0.419027 0.673084 -0.053675
C31   C     C_1   0.202950 0.518821 0.658559 0.033292
C32   C     C_2   0.165985 0.527009 0.706727 -0.079645
C33   C     C_2   0.296125 0.498498 0.745307 0.222207
C34   C     C_3   0.607047 0.703185 0.679447 -0.334358
C35   C     C_R   0.149330 0.436414 0.026697 0.019872
C36   C     C_R   0.059857 0.515850 0.052567 0.050894
C37   C     C_R   0.010619 0.593502 0.027967 0.019683
C38   C     C_R   0.189171 0.359854 0.052233 -0.096852
C39   C     C_R   0.889153 0.672861 0.105801 -0.057160
C40   C     C_3   0.295104 0.167627 0.393812 -0.394709
C41   C     C_R   0.993932 0.664003 0.949224 -0.099663
C42   C     C_R   0.033361 0.660729 0.899390 -0.060158
C43   C     C_R   0.926162 0.671616 0.056054 -0.101255
C44   C     C_R   0.349551 0.173281 0.528950 -0.035957
C45   C     C_3   0.038267 0.730143 0.341559 0.333899
C46   C     C_R   0.575168 0.207608 0.486399 0.086213
C47   C     C_R   0.747604 0.767612 0.476506 -0.261302
C48   C     C_R   0.833883 0.825959 0.457485 0.070332
C49   C     C_R   0.769844 0.918065 0.460025 -0.130471
C50   C     C_R   0.622471 0.954314 0.485135 0.002517
C51   C     C_R   0.541412 0.893601 0.506783 -0.030425
C52   C     C_3   0.983020 0.731318 0.582965 0.346783
C53   C     C_R   0.559085 0.049299 0.493022 0.031380
C54   C     C_R   0.412505 0.079970 0.519790 -0.004569
C55   C     C_R   0.334081 0.017454 0.538197 -0.110839
C56   C     C_3   0.053888 0.751958 0.288981 -0.296834
C57   C     C_R   0.399833 0.927381 0.533592 -0.031674
C58   C     C_R   0.636566 0.115336 0.475907 -0.123223
C59   C     C_R   0.436108 0.236038 0.514225 -0.238677
C60   C     C_R   0.606322 0.800585 0.502676 0.018173
C61   C     C_3   0.945981 0.833299 0.597025 0.188674
C62   C     C_3   0.790607 0.253940 0.367507 0.462672
C63   C     C_3   0.853062 0.152788 0.364932 -0.372565
C64   C     C_3   0.938845 0.969030 0.568676 0.157613
C65   C     C_3   0.276102 0.762411 0.697481 0.169754
C66   C     C_3   0.489273 0.782683 0.364451 0.356626
C67   C     C_3   0.434805 0.873111 0.345551 -0.358347
C68   C     C_R   0.021106 0.443177 0.178517 0.616645
H1    H     H_    0.412599 0.163749 0.375350 0.138570
H2    H     H_    0.916565 0.137820 0.400709 0.080807
H3    H     H_    0.941758 0.130625 0.334768 0.116600
H4    H     H_    0.750060 0.113513 0.356964 0.114899
H5    H     H_    0.595835 0.271051 0.698103 0.000479
H6    H     H_    0.833047 0.235221 0.757792 0.138817
H7    H     H_    0.441162 0.659596 0.618758 -0.085052
H8    H     H_    0.627019 0.766625 0.703648 0.101767
H9    H     H_    0.567597 0.656072 0.702572 0.050315
H10   H     H_    0.725548 0.671783 0.663581 0.145092
H11   H     H_    0.932981 0.157993 0.707105 0.158270
H12   H     H_    0.314637 0.127155 0.425164 0.050950
H13   H     H_    0.439776 0.125902 0.694111 0.117951
H14   H     H_    0.123735 0.667200 0.346387 0.080120
H15   H     H_    0.910684 0.719408 0.345593 -0.069759
H16   H     H_    0.163608 0.784211 0.286629 0.147048
H17   H     H_    0.066830 0.688650 0.262310 0.106003
H18   H     H_    0.944268 0.798673 0.278237 0.128456
H19   H     H_    0.625201 0.769836 0.365126 -0.071684
H20   H     H_    0.445855 0.788016 0.403074 0.064396
H21   H     H_    0.491806 0.926512 0.369608 0.065379
H22   H     H_    0.300066 0.891702 0.346809 0.146568
H23   H     H_    0.208375 0.137098 0.366372 0.134300
H24   H     H_    0.472948 0.869396 0.306485 0.127746
H25   H     H_    0.149475 0.457902 0.283981 0.141980
H26   H     H_    0.181220 0.301314 0.119056 0.131322
H27   H     H_    0.545440 0.440167 0.753224 0.114145
H28   H     H_    0.410149 0.300372 0.882833 0.126323
H29   H     H_    0.345062 0.301531 0.966745 0.070932
H30   H     H_    0.251140 0.295886 0.034964 0.072246
H31   H     H_    0.656898 0.591044 0.249903 0.120258
H32   H     H_    0.824484 0.734854 0.125275 0.124848
H33   H     H_    0.918780 0.725114 0.964970 0.069768
H34   H     H_    0.874149 0.705621 0.564361 -0.051327
H35   H     H_    0.350993 0.238867 0.632802 -0.057582
H36   H     H_    0.988362 0.718852 0.880540 0.119798
H37   H     H_    0.041039 0.550578 0.717780 0.128821
H38   H     H_    0.888172 0.734047 0.040997 0.071240
H39   H     H_    0.775448 0.477045 0.382311 0.070070
H40   H     H_    0.347636 0.448684 0.599940 0.072375
H41   H     H_    0.388882 0.307407 0.521532 0.047939
H42   H     H_    0.225533 0.038195 0.559391 0.089707
H43   H     H_    0.744204 0.097198 0.454260 0.056975
H44   H     H_    0.798588 0.696841 0.474843 0.050200
H45   H     H_    0.084330 0.714760 0.556815 0.109893
H46   H     H_    0.842122 0.959866 0.444592 0.063350
H47   H     H_    0.258301 0.075338 0.675931 0.138603
H48   H     H_    0.336154 0.885199 0.551878 0.151906
H49   H     H_    0.414116 0.071995 0.631495 0.106668
H50   H     H_    0.327427 0.300383 0.430518 0.020013
H51   H     H_    0.132386 0.267618 0.440027 0.032643
H52   H     H_    0.005841 0.997284 0.602675 0.074464
H53   H     H_    0.804922 0.984488 0.573368 0.076600
H54   H     H_    0.966471 0.001879 0.536739 0.111799
H55   H     H_    0.346408 0.785032 0.731944 0.051110
H56   H     H_    0.813947 0.851809 0.605385 0.031070
H57   H     H_    0.273096 0.688859 0.694346 0.003533
H58   H     H_    0.149282 0.798128 0.701878 0.093222
H59   H     H_    0.019497 0.854318 0.631180 0.087808
H60   H     H_    0.881444 0.295435 0.385133 0.029319
H61   H     H_    0.741200 0.139730 0.728388 0.074279
I1    I     I_    0.713245 0.168892 0.613583 -0.538314
I2    I     I_    0.746579 0.286250 0.292916 -0.392073
I3    I     I_    0.176138 0.285545 0.714439 -0.425467
N1    N     N_R   0.940281 0.521680 0.204862 -0.425706
N2    N     N_R   0.261563 0.504289 0.798672 -0.418655
O1    O     O_2   0.906490 0.548660 0.619040 -0.441117
O2    O     O_2   0.170349 0.825767 0.470367 -0.451091
O3    O     O_3   0.078096 0.802082 0.376441 -0.609842
O4    O     O_3   0.138490 0.548590 0.558860 -0.503261
O5    O     O_3   0.572560 0.389970 0.472910 -0.459177
O6    O     O_2   0.345680 0.723560 0.528460 -0.469732
O7    O     O_3   0.558724 0.766111 0.604413 -0.663283
O8    O     O_2   0.409899 0.540042 0.324317 -0.469667
O9    O     O_3   0.422264 0.714112 0.332959 -0.601626
O10   O     O_2   0.054558 0.374817 0.198582 -0.563307
O11   O     O_2   0.399940 0.363712 0.804109 -0.587311
O12   O     O_3   0.641470 0.277554 0.391517 -0.623209
O13   O     O_2   0.824787 0.667528 0.203177 -0.620849
O14   O     O_2   0.124137 0.646320 0.801683 -0.616790
O15   O     O_3   0.686290 0.382320 0.585720 -0.438319
O16   O     O_2   0.732368 0.493629 0.670756 -0.487270
O17   O     O_3   0.026307 0.692783 0.626657 -0.679098
O18   O     O_3   0.801679 0.323805 0.680118 -0.524969
O19   O     O_2   0.844020 0.276410 0.471510 -0.485359
O20   O     O_3   0.101490 0.335510 0.560360 -0.457088
O21   O     O_2   0.013237 0.176486 0.524705 -0.467803
O22   O     O_3   0.986975 0.875463 0.557411 -0.669290
O23   O     O_3   0.125359 0.188684 0.616381 -0.557178
O24   O     O_3   0.341495 0.786392 0.654929 -0.656705
O25   O     O_2   0.283210 0.451320 0.380930 -0.426244
O26   O     O_3   0.051220 0.451340 0.441130 -0.507744
O27   O     O_3   0.503420 0.617610 0.414270 -0.480023
O28   O     O_3   0.159651 0.306836 0.371525 -0.610315
O29   O     O_3   0.617160 0.609950 0.527080 -0.474646
O30   O     O_3   0.088220 0.664410 0.439630 -0.503042
P1    P     P_3+3 0.071960 0.575810 0.612130 0.979042
P2    P     P_3+3 0.664360 0.290070 0.457280 0.996311
P3    P     P_3+3 0.149332 0.217964 0.557061 0.995884
P4    P     P_3+3 0.117760 0.424110 0.387870 1.014490
P5    P     P_3+3 0.042192 0.780465 0.436313 0.972975
P6    P     P_3+3 0.667808 0.404665 0.651361 1.019773
P7    P     P_3+3 0.532821 0.724412 0.540757 0.954494
P8    P     P_3+3 0.516196 0.610156 0.349678 0.977112

loop_
_geom_bond_atom_site_label_1
_geom_bond_atom_site_label_2
_ccdc_geom_bond_type
C53   C54   A    
C26   O14   D    
C9    C36   A    
C40   H23   S    
O28   P4    S    
C40   H12   S    
C28   O28   S    
C19   C24   A    
C56   H17   S    
Ba2   O26   S    
C52   O17   S    
C4    O23   S    
C51   C57   A    
C12   I1    S    
Ba2   O30   S    
C54   C55   A    
C2    O13   D    
C24   C25   A    
C1    H61   S    
C32   H37   S    
C45   H15   S    
C52   H34   S    
C17   C19   A    
C22   C24   A    
C32   C33   S    
C35   C38   A    
C65   H55   S    
C36   C37   A    
O16   P6    D    
C55   C57   A    
C55   H42   S    
C52   C61   S    
Ba1   P1    S    
O29   P7    S    
C5    P8    S    
O20   P3    S    
C63   H3    S    
C39   H32   S    
O1    P1    D    
Ba1   Ba2   S    
Ba1   O19   S    
C22   C27   A    
C11   C38   A    
C17   C35   A    
O21   P3    D    
C9    C13   A    
C25   C42   A    
C66   C67   S    
O26   P4    S    
C1    H11   S    
C66   H20   S    
C21   C22   A    
C64   H52   S    
O3    P5    S    
C48   P5    S    
C68   O10   D    
C67   H22   S    
C7    C8    S    
C7    H25   S    
C50   C53   A    
C37   C43   A    
O4    P1    S    
C61   H59   S    
C47   H44   S    
C30   P6    S    
O30   P5    S    
C6    C14   D    
C53   C58   A    
C15   H40   S    
C58   H43   S    
C23   O7    S    
C15   C31   D    
C56   H16   S    
Ba2   O25   S    
C6    P4    S    
C14   H39   S    
C46   C58   A    
O6    P7    D    
C4    C16   S    
C3    H31   S    
C44   C59   A    
C49   C50   A    
C17   C20   A    
C8    N1    S    
C13   C39   A    
C67   H24   S    
C34   H10   S    
C3    C5    S    
C18   C37   A    
C6    C7    D    
C11   H26   S    
Ba1   P2    S    
C48   C49   A    
C60   P7    S    
O15   P6    S    
O17   P1    S    
C33   N2    S    
Ba1   O20   S    
C41   C42   A    
C27   O11   D    
C35   C36   A    
C65   H57   S    
C51   C60   A    
C29   C30   S    
C46   P2    S    
C28   H51   S    
Ba1   O29   S    
O19   P2    D    
C16   H47   S    
C52   H45   S    
C27   N2    Am   
C23   O24   S    
C16   H13   S    
O18   P6    S    
C45   H14   S    
O9    P8    S    
C1    H6    S    
Ba1   O4    S    
Ba2   O29   S    
C65   O24   S    
C1    C12   S    
Ba2   P4    S    
C2    N1    Am   
O25   P4    D    
C5    C14   S    
C62   H60   S    
Ba1   O26   S    
C57   H48   S    
C68   N1    Am   
Ba2   O6    S    
C23   H7    S    
C45   O3    S    
O7    P7    S    
C44   C54   A    
C59   H41   S    
C64   O22   S    
C18   C41   A    
Ba1   O1    S    
C50   C51   A    
C15   C30   S    
C10   C68   A    
C62   I2    S    
O5    P2    S    
C20   H29   S    
O23   P3    S    
O2    P5    D    
C26   N2    Am   
C28   C40   S    
C34   H9    S    
C56   H18   S    
Ba2   O27   S    
C38   H30   S    
C9    C10   A    
C43   H38   S    
C42   H36   S    
C63   H2    S    
C49   H46   S    
C44   P3    S    
Ba2   O4    S    
C62   C63   S    
C2    C13   A    
C3    C8    D    
C4    I3    S    
C34   H8    S    
C65   H58   S    
C12   O18   S    
C45   C56   S    
C46   C59   A    
C28   H50   S    
O12   P2    S    
C29   C33   D    
C40   H1    S    
C4    H35   S    
C31   C32   D    
Ba1   O15   S    
C64   H54   S    
C29   H27   S    
C41   H33   S    
C61   H56   S    
Ba1   O5    S    
C63   H4    S    
C23   C34   S    
C64   H53   S    
C21   H28   S    
C10   C11   A    
C18   C19   A    
C47   C48   A    
O8    P8    D    
C25   C26   A    
Ba2   O5    S    
C39   C43   A    
C20   C21   A    
C31   P1    S    
C47   C60   A    
C61   O22   S    
C66   H19   S    
C67   H21   S    
O27   P8    S    
C16   H49   S    
C62   O12   S    
C66   O9    S    
C12   H5    S    
