data_mof_unit_18806.cif
_audit_creation_date              2012-12-10T18:47:41-0500
_audit_creation_method            fapswitch 2.2
_symmetry_space_group_name_H-M    P1
_symmetry_Int_Tables_number       1
_space_group_crystal_system       triclinic
_cell_length_a                    9.971383
_cell_length_b                    10.662222
_cell_length_c                    15.444997
_cell_angle_alpha                 90.080266
_cell_angle_beta                  68.672505
_cell_angle_gamma                 89.799718
_cell_volume                      1529.59762354

loop_
_atom_site_label
_atom_site_type_symbol
_atom_type_description
_atom_site_fract_x
_atom_site_fract_y
_atom_site_fract_z
_atom_type_partial_charge
C1    C     C_R   0.500219 0.739574 0.498998 0.946535
C2    C     C_R   0.426856 0.937260 0.449974 0.541722
C3    C     C_R   0.498772 0.128165 0.502507 -0.209618
C4    C     C_R   0.498724 0.872314 0.499336 -0.212700
C5    C     C_R   0.967696 0.555743 0.430010 -0.082933
C6    C     C_R   0.032399 0.443901 0.569860 -0.083065
C7    C     C_R   0.110679 0.555491 0.429920 -0.078558
C8    C     C_R   0.889511 0.443623 0.569740 -0.040528
C9    C     C_R   0.410322 0.497290 0.675607 0.852832
C10   C     C_R   0.589848 0.496790 0.324595 0.870230
C11   C     C_R   0.358085 0.479195 0.776092 -0.085072
C12   C     C_R   0.499664 0.260598 0.501005 0.922000
C13   C     C_R   0.643338 0.470206 0.225390 -0.084737
C14   C     C_R   0.167746 0.455426 0.926121 -0.122191
C15   C     C_R   0.811833 0.364254 0.090668 -0.163236
C16   C     C_R   0.211228 0.476427 0.830727 -0.182097
C17   C     C_R   0.773114 0.406328 0.182427 -0.159176
C18   C     C_R   0.460157 0.458576 0.816909 -0.241282
C19   C     C_R   0.550548 0.487367 0.177989 -0.216963
C20   C     C_R   0.418824 0.434428 0.911354 0.048106
C21   C     C_R   0.582884 0.436376 0.089526 0.063766
C22   C     C_R   0.270451 0.435154 0.967284 0.023699
C23   C     C_R   0.331890 0.430275 0.104068 -0.317553
C24   C     C_R   0.720502 0.385094 0.041685 0.018340
C25   C     C_R   0.522180 0.414778 0.952528 -0.004215
C26   C     C_R   0.478836 0.432062 0.049019 -0.007478
C27   C     C_3   0.100217 0.251714 0.142811 -0.387541
C28   C     C_3   0.891367 0.179232 0.879402 -0.352864
C29   C     C_3   0.531881 0.142029 0.698062 -0.323462
C30   C     C_3   0.218431 0.893442 0.426732 -0.274611
C31   C     C_R   0.664849 0.375198 0.901932 -0.316333
C32   C     C_R   0.229756 0.416250 0.063222 0.518019
C33   C     C_R   0.760654 0.351447 0.947582 0.498135
C34   C     C_R   0.566847 0.934103 0.551639 -0.365686
C35   C     C_R   0.431206 0.066575 0.450011 -0.365135
C36   C     C_R   0.564205 0.063066 0.555517 0.550444
H1    H     H_    0.450966 0.538490 0.211582 0.157318
H2    H     H_    0.385225 0.118988 0.407358 0.183980
H3    H     H_    0.946027 0.600676 0.373685 0.136758
H4    H     H_    0.054162 0.398694 0.626070 0.137797
H5    H     H_    0.195489 0.599858 0.373327 0.141399
H6    H     H_    0.805058 0.397869 0.625785 0.137579
H7    H     H_    0.151508 0.243868 0.195572 0.185208
H8    H     H_    0.157620 0.191081 0.081529 0.173129
H9    H     H_    0.989953 0.213663 0.175135 0.183011
H10   H     H_    0.834224 0.163217 0.830515 0.171457
H11   H     H_    0.839605 0.124908 0.944579 0.163406
H12   H     H_    0.573022 0.466302 0.774908 0.162274
H13   H     H_    0.002784 0.142980 0.845630 0.197870
H14   H     H_    0.438228 0.199730 0.698711 0.154258
H15   H     H_    0.585488 0.193237 0.739007 0.187010
H16   H     H_    0.494632 0.050483 0.732914 0.158431
H17   H     H_    0.167135 0.865794 0.501043 0.167309
H18   H     H_    0.172030 0.833732 0.385952 0.175732
H19   H     H_    0.190879 0.992172 0.416984 0.156224
H20   H     H_    0.840193 0.385527 0.221859 0.206651
H21   H     H_    0.130597 0.492323 0.800176 0.180799
H22   H     H_    0.054730 0.461041 0.967756 0.193555
H23   H     H_    0.909271 0.310636 0.058725 0.214373
H24   H     H_    0.295341 0.424554 0.179048 0.164320
H25   H     H_    0.700925 0.353359 0.828660 0.148148
H26   H     H_    0.619685 0.882431 0.590738 0.189418
N1    N     N_R   0.142780 0.500030 0.500020 -0.081438
N2    N     N_R   0.857220 0.499970 0.499980 -0.081708
O1    O     O_R   0.385370 0.683250 0.500010 -0.581639
O2    O     O_3   0.898265 0.307983 0.898094 -0.633314
O3    O     O_3   0.632046 0.124800 0.606930 -0.594789
O4    O     O_3   0.368822 0.873917 0.393406 -0.603064
O5    O     O_R   0.614630 0.316750 0.499990 -0.567602
O6    O     O_R   0.614700 0.683220 0.500000 -0.623971
O7    O     O_R   0.385300 0.316780 0.500000 -0.627871
O8    O     O_R   0.319830 0.500020 0.632250 -0.624601
O9    O     O_R   0.680170 0.499980 0.367750 -0.623846
O10   O     O_R   0.549160 0.499990 0.632240 -0.622558
O11   O     O_R   0.450840 0.500010 0.367760 -0.614501
O12   O     O_3   0.092928 0.378360 0.116715 -0.642286
Zn1   Zn    Zn3+2 0.346870 0.500020 0.500000 0.955315
Zn2   Zn    Zn3+2 0.653130 0.499980 0.500000 0.963666

loop_
_geom_bond_atom_site_label_1
_geom_bond_atom_site_label_2
_ccdc_geom_bond_type
C2    C35   A    
C25   C31   A    
C12   O5    A    
C28   H11   S    
O6    Zn2   S    
C31   H25   S    
C2    C4    A    
C9    O8    A    
C21   C26   A    
C36   O3    S    
C11   C18   A    
C30   H18   S    
C28   H10   S    
C22   C32   A    
C19   C21   A    
C8    H6    S    
C2    O4    S    
N1    Zn1   S    
C10   O9    A    
C20   C25   A    
C34   H26   S    
C11   C16   A    
C23   C26   A    
C3    C12   S    
C19   H1    S    
C29   O3    S    
C27   H8    S    
C1    O1    A    
O9    Zn2   S    
C31   C33   A    
C18   C20   A    
C27   H9    S    
O5    Zn2   S    
C15   H23   S    
C33   O2    S    
C29   H14   S    
C23   H24   S    
C14   H22   S    
C30   H17   S    
C4    C34   A    
O1    Zn1   S    
C13   C19   A    
C6    H4    S    
C5    C7    A    
C6    C8    A    
C25   C26   A    
C5    N2    A    
C6    N1    A    
C28   O2    S    
O8    Zn1   S    
C9    C11   S    
C28   H13   S    
C3    C35   A    
C35   H2    S    
O11   Zn1   S    
C17   H20   S    
C7    N1    A    
C8    N2    A    
C15   C24   A    
C12   O7    A    
C20   C22   A    
C5    H3    S    
C14   C16   A    
C9    O10   A    
C27   O12   S    
O7    Zn1   S    
C29   H15   S    
C15   C17   A    
N2    Zn2   S    
C24   C33   A    
C10   C13   S    
C18   H12   S    
C32   O12   S    
C30   H19   S    
C1    O6    A    
C13   C17   A    
C1    C4    S    
C23   C32   A    
C14   C22   A    
C3    C36   A    
C34   C36   A    
C16   H21   S    
C7    H5    S    
C27   H7    S    
O10   Zn2   S    
C21   C24   A    
C29   H16   S    
C30   O4    S    
C10   O11   A    
