data_mof_unit_11534.cif
_audit_creation_date              2013-03-05T15:45:32-0500
_audit_creation_method            fapswitch 2.2
_symmetry_space_group_name_H-M    P1
_symmetry_Int_Tables_number       1
_space_group_crystal_system       triclinic
_cell_length_a                    11.209883
_cell_length_b                    11.326024
_cell_length_c                    19.237255
_cell_angle_alpha                 89.820288
_cell_angle_beta                  89.808057
_cell_angle_gamma                 59.702108
_cell_volume                      2108.81147243

loop_
_atom_site_label
_atom_site_type_symbol
_atom_site_description
_atom_site_fract_x
_atom_site_fract_y
_atom_site_fract_z
_atom_type_partial_charge
O1    O     O_R   0.507430 0.255570 0.581420 -0.501759
O2    O     O_R   0.280190 0.527390 0.578910 -0.488521
C1    C     C_R   0.252320 0.639999 0.611266 0.544551
O3    O     O_R   0.260310 0.739740 0.584580 -0.508810
O4    O     O_R   0.532250 0.695150 0.573830 -0.518851
C2    C     C_R   0.643680 0.604419 0.606436 0.540283
O5    O     O_R   0.744930 0.503430 0.576380 -0.406348
O6    O     O_R   0.699250 0.276390 0.571950 -0.452452
C3    C     C_R   0.621888 0.244029 0.605893 0.543125
O7    O     O_R   0.499020 0.256400 0.419850 -0.452188
O8    O     O_R   0.272400 0.528160 0.429140 -0.546928
C4    C     C_R   0.237151 0.642526 0.398485 0.528488
O9    O     O_R   0.251910 0.740570 0.423020 -0.487484
O10   O     O_R   0.524460 0.695920 0.424060 -0.438347
C5    C     C_R   0.639493 0.620598 0.391873 0.560648
O11   O     O_R   0.736530 0.504260 0.414810 -0.538288
O12   O     O_R   0.691460 0.277160 0.422180 -0.568176
C6    C     C_R   0.607058 0.243200 0.393058 0.539780
Cr1   Cr    Cr6+3 0.392930 0.397900 0.502230 1.109611
Cr2   Cr    Cr6+3 0.398240 0.708600 0.501260 1.130408
Cr3   Cr    Cr6+3 0.708800 0.393470 0.496460 1.118622
O13   O     O_3   0.499990 0.499990 0.499980 -0.338653
C7    C     C_3   0.566705 0.798544 0.778910 0.176494
C8    C     C_3   0.551011 0.769110 0.701745 -0.207321
H1    H     H_    0.448346 0.776791 0.692206 0.185178
H2    H     H_    0.544439 0.852005 0.667265 0.160827
H3    H     H_    0.837973 0.749119 0.770793 0.058228
H4    H     H_    0.796584 0.727341 0.656825 0.132732
C9    C     C_3   0.823796 0.659411 0.765732 -0.303424
C10   C     C_3   0.695572 0.537891 0.808102 -0.039044
C11   C     C_3   0.701815 0.673996 0.812234 -0.041106
C12   C     C_3   0.668797 0.631379 0.679395 -0.038965
C13   C     C_3   0.804512 0.637853 0.687709 0.064896
C14   C     C_3   0.670082 0.518871 0.729147 -0.276471
H5    H     H_    0.575346 0.510304 0.723469 0.097009
H6    H     H_    0.754320 0.423998 0.707652 0.193006
H7    H     H_    0.917244 0.574329 0.786375 0.200726
C15   C     C_R   0.795368 0.188429 0.709319 0.104728
C16   C     C_R   0.819754 0.153216 0.783821 0.140949
C17   C     C_R   0.705706 0.150515 0.822999 -0.046799
C18   C     C_R   0.580437 0.185308 0.790428 -0.168167
H8    H     H_    0.497958 0.183586 0.818865 0.245159
C19   C     C_R   0.563047 0.208101 0.720867 -0.150778
H9    H     H_    0.468960 0.225728 0.697817 0.230410
C20   C     C_R   0.665201 0.208108 0.679169 -0.052750
C21   C     C_R   0.194749 0.554720 0.715614 -0.096839
H10   H     H_    0.214828 0.468038 0.684004 0.221739
C22   C     C_R   0.162298 0.562461 0.787207 0.151731
C23   C     C_R   0.143491 0.680224 0.826268 -0.011383
C24   C     C_R   0.147139 0.784078 0.789723 -0.090233
H11   H     H_    0.139683 0.868053 0.818280 0.255327
C25   C     C_R   0.184177 0.771534 0.720120 -0.090126
H12   H     H_    0.205569 0.845318 0.695983 0.209186
C26   C     C_R   0.205809 0.657281 0.682871 -0.036243
C27   C     C_R   0.757647 0.547162 0.281052 -0.140460
H13   H     H_    0.836542 0.457194 0.307968 0.238907
C28   C     C_R   0.767972 0.548440 0.209110 -0.059402
C29   C     C_R   0.666268 0.666913 0.172249 -0.049237
C30   C     C_R   0.543841 0.767652 0.206229 0.142013
C31   C     C_R   0.535075 0.770670 0.283979 0.138936
C32   C     C_R   0.647093 0.654971 0.318757 -0.057699
C33   C     C_R   0.524436 0.174873 0.288375 0.132670
C34   C     C_R   0.541153 0.157408 0.215731 -0.085768
C35   C     C_R   0.658487 0.140316 0.180487 -0.068772
C36   C     C_R   0.762033 0.148552 0.217430 -0.120323
H14   H     H_    0.854282 0.133367 0.191253 0.189740
C37   C     C_R   0.747511 0.181681 0.287986 -0.045861
C38   C     C_R   0.628857 0.193688 0.323232 -0.028794
C39   C     C_R   0.170843 0.772735 0.293333 -0.101708
H15   H     H_    0.186848 0.844696 0.321375 0.251099
C40   C     C_R   0.134512 0.797237 0.224434 -0.019947
C41   C     C_R   0.121157 0.694128 0.187490 -0.052340
C42   C     C_R   0.136205 0.577494 0.223127 -0.019881
C43   C     C_R   0.165196 0.559614 0.295219 -0.022833
C44   C     C_R   0.187379 0.658173 0.328482 -0.061480
O14   O     O_R   0.089490 0.825610 0.930610 -0.445562
O15   O     O_R   0.818370 0.054540 0.929880 -0.427812
C45   C     C_R   0.709499 0.091451 0.893751 0.531577
O16   O     O_R   0.605870 0.077310 0.915530 -0.523899
O17   O     O_R   0.646440 0.806700 0.917570 -0.461505
C46   C     C_R   0.732983 0.695151 0.885602 0.562629
O18   O     O_R   0.837200 0.593290 0.915250 -0.443350
O19   O     O_R   0.065330 0.635370 0.931590 -0.448026
C47   C     C_R   0.100614 0.714500 0.901075 0.555522
O20   O     O_R   0.068300 0.828790 0.091860 -0.545408
O21   O     O_R   0.798730 0.057480 0.079370 -0.516053
C48   C     C_R   0.680735 0.093063 0.107160 0.527851
O22   O     O_R   0.584680 0.080480 0.076790 -0.523032
O23   O     O_R   0.626790 0.809640 0.067050 -0.419160
C49   C     C_R   0.702420 0.692366 0.100382 0.572634
O24   O     O_R   0.816010 0.596460 0.076500 -0.572532
O25   O     O_R   0.045680 0.638310 0.081070 -0.538866
C50   C     C_R   0.077235 0.719379 0.115275 0.525608
Cr4   Cr    Cr6+3 0.937620 0.938540 0.007640 1.126986
Cr5   Cr    Cr6+3 0.625150 0.937450 0.994520 1.157513
Cr6   Cr    Cr6+3 0.937990 0.625080 0.001190 1.111957
O26   O     O_3   0.833590 0.833690 0.001120 -0.350357
C51   C     C_2   0.568535 0.931773 0.780745 0.253943
H16   H     H_    0.642521 0.942224 0.812339 0.094440
O27   O     O_2   0.475484 0.032832 0.751717 -0.479489
N1    N     N_R   0.925586 0.514724 0.661027 0.104286
O28   O     O_R   0.972850 0.394763 0.689248 -0.243465
O29   O     O_R   0.994515 0.525644 0.609699 -0.311427
N2    N     N_R   0.903166 0.198151 0.665725 0.085822
O30   O     O_R   0.031748 0.139052 0.681065 -0.212064
O31   O     O_R   0.885284 0.268426 0.610589 -0.227562
N3    N     N_R   0.953981 0.119986 0.818032 0.072862
O32   O     O_R   0.978490 0.083674 0.881991 -0.239611
O33   O     O_R   0.042592 0.153650 0.796246 -0.198376
N4    N     N_R   0.151499 0.448461 0.814511 0.045572
O34   O     O_R   0.103362 0.447387 0.875676 -0.274220
O35   O     O_R   0.169557 0.350634 0.773256 -0.252049
N5    N     N_R   0.441259 0.822693 0.815899 0.135346
O36   O     O_R   0.371889 0.927734 0.855580 -0.190781
O37   O     O_R   0.384617 0.750203 0.803867 -0.402489
C52   C     C_2   0.883182 0.418333 0.173800 0.242514
H17   H     H_    0.907915 0.392686 0.118045 0.174017
O38   O     O_2   0.969859 0.327993 0.209254 -0.358664
N6    N     N_R   0.431562 0.864300 0.160928 0.063485
O39   O     O_R   0.414357 0.838506 0.096791 -0.284731
O40   O     O_R   0.333323 0.978688 0.184131 -0.216929
N7    N     N_R   0.413406 0.881285 0.326531 0.113727
O41   O     O_R   0.422010 0.918948 0.389645 -0.233538
O42   O     O_R   0.290561 0.951987 0.303712 -0.188972
N8    N     N_R   0.399625 0.174994 0.320628 0.083154
O43   O     O_R   0.310913 0.161548 0.284537 -0.137325
O44   O     O_R   0.379478 0.161673 0.385687 -0.238731
C53   C     C_2   0.428911 0.157867 0.178687 0.431808
H18   H     H_    0.337334 0.158252 0.148508 -0.165192
O45   O     O_2   0.374918 0.143873 0.127581 0.137867
C54   C     C_2   0.853820 0.206228 0.323748 0.255171
H19   H     H_    0.859530 0.242795 0.373212 0.207076
O46   O     O_2   0.958504 0.183298 0.297648 -0.367062
C55   C     C_2   0.112266 0.930069 0.195733 0.322660
H20   H     H_    0.094368 0.965286 0.144689 0.199565
O47   O     O_2   0.118068 0.008197 0.232275 -0.344402
C56   C     C_2   0.112766 0.478826 0.185597 0.321222
H21   H     H_    0.031360 0.504564 0.149786 0.152692
O48   O     O_2   0.196259 0.360391 0.191976 -0.421961
C57   C     C_2   0.163009 0.443433 0.334693 0.313310
H22   H     H_    0.203575 0.406668 0.385535 0.199397
O49   O     O_2   0.106631 0.386012 0.310590 -0.375082
C58   C     C_2   0.830397 0.416615 0.831616 0.275677
H23   H     H_    0.924417 0.385465 0.804017 0.243724
O50   O     O_2   0.837667 0.359037 0.886432 -0.416558
C59   C     C_2   0.586801 0.539836 0.856953 0.377058
H24   H     H_    0.559064 0.460193 0.847740 0.099655
O51   O     O_2   0.532406 0.624331 0.904521 -0.388336

loop_
_geom_bond_atom_site_label_1
_geom_bond_atom_site_label_2
_geom_bond_distance
_ccdc_geom_bond_type
C2    C12   1.494824 S    
C27   H13   1.085852 S    
C3    C20   1.479872 S    
N1    O28   1.300937 A    
H3    C9    1.109373 S    
N3    O33   1.298478 A    
C18   H8    1.081316 S    
C22   N4    1.452822 S    
C48   O22   1.296389 A    
C53   H18   1.179144 S    
O14   C47   1.329546 A    
C40   C55   1.499197 S    
N2    O31   1.278215 A    
C46   O18   1.288995 A    
C28   C29   1.434926 A    
O4    Cr2   2.002670 S    
O15   C45   1.279189 A    
C16   N3    1.507478 S    
C56   O48   1.193053 D    
O8    Cr1   1.991872 S    
O11   Cr3   2.125152 S    
C13   N1    1.463010 S    
C23   C47   1.504435 S    
C57   O49   1.206608 D    
N5    O36   1.292696 A    
O4    C2    1.309884 A    
C1    C26   1.449671 S    
C58   H23   1.067442 S    
C6    C38   1.429274 S    
C5    O11   1.291326 A    
C9    C13   1.554648 S    
O15   Cr4   1.994937 S    
O25   Cr6   2.009356 S    
C52   H17   1.109208 S    
C14   H5    1.119804 S    
C42   C43   1.415922 A    
C39   C40   1.373653 A    
N4    O34   1.295422 A    
C15   C20   1.480513 A    
C15   N2    1.517411 S    
O21   Cr4   2.005966 S    
O14   Cr4   2.127921 S    
O24   Cr6   2.122429 S    
O20   C50   1.272830 A    
O6    C3    1.275999 A    
C36   C37   1.396303 A    
C24   C25   1.386850 A    
C7    C8    1.552327 S    
C35   C48   1.485314 S    
C34   C53   1.445809 S    
O22   Cr5   2.145837 S    
C30   C31   1.497953 A    
N1    O29   1.295314 A    
Cr3   O13   2.022184 S    
C18   C19   1.357987 A    
N2    O30   1.280964 A    
C25   C26   1.390978 A    
C10   C59   1.528307 S    
C28   C52   1.543051 S    
C59   O51   1.240155 D    
N6    O40   1.285000 A    
C21   C22   1.414950 A    
O1    Cr1   2.115855 S    
O18   Cr6   2.136853 S    
C43   C44   1.415269 A    
C10   C14   1.581797 S    
C37   C38   1.435055 A    
O10   Cr2   2.002597 S    
Cr1   O13   2.044173 S    
O1    C3    1.311267 A    
C8    H1    1.125174 S    
C16   C17   1.495423 A    
C45   O16   1.317086 A    
C41   C42   1.419065 A    
C55   O47   1.159180 D    
Cr4   O26   2.045758 S    
C24   H11   1.065891 S    
C29   C30   1.425237 A    
O5    Cr3   2.145679 S    
C43   C57   1.528051 S    
O12   Cr3   2.021645 S    
C10   C58   1.510503 S    
C31   C32   1.442714 A    
C12   C14   1.585532 S    
O23   Cr5   2.000819 S    
C19   H9    1.067246 S    
C8    C12   1.511235 S    
O16   Cr5   2.122888 S    
C33   C34   1.410587 A    
O6    Cr3   2.002233 S    
C7    N5    1.471414 S    
C29   C49   1.506769 S    
O20   Cr4   2.117067 S    
O19   C47   1.287272 A    
O7    Cr1   2.138800 S    
N3    O32   1.282033 A    
Cr6   O26   2.040122 S    
C21   C26   1.379000 A    
O12   C6    1.314933 A    
C5    C32   1.471871 S    
C57   H22   1.070587 S    
O17   Cr5   2.023868 S    
C31   N7    1.541025 S    
C19   C20   1.395961 A    
C2    O5    1.273058 A    
C41   C50   1.454006 S    
C17   C18   1.402070 A    
Cr2   O13   2.040847 S    
H4    C13   1.137466 S    
C23   C24   1.386596 A    
C51   O27   1.226871 D    
C27   C28   1.389036 A    
N8    O43   1.285409 A    
C17   C45   1.505936 S    
N7    O42   1.272600 A    
C1    O3    1.282902 A    
C25   H12   1.081887 S    
C59   H24   1.107308 S    
C58   O50   1.219239 D    
C21   H10   1.078956 S    
C22   C23   1.452434 A    
C30   N6    1.467335 S    
O9    Cr2   2.121567 S    
O2    Cr1   2.013703 S    
O21   C48   1.287066 A    
C37   C54   1.520443 S    
C8    H2    1.119593 S    
O17   C46   1.296044 A    
C54   O46   1.177293 D    
C53   O45   1.208205 D    
C33   N8    1.527982 S    
N6    O39   1.305988 A    
Cr5   O26   2.021698 S    
C55   H20   1.040040 S    
C56   H21   1.061546 S    
C11   C46   1.503817 S    
C33   C38   1.457078 A    
C35   C36   1.405801 A    
O2    C1    1.308953 A    
N7    O41   1.308012 A    
C40   C41   1.440015 A    
C9    C11   1.569124 S    
C12   C13   1.568349 S    
C10   C11   1.580239 S    
C49   O24   1.271216 A    
C15   C16   1.475449 A    
C42   C56   1.463467 S    
O7    C6    1.252340 A    
O19   Cr6   1.999502 S    
C27   C32   1.423251 A    
O25   C50   1.316902 A    
C52   O38   1.205462 D    
C39   C44   1.388453 A    
C14   H6    1.092551 S    
C36   H14   1.081725 S    
C39   H15   1.066971 S    
N4    O35   1.294840 A    
C34   C35   1.401819 A    
O3    Cr2   2.126242 S    
C7    C51   1.519929 S    
C4    O9    1.293223 A    
C51   H16   1.083584 S    
C4    C44   1.435260 S    
C9    H7    1.079580 S    
N8    O44   1.292855 A    
O10   C5    1.289187 A    
O23   C49   1.325240 A    
C54   H19   1.053910 S    
O8    C4    1.289218 A    
C7    C11   1.593695 S    
N5    O37   1.288025 A    
