data_mof_unit_25018.cif
_audit_creation_date              2012-12-10T17:52:06-0500
_audit_creation_method            fapswitch 2.2
_symmetry_space_group_name_H-M    P1
_symmetry_Int_Tables_number       1
_space_group_crystal_system       triclinic
_cell_length_a                    14.703192
_cell_length_b                    14.743912
_cell_length_c                    19.261886
_cell_angle_alpha                 76.659321
_cell_angle_beta                  102.798885
_cell_angle_gamma                 114.793045
_cell_volume                      3651.49219231

loop_
_atom_site_label
_atom_site_type_symbol
_atom_type_description
_atom_site_fract_x
_atom_site_fract_y
_atom_site_fract_z
_atom_type_partial_charge
C1    C     C_R   0.880249 0.312393 0.510207 0.813921
C2    C     C_R   0.119646 0.687593 0.487246 0.814183
C3    C     C_R   0.811991 0.204928 0.515316 -0.161099
C4    C     C_R   0.187172 0.794996 0.482193 -0.166697
C5    C     C_R   0.782329 0.028073 0.555450 -0.206323
C6    C     C_R   0.217269 0.968582 0.485014 -0.168523
C7    C     C_R   0.848579 0.129164 0.547743 -0.258899
C8    C     C_R   0.151129 0.867940 0.485274 -0.282430
C9    C     C_R   0.708088 0.178038 0.488806 0.374171
C10   C     C_R   0.290199 0.824190 0.477682 0.393863
C11   C     C_R   0.638760 0.078158 0.507506 -0.027596
C12   C     C_R   0.359901 0.921771 0.489942 0.001420
C13   C     C_R   0.677810 0.001999 0.536158 0.108758
C14   C     C_R   0.321351 0.995959 0.487757 0.097878
C15   C     C_R   0.532365 0.051536 0.498945 0.045396
C16   C     C_R   0.466299 0.947987 0.503979 0.068681
C17   C     C_R   0.508207 0.873911 0.529887 -0.150849
C18   C     C_R   0.490576 0.124081 0.493058 -0.145880
C19   C     C_R   0.612067 0.900790 0.546823 -0.233697
C20   C     C_R   0.387259 0.096324 0.489468 -0.219728
C21   C     C_R   0.703667 0.652321 0.370300 0.292124
C22   C     C_R   0.286013 0.333239 0.623599 0.302613
C23   C     C_R   0.999643 0.500140 0.632564 0.818971
C24   C     C_R   0.999664 0.498924 0.367741 0.818911
C25   C     C_R   0.790518 0.629501 0.392536 0.540901
C26   C     C_R   0.201351 0.360035 0.601373 0.540062
C27   C     C_R   0.718599 0.515641 0.493970 -0.006423
C28   C     C_R   0.287306 0.490858 0.512061 -0.035907
C29   C     C_R   0.624185 0.525839 0.469899 -0.055475
C30   C     C_R   0.367750 0.456747 0.524535 -0.075576
C31   C     C_R   0.618544 0.595631 0.406531 -0.103603
C32   C     C_R   0.366270 0.377855 0.582282 -0.065750
C33   C     C_R   0.535940 0.470753 0.506058 -0.010826
C34   C     C_R   0.448738 0.497226 0.481913 -0.032995
C35   C     C_R   0.442163 0.555684 0.412796 0.413515
C36   C     C_R   0.528209 0.386205 0.561717 0.402291
C37   C     C_R   0.526596 0.604926 0.377364 -0.243345
C38   C     C_R   0.441197 0.339026 0.595629 -0.239681
C39   C     C_R   0.079978 0.497164 0.760827 -0.286079
C40   C     C_R   0.967713 0.561395 0.237789 -0.252356
C41   C     C_R   0.076496 0.492032 0.833575 0.419278
C42   C     C_R   0.962731 0.556295 0.165604 0.438695
C43   C     C_R   0.990442 0.491641 0.854516 -0.176101
C44   C     C_R   0.990824 0.485050 0.147667 -0.180366
C45   C     C_R   0.907058 0.494557 0.802200 0.422543
C46   C     C_R   0.020447 0.416719 0.202651 0.329680
C47   C     C_R   0.911373 0.497741 0.729831 -0.264992
C48   C     C_R   0.023414 0.422266 0.274723 -0.294638
C49   C     C_R   0.997182 0.498593 0.708755 -0.169430
C50   C     C_R   0.997581 0.494560 0.292362 -0.168164
C51   C     C_R   0.991173 0.485446 0.071766 0.505248
C52   C     C_R   0.990120 0.489259 0.930813 0.520929
Cu1   Cu    Cu3+1 0.081740 0.475680 0.518680 0.976654
Cu2   Cu    Cu3+1 0.918260 0.524320 0.481320 0.972677
H1    H     H_    0.147661 0.499848 0.745379 0.164375
H2    H     H_    0.948719 0.618106 0.251172 0.203562
H3    H     H_    0.518238 0.650181 0.325334 0.200870
H4    H     H_    0.429578 0.267964 0.631016 0.194761
H5    H     H_    0.288397 0.557886 0.474995 0.240183
H6    H     H_    0.733684 0.472890 0.544894 0.207093
H7    H     H_    0.847347 0.499293 0.689734 0.191362
H8    H     H_    0.045070 0.369732 0.317335 0.192948
H9    H     H_    0.641029 0.841927 0.569029 0.153144
H10   H     H_    0.358914 0.153876 0.488136 0.159913
H11   H     H_    0.071868 0.847304 0.487673 0.167259
H12   H     H_    0.928403 0.147869 0.566698 0.217260
H13   H     H_    0.812516 0.970395 0.578911 0.156666
H14   H     H_    0.187525 0.024475 0.485213 0.156583
H15   H     H_    0.461790 0.794774 0.543175 0.201011
H16   H     H_    0.536721 0.202055 0.497041 0.254476
N1    N     N_R   0.923019 0.409155 0.968498 -0.165872
N2    N     N_R   0.058130 0.565524 0.034060 -0.186346
N3    N     N_R   0.923536 0.407278 0.037985 -0.179542
N4    N     N_R   0.057990 0.567144 0.964731 -0.173289
N5    N     N_R   0.795420 0.560800 0.453240 -0.261534
N6    N     N_R   0.204580 0.439200 0.546760 -0.257763
O1    O     O_R   0.977910 0.338110 0.524620 -0.541191
O2    O     O_R   0.022090 0.661890 0.475380 -0.592649
O3    O     O_R   0.839850 0.379180 0.493080 -0.529025
O4    O     O_R   0.160150 0.620820 0.506920 -0.546505
O5    O     O_R   0.069040 0.479450 0.615630 -0.585406
O6    O     O_R   0.930960 0.520550 0.384370 -0.536247
O7    O     O_R   0.930990 0.520520 0.584090 -0.598795
O8    O     O_R   0.069010 0.479480 0.415910 -0.583082
O9    O     O_3   0.109035 0.295134 0.623887 -0.555983
C53   C     C_3   0.106213 0.295723 0.696712 0.117659
H17   H     H_    0.046928 0.322523 0.698407 0.167007
H18   H     H_    0.177693 0.346521 0.724975 0.077042
C54   C     C_3   0.072719 0.187966 0.737522 -0.794776
H19   H     H_    0.073208 0.188871 0.795094 0.194030
H20   H     H_    0.994703 0.142235 0.714256 0.244604
H21   H     H_    0.123526 0.151497 0.734044 0.287404
O10   O     O_3   0.863389 0.663496 0.347176 -0.559318
C55   C     C_3   0.923949 0.767941 0.345674 0.108822
H22   H     H_    0.003234 0.776869 0.366125 0.166382
H23   H     H_    0.903490 0.805951 0.379899 0.085043
C56   C     C_3   0.924146 0.822623 0.268109 -0.772900
H24   H     H_    0.969723 0.904784 0.267555 0.216310
H25   H     H_    0.958213 0.793059 0.237122 0.241239
H26   H     H_    0.846466 0.812062 0.241043 0.285709
O11   O     O_3   0.697483 0.719008 0.307283 -0.565581
C57   C     C_3   0.700269 0.809383 0.323524 0.020002
H27   H     H_    0.779602 0.861451 0.337496 0.152667
H28   H     H_    0.658945 0.796932 0.369109 0.138550
C58   C     C_3   0.653207 0.862296 0.257368 -0.761644
H29   H     H_    0.572845 0.813127 0.242252 0.240451
H30   H     H_    0.656486 0.933971 0.269140 0.200951
H31   H     H_    0.695185 0.879839 0.211425 0.257955
O12   O     O_3   0.286441 0.257468 0.681646 -0.581058
C59   C     C_3   0.340476 0.300722 0.744886 0.049317
H32   H     H_    0.288974 0.270204 0.786386 0.165634
H33   H     H_    0.368232 0.384993 0.737806 0.124766
C60   C     C_3   0.429874 0.269665 0.775749 -0.775888
H34   H     H_    0.494576 0.316730 0.745634 0.232229
H35   H     H_    0.455029 0.281875 0.832833 0.213181
H36   H     H_    0.408009 0.188490 0.773428 0.260884
O13   O     O_3   0.352432 0.563735 0.377618 -0.628194
C61   C     C_3   0.310868 0.505789 0.320639 0.081520
H37   H     H_    0.241025 0.440755 0.335400 0.195577
H38   H     H_    0.361474 0.474239 0.308188 0.150779
C62   C     C_3   0.283097 0.570996 0.252685 -0.749919
H39   H     H_    0.351663 0.637809 0.237875 0.231948
H40   H     H_    0.250390 0.526620 0.207499 0.255798
H41   H     H_    0.226631 0.597251 0.261646 0.238428
O14   O     O_3   0.593798 0.336989 0.571678 -0.606874
C63   C     C_3   0.630977 0.316803 0.645548 0.026470
H42   H     H_    0.572120 0.253743 0.674808 0.161441
H43   H     H_    0.659329 0.385356 0.671787 0.187342
C64   C     C_3   0.717559 0.282920 0.652482 -0.755543
H44   H     H_    0.779252 0.342013 0.623740 0.242426
H45   H     H_    0.748186 0.268705 0.710221 0.219371
H46   H     H_    0.690042 0.212069 0.629409 0.248020
O15   O     O_3   0.159314 0.491523 0.884193 -0.556875
C65   C     C_3   0.156075 0.391904 0.901716 0.051955
H47   H     H_    0.163643 0.366387 0.853950 0.117150
H48   H     H_    0.084166 0.338376 0.922542 0.166409
C66   C     C_3   0.243650 0.389074 0.960263 -0.684089
H49   H     H_    0.237931 0.413494 0.008980 0.283902
H50   H     H_    0.241579 0.310900 0.974779 0.198321
H51   H     H_    0.316707 0.440314 0.940717 0.235756
O16   O     O_3   0.935319 0.625139 0.112722 -0.572755
C67   C     C_3   0.830308 0.581984 0.088033 0.089476
H52   H     H_    0.800263 0.498618 0.088563 0.133957
H53   H     H_    0.817552 0.616258 0.030896 0.211981
C68   C     C_3   0.770074 0.606412 0.131063 -0.788319
H54   H     H_    0.801818 0.688966 0.132494 0.268286
H55   H     H_    0.689905 0.582902 0.105349 0.218725
H56   H     H_    0.772192 0.565042 0.187003 0.248140
S1    S     S_3+6 0.797094 0.495501 0.825009 -0.018701
O17   O     O_2   0.826009 0.564034 0.880052 -0.290719
O18   O     O_2   0.736879 0.531578 0.759186 -0.328483
O19   O     O_3   0.725753 0.377177 0.859604 -0.536062
H57   H     H_    0.664860 0.382025 0.869663 0.369047
S2    S     S_3+6 0.055047 0.324626 0.183178 -0.004526
O20   O     O_2   0.126526 0.372339 0.128011 -0.275720
O21   O     O_2   0.105605 0.278892 0.250011 -0.316743
O22   O     O_3   0.950737 0.232807 0.149638 -0.480424
H58   H     H_    0.905493 0.206983 0.187088 0.333939
O23   O     O_3   0.321058 0.759346 0.456327 -0.609094
C69   C     C_3   0.305547 0.769817 0.380089 0.086169
H59   H     H_    0.260375 0.816060 0.351881 0.111757
H60   H     H_    0.262697 0.693320 0.364808 0.197660
C70   C     C_3   0.407262 0.815387 0.352285 -0.763415
H61   H     H_    0.454487 0.772061 0.380704 0.266391
H62   H     H_    0.395355 0.813226 0.293621 0.205976
H63   H     H_    0.447907 0.895218 0.361394 0.230329
O24   O     O_3   0.675427 0.249200 0.443072 -0.568048
C71   C     C_3   0.684167 0.248842 0.371651 0.073869
H64   H     H_    0.629683 0.176203 0.353475 0.138921
H65   H     H_    0.762482 0.260396 0.366440 0.125051
C72   C     C_3   0.659942 0.335101 0.322541 -0.724071
H66   H     H_    0.713851 0.408559 0.339352 0.265797
H67   H     H_    0.666404 0.335874 0.266030 0.190339
H68   H     H_    0.581695 0.325391 0.325435 0.245307

loop_
_geom_bond_atom_site_label_1
_geom_bond_atom_site_label_2
_ccdc_geom_bond_type
C18   H16   S    
C15   C18   A    
C72   H66   S    
C17   H15   S    
O10   C55   S    
C27   C29   A    
C1    O1    A    
Cu1   O1    S    
C70   H61   S    
C5    H13   S    
C56   H26   S    
C65   C66   S    
C41   O15   S    
C56   H24   S    
C39   C41   A    
O9    C53   S    
C25   O10   S    
C58   H30   S    
O11   C57   S    
C22   C32   A    
Cu1   O8    S    
C2    O2    A    
C70   H62   S    
C60   H34   S    
C3    C7    A    
C27   H6    S    
S1    O18   D    
C57   H28   S    
C53   H18   S    
C43   C52   S    
C23   C49   S    
C15   C16   A    
C29   C33   A    
C33   C36   A    
Cu2   O2    S    
C57   C58   S    
Cu1   O5    S    
C34   C35   A    
C24   O6    A    
C61   H37   S    
C62   H41   S    
C56   H25   S    
C38   H4    S    
C11   C15   A    
O22   H58   S    
C39   H1    S    
C12   C16   A    
C19   H9    S    
C16   C17   A    
C40   H2    S    
C26   N6    A    
C32   C38   A    
C54   H20   S    
S2    O21   D    
C4    C8    A    
C60   H36   S    
C21   O11   S    
C40   C42   A    
C8    H11   S    
C41   C43   A    
C67   C68   S    
C55   H22   S    
O16   C67   S    
C42   C44   A    
C27   N5    A    
C10   C12   A    
Cu2   O7    S    
C68   H55   S    
C44   C46   A    
C68   H54   S    
C59   H33   S    
C45   C47   A    
C24   C50   S    
C46   S2    S    
C72   H68   S    
C46   C48   A    
C36   O14   S    
C30   C34   A    
C69   C70   S    
C14   C20   A    
C9    O24   S    
C70   H63   S    
S2    O22   S    
C47   C49   A    
S1    O19   S    
O24   C71   S    
C5    C7    A    
C13   C19   A    
C53   H17   S    
C6    C8    A    
C55   C56   S    
Cu1   Cu2   S    
C59   H32   S    
C60   H35   S    
C25   N5    A    
C61   C62   S    
C69   H60   S    
C20   H10   S    
C2    C4    S    
C3    C9    A    
C6    C14   A    
C66   H50   S    
C48   H8    S    
O23   C69   S    
C22   O12   S    
Cu1   O4    S    
C42   O16   S    
C33   C34   A    
C62   H39   S    
C58   H31   S    
C54   H21   S    
C55   H23   S    
C48   C50   A    
C43   C45   A    
C59   C60   S    
S2    O20   D    
C21   C31   A    
C23   O7    A    
C44   C51   S    
N2    N4    A    
C71   H64   S    
C39   C49   A    
C12   C14   A    
C9    C11   A    
O15   C65   S    
C1    O3    A    
C67   H53   S    
C35   O13   S    
Cu1   N6    S    
C51   N2    A    
C4    C10   A    
C28   N6    A    
Cu2   O6    S    
C68   H56   S    
N1    N3    A    
C64   H44   S    
C66   H49   S    
C28   H5    S    
C21   C25   A    
C63   H43   S    
C23   O5    A    
C35   C37   A    
C5    C13   A    
C26   O9    S    
C51   N3    A    
C53   C54   S    
C47   H7    S    
C18   C20   A    
C65   H48   S    
C65   H47   S    
C72   H67   S    
C58   H29   S    
C52   N4    A    
C63   C64   S    
C71   H65   S    
C69   H59   S    
C64   H46   S    
C36   C38   A    
C24   O8    A    
C28   C30   A    
C29   C31   A    
C52   N1    A    
S1    O17   D    
C7    H12   S    
C30   C32   A    
C11   C13   A    
O14   C63   S    
C63   H42   S    
C40   C50   A    
C66   H51   S    
C6    H14   S    
C17   C19   A    
C45   S1    S    
C57   H27   S    
C61   H38   S    
C62   H40   S    
C2    O4    A    
Cu2   O3    S    
Cu2   N5    S    
C31   C37   A    
O19   H57   S    
C22   C26   A    
O12   C59   S    
C67   H52   S    
C71   C72   S    
C1    C3    S    
C54   H19   S    
O13   C61   S    
C10   O23   S    
C37   H3    S    
C64   H45   S    
