data_mof_unit_29049.cif
_audit_creation_date              2012-12-11T14:13:05-0500
_audit_creation_method            fapswitch 2.2
_symmetry_space_group_name_H-M    P1
_symmetry_Int_Tables_number       1
_space_group_crystal_system       monoclinic
_cell_length_a                    11.622868
_cell_length_b                    18.820473
_cell_length_c                    10.106855
_cell_angle_alpha                 90.0
_cell_angle_beta                  110.002741
_cell_angle_gamma                 90.0
_cell_volume                      2077.48610874

loop_
_atom_site_label
_atom_site_type_symbol
_atom_type_description
_atom_site_fract_x
_atom_site_fract_y
_atom_site_fract_z
_atom_type_partial_charge
C1    C     C_R   0.081918 0.643862 0.143563 0.576212
C2    C     C_R   0.918082 0.356138 0.856437 0.576212
C3    C     C_R   0.918082 0.143862 0.856437 0.576212
C4    C     C_R   0.081917 0.856138 0.143563 0.576212
C5    C     C_R   0.440835 0.473695 0.590509 0.011127
C6    C     C_R   0.559165 0.526304 0.409491 0.011128
C7    C     C_R   0.559165 0.973696 0.409490 0.011127
C8    C     C_R   0.440835 0.026304 0.590509 0.011128
C9    C     C_2   0.383911 0.932099 0.956178 -0.061542
C10   C     C_2   0.616089 0.067901 0.043822 -0.061542
C11   C     C_2   0.616089 0.432099 0.043822 -0.061541
C12   C     C_2   0.383911 0.567901 0.956177 -0.061542
C13   C     C_2   0.490009 0.963049 0.973284 0.088719
C14   C     C_2   0.509991 0.036951 0.026716 0.088720
C15   C     C_2   0.509991 0.463049 0.026716 0.088719
C16   C     C_2   0.490009 0.536951 0.973284 0.088719
C17   C     C_2   0.039497 0.929053 0.126659 -0.064972
C18   C     C_2   0.960501 0.070947 0.873340 -0.064974
C19   C     C_2   0.960503 0.429053 0.873341 -0.064973
C20   C     C_2   0.039498 0.570947 0.126660 -0.064973
C21   C     C_2   0.012286 0.962089 0.003867 -0.106590
C22   C     C_2   0.987710 0.037910 0.996131 -0.106593
C23   C     C_2   0.987712 0.462089 0.996132 -0.106592
C24   C     C_2   0.012289 0.537911 0.003868 -0.106593
C25   C     C_R   0.437083 0.637890 0.377478 0.525061
C26   C     C_R   0.562917 0.362110 0.622522 0.525061
C27   C     C_R   0.562917 0.137890 0.622522 0.525061
C28   C     C_R   0.437083 0.862110 0.377478 0.525061
C29   C     C_R   0.373578 0.643820 0.967950 0.582111
C30   C     C_R   0.626422 0.356180 0.032049 0.582111
C31   C     C_R   0.626422 0.143820 0.032049 0.582111
C32   C     C_R   0.373578 0.856180 0.967951 0.582111
C33   C     C_R   0.543521 0.437584 0.577821 -0.002057
C34   C     C_R   0.456479 0.562416 0.422179 -0.002057
C35   C     C_R   0.456479 0.937583 0.422178 -0.002057
C36   C     C_R   0.543521 0.062416 0.577821 -0.002057
C37   C     C_R   0.382315 0.450914 0.684427 -0.060188
C38   C     C_R   0.617685 0.549086 0.315573 -0.060188
C39   C     C_R   0.617685 0.950914 0.315572 -0.060188
C40   C     C_R   0.382315 0.049086 0.684427 -0.060188
C41   C     C_R   0.265832 0.473122 0.672049 0.195345
C42   C     C_R   0.734168 0.526878 0.327951 0.195344
C43   C     C_R   0.734168 0.973122 0.327951 0.195344
C44   C     C_R   0.265832 0.026877 0.672049 0.195345
C45   C     C_R   0.211759 0.528505 0.580409 0.041002
C46   C     C_R   0.788241 0.471495 0.419591 0.041004
C47   C     C_R   0.788240 0.028505 0.419591 0.041003
C48   C     C_R   0.211760 0.971495 0.580409 0.041003
C49   C     C_R   0.273607 0.554883 0.494800 -0.141318
C50   C     C_R   0.726393 0.445117 0.505200 -0.141317
C51   C     C_R   0.726393 0.054884 0.505199 -0.141317
C52   C     C_R   0.273607 0.945117 0.494800 -0.141317
C53   C     C_R   0.390443 0.531208 0.502199 0.022694
C54   C     C_R   0.609558 0.468792 0.497801 0.022694
C55   C     C_R   0.609557 0.031208 0.497800 0.022694
C56   C     C_R   0.390443 0.968792 0.502199 0.022694
Cr1   Cr    Cr6+3 0.187610 0.750000 0.979860 1.088296
Cr2   Cr    Cr6+3 0.812390 0.250000 0.020140 1.088298
Cr3   Cr    Cr6+3 0.245810 0.750000 0.341640 1.045163
Cr4   Cr    Cr6+3 0.754190 0.250000 0.658360 1.045163
Cr5   Cr    Cr6+3 0.485760 0.750000 0.219910 1.117956
Cr6   Cr    Cr6+3 0.514240 0.250000 0.780090 1.117956
H1    H     H_    0.423770 0.413050 0.765727 0.186507
H2    H     H_    0.576230 0.586950 0.234273 0.186507
H3    H     H_    0.576230 0.913050 0.234272 0.186507
H4    H     H_    0.423770 0.086950 0.765728 0.186507
H5    H     H_    0.226065 0.590939 0.416595 0.151815
H6    H     H_    0.773935 0.409061 0.583404 0.151816
H7    H     H_    0.773935 0.090939 0.583404 0.151815
H8    H     H_    0.226065 0.909061 0.416595 0.151815
H9    H     H_    0.693029 0.037627 0.036307 0.158531
H10   H     H_    0.306971 0.962373 0.963693 0.158532
H11   H     H_    0.306971 0.537627 0.963692 0.158531
H12   H     H_    0.693029 0.462373 0.036308 0.158532
H13   H     H_    0.988913 0.066401 0.090140 0.210438
H14   H     H_    0.011082 0.933598 0.909858 0.210437
H15   H     H_    0.011086 0.566401 0.909859 0.210437
H16   H     H_    0.988915 0.433598 0.090141 0.210438
H17   H     H_    0.955492 0.041253 0.779547 0.171338
H18   H     H_    0.044507 0.958747 0.220453 0.171338
H19   H     H_    0.044507 0.541253 0.220453 0.171338
H20   H     H_    0.955493 0.458747 0.779547 0.171339
O1    O     O_R   0.267710 0.668200 0.902110 -0.495858
O2    O     O_R   0.732290 0.331800 0.097890 -0.495856
O3    O     O_R   0.732290 0.168200 0.097890 -0.495858
O4    O     O_R   0.267710 0.831800 0.902110 -0.495857
O5    O     O_R   0.099480 0.674460 0.038850 -0.485951
O6    O     O_R   0.900520 0.325540 0.961150 -0.485951
O7    O     O_R   0.900520 0.174460 0.961150 -0.485951
O8    O     O_R   0.099480 0.825540 0.038850 -0.485952
O9    O     O_R   0.116720 0.669210 0.267660 -0.535131
O10   O     O_R   0.883280 0.330790 0.732340 -0.535131
O11   O     O_R   0.883280 0.169210 0.732340 -0.535131
O12   O     O_R   0.116720 0.830790 0.267660 -0.535131
O13   O     O_R   0.366710 0.675440 0.427590 -0.483813
O14   O     O_R   0.633290 0.324560 0.572410 -0.483813
O15   O     O_R   0.633290 0.175440 0.572410 -0.483813
O16   O     O_R   0.366710 0.824560 0.427590 -0.483813
O17   O     O_R   0.534870 0.669390 0.371760 -0.476170
O18   O     O_R   0.465130 0.330610 0.628240 -0.476170
O19   O     O_R   0.465130 0.169390 0.628240 -0.476170
O20   O     O_R   0.534870 0.830610 0.371760 -0.476170
O21   O     O_R   0.453080 0.674480 0.075160 -0.491218
O22   O     O_R   0.546920 0.325520 0.924840 -0.491218
O23   O     O_R   0.546920 0.174480 0.924840 -0.491218
O24   O     O_R   0.453080 0.825520 0.075160 -0.491218
O25   O     O_3   0.306390 0.750000 0.180470 -0.344470
O26   O     O_3   0.693610 0.250000 0.819530 -0.344470
Br1   Br    Br    0.180502 0.414749 0.760989 -0.452277
Br2   Br    Br    0.819498 0.585251 0.239011 -0.452277
Br3   Br    Br    0.819498 0.914749 0.239011 -0.452277
Br4   Br    Br    0.180503 0.085250 0.760990 -0.452276
C57   C     C_2   0.094748 0.562359 0.573054 0.284551
H21   H     H_    0.050008 0.598844 0.487972 0.160170
O27   O     O_2   0.049485 0.552849 0.664026 -0.514798
C58   C     C_2   0.905252 0.437641 0.426945 0.284552
H22   H     H_    0.949994 0.401157 0.512030 0.160170
O28   O     O_2   0.950512 0.447149 0.335970 -0.514796
C59   C     C_2   0.905252 0.062359 0.426945 0.284552
H23   H     H_    0.949993 0.098843 0.512029 0.160170
O29   O     O_2   0.950514 0.052850 0.335972 -0.514797
C60   C     C_2   0.094748 0.937641 0.573054 0.284552
H24   H     H_    0.050007 0.901157 0.487970 0.160170
O30   O     O_2   0.049485 0.947150 0.664027 -0.514797
Br5   Br    Br    0.394524 0.086923 0.093279 -0.447213
Br6   Br    Br    0.605476 0.913077 0.906722 -0.447214
Br7   Br    Br    0.605476 0.586923 0.906722 -0.447213
Br8   Br    Br    0.394524 0.413077 0.093278 -0.447213

loop_
_geom_bond_atom_site_label_1
_geom_bond_atom_site_label_2
_ccdc_geom_bond_type
C1    O5    A    
C44   C48   A    
C31   O3    A    
C5    C37   A    
C12   C29   S    
C39   H3    S    
C9    H10   S    
C7    C55   A    
C6    C34   A    
C8    C56   A    
Cr6   O23   S    
C58   H22   S    
C21   H14   S    
C50   C54   A    
C14   Br5   S    
Cr3   O13   S    
C5    C53   A    
Cr5   O21   S    
C38   C42   A    
C48   C60   S    
Cr6   O26   S    
C16   Br7   S    
C15   C16   S    
Cr1   O4    S    
C29   O21   A    
C3    C18   S    
C8    C36   A    
C9    C13   D    
C20   H19   S    
C9    C32   S    
C11   C15   D    
C10   C31   S    
C25   O17   A    
C20   C24   D    
C28   C35   S    
C18   H17   S    
C5    C33   A    
C23   C24   S    
C6    C38   A    
C2    O6    A    
Cr3   O12   S    
C19   H20   S    
C40   C44   A    
Cr6   O22   S    
Cr4   O26   S    
C25   C34   S    
Cr6   O19   S    
Cr4   O11   S    
C47   C59   S    
C35   C56   A    
C1    O9    A    
C32   O24   A    
C12   H11   S    
C37   C41   A    
C31   O23   A    
Cr5   O17   S    
C43   Br3   S    
C22   H13   S    
C6    C54   A    
C37   H1    S    
C38   H2    S    
C59   O29   D    
C26   O14   A    
Cr2   O26   S    
Cr1   O8    S    
C12   C16   D    
C11   C30   S    
Cr4   O15   S    
C10   C14   D    
C39   C43   A    
C27   O19   A    
C17   H18   S    
Cr3   O25   S    
Cr1   O5    S    
C19   C23   D    
Cr2   O2    S    
C26   C33   S    
C45   C49   A    
C32   O4    A    
Cr1   O1    S    
C3    O11   A    
Cr3   O9    S    
C2    O10   A    
Cr5   O24   S    
C28   O20   A    
C4    O12   A    
C13   Br6   S    
Cr4   O14   S    
Cr1   O25   S    
C25   O13   A    
C15   Br8   S    
C42   C46   A    
Cr6   O18   S    
C4    C17   S    
C60   O30   D    
Cr2   O3    S    
C44   Br4   S    
C57   H21   S    
C28   O16   A    
C33   C54   A    
C27   O15   A    
C1    C20   S    
C7    C39   A    
C49   H5    S    
C2    C19   S    
C18   C22   D    
C7    C35   A    
C11   H12   S    
Cr2   O6    S    
C47   C51   A    
C59   H23   S    
C4    O8    A    
C29   O1    A    
C27   C36   S    
C8    C40   A    
C46   C50   A    
C46   C58   S    
C3    O7    A    
C21   C22   S    
Cr5   O20   S    
C42   Br2   S    
C36   C55   A    
C10   H9    S    
C50   H6    S    
C49   C53   A    
C40   H4    S    
C58   O28   D    
C51   C55   A    
C23   H16   S    
C30   O2    A    
Cr5   O25   S    
Cr2   O7    S    
C17   C21   D    
C52   H8    S    
C45   C57   S    
C24   H15   S    
C48   C52   A    
C34   C53   A    
C30   O22   A    
Cr3   O16   S    
C41   C45   A    
C41   Br1   S    
C51   H7    S    
C60   H24   S    
C13   C14   S    
Cr4   O10   S    
C43   C47   A    
C52   C56   A    
C26   O18   A    
C57   O27   D    
