data_mof_unit_64005.cif
_audit_creation_date              2013-03-05T16:36:43-0500
_audit_creation_method            fapswitch 2.2
_symmetry_space_group_name_H-M    P1
_symmetry_Int_Tables_number       1
_space_group_crystal_system       triclinic
_cell_length_a                    35.521114
_cell_length_b                    35.521139
_cell_length_c                    55.759825
_cell_angle_alpha                 89.999897
_cell_angle_beta                  89.999893
_cell_angle_gamma                 89.999974
_cell_volume                      70354.9830492

loop_
_atom_site_label
_atom_site_type_symbol
_atom_site_description
_atom_site_fract_x
_atom_site_fract_y
_atom_site_fract_z
_atom_type_partial_charge
O1    O     O_R   0.531300 0.944560 0.500000 -0.586592
O2    O     O_R   0.055440 0.531300 0.500000 -0.586572
O3    O     O_R   0.468700 0.055440 0.500000 -0.586593
O4    O     O_R   0.944560 0.468700 0.500000 -0.586572
O5    O     O_R   0.531300 0.055440 0.500000 -0.586458
O6    O     O_R   0.055440 0.468700 0.500000 -0.586488
O7    O     O_R   0.468700 0.944560 0.500000 -0.586458
O8    O     O_R   0.944560 0.531300 0.500000 -0.586488
O9    O     O_R   0.031300 0.444560 0.000000 -0.586590
O10   O     O_R   0.555440 0.031300 0.000000 -0.586617
O11   O     O_R   0.968700 0.555440 0.000000 -0.586590
O12   O     O_R   0.444560 0.968700 0.000000 -0.586618
O13   O     O_R   0.031300 0.555440 0.000000 -0.586508
O14   O     O_R   0.555440 0.968700 0.000000 -0.586489
O15   O     O_R   0.968700 0.444560 0.000000 -0.586508
O16   O     O_R   0.444560 0.031300 0.000000 -0.586489
C1    C     C_R   0.500000 0.926657 0.500000 0.990242
C2    C     C_R   0.073343 0.500000 0.500000 0.990213
C3    C     C_R   0.500000 0.073343 0.500000 0.990241
C4    C     C_R   0.926657 0.500000 0.500000 0.990214
C5    C     C_R   0.000000 0.426657 0.000000 0.990055
C6    C     C_R   0.573343 0.000000 0.000000 0.990023
C7    C     C_R   1.000000 0.573343 0.000000 0.990053
C8    C     C_R   0.426657 1.000000 0.000000 0.990025
O17   O     O_R   0.531300 0.999990 0.535630 -0.604894
O18   O     O_R   0.000010 0.531300 0.535630 -0.604810
O19   O     O_R   0.468700 0.000010 0.535630 -0.604894
O20   O     O_R   0.999990 0.468700 0.535630 -0.604810
O21   O     O_R   0.531300 0.000010 0.464370 -0.604610
O22   O     O_R   0.000010 0.468700 0.464370 -0.604632
O23   O     O_R   0.468700 0.999990 0.464370 -0.604610
O24   O     O_R   0.999990 0.531300 0.464370 -0.604632
O25   O     O_R   0.031300 0.499990 0.035630 -0.604639
O26   O     O_R   0.500010 0.031300 0.035630 -0.604656
O27   O     O_R   0.968700 0.500010 0.035630 -0.604639
O28   O     O_R   0.499990 0.968700 0.035630 -0.604654
O29   O     O_R   0.031300 0.500010 0.964370 -0.604456
O30   O     O_R   0.500010 0.968700 0.964370 -0.604368
O31   O     O_R   0.968700 0.499990 0.964370 -0.604455
O32   O     O_R   0.499990 0.031300 0.964370 -0.604369
C9    C     C_R   0.500000 0.000000 0.547105 0.961863
C10   C     C_R   0.000000 0.500000 0.547104 0.961740
C11   C     C_R   0.500000 1.000000 0.452899 0.961459
C12   C     C_R   1.000000 0.500000 0.452898 0.961488
C13   C     C_R   1.000000 0.500000 0.047102 0.961488
C14   C     C_R   0.500000 0.000000 0.047102 0.961509
C15   C     C_R   1.000000 0.500000 0.952900 0.961229
C16   C     C_R   0.500000 0.000000 0.952901 0.961108
Zn1   Zn    Zn3+2 0.541800 0.000000 0.500000 1.166727
Zn2   Zn    Zn3+2 1.000000 0.541800 0.500000 1.166754
Zn3   Zn    Zn3+2 0.458200 0.000000 0.500000 1.166727
Zn4   Zn    Zn3+2 1.000000 0.458200 0.500000 1.166754
Zn5   Zn    Zn3+2 0.041800 0.500000 0.000000 1.166929
Zn6   Zn    Zn3+2 0.500000 0.041800 0.000000 1.166958
Zn7   Zn    Zn3+2 0.958200 0.500000 0.000000 1.166929
Zn8   Zn    Zn3+2 0.500000 0.958200 0.000000 1.166958
C17   C     C_R   0.522567 0.973855 0.737316 0.030891
C18   C     C_R   0.025962 0.522778 0.737312 0.030893
C19   C     C_R   0.477438 0.026150 0.737317 0.030891
C20   C     C_R   0.974032 0.477227 0.737313 0.030893
C21   C     C_R   0.523251 0.025541 0.262696 0.030893
C22   C     C_R   0.025581 0.476795 0.262695 0.030893
C23   C     C_R   0.476738 0.974472 0.262696 0.030891
C24   C     C_R   0.974417 0.523204 0.262695 0.030892
C25   C     C_R   0.976810 0.525595 0.237305 0.030893
C26   C     C_R   0.474350 0.976871 0.237307 0.030894
C27   C     C_R   0.023188 0.474404 0.237305 0.030892
C28   C     C_R   0.525636 0.023144 0.237306 0.030893
C29   C     C_R   0.976383 0.474798 0.762702 0.030894
C30   C     C_R   0.474988 0.023818 0.762706 0.030890
C31   C     C_R   0.023611 0.525208 0.762702 0.030894
C32   C     C_R   0.525018 0.976189 0.762706 0.030891
C33   C     C_R   0.500002 0.000003 0.724639 0.098009
C34   C     C_R   0.999997 0.500002 0.724636 0.098011
C35   C     C_R   0.499995 0.000005 0.275372 0.098020
C36   C     C_R   0.999999 0.500000 0.275372 0.098018
C37   C     C_R   0.999999 0.500000 0.224629 0.098018
C38   C     C_R   0.499993 0.000007 0.224629 0.098017
C39   C     C_R   0.999997 0.500003 0.775379 0.098023
C40   C     C_R   0.500003 0.000003 0.775382 0.098029
C41   C     C_R   0.541953 0.946024 0.724201 -0.218648
C42   C     C_R   0.053634 0.542391 0.724197 -0.218653
C43   C     C_R   0.458051 0.053982 0.724201 -0.218648
C44   C     C_R   0.946361 0.457613 0.724197 -0.218652
C45   C     C_R   0.543379 0.052841 0.275811 -0.218671
C46   C     C_R   0.052922 0.456722 0.275810 -0.218669
C47   C     C_R   0.456612 0.947170 0.275811 -0.218672
C48   C     C_R   0.947076 0.543277 0.275810 -0.218668
C49   C     C_R   0.956754 0.552949 0.224190 -0.218667
C50   C     C_R   0.446952 0.956875 0.224192 -0.218667
C51   C     C_R   0.043244 0.447051 0.224190 -0.218667
C52   C     C_R   0.553030 0.043144 0.224190 -0.218665
C53   C     C_R   0.955869 0.447787 0.775819 -0.218676
C54   C     C_R   0.448140 0.044546 0.775822 -0.218683
C55   C     C_R   0.044124 0.552220 0.775818 -0.218676
C56   C     C_R   0.551866 0.955461 0.775822 -0.218684
C57   C     C_R   0.541648 0.945201 0.699265 0.331527
C58   C     C_R   0.054458 0.542094 0.699260 0.331525
C59   C     C_R   0.458355 0.054804 0.699265 0.331527
C60   C     C_R   0.945538 0.457910 0.699260 0.331525
C61   C     C_R   0.543094 0.053672 0.300748 0.331547
C62   C     C_R   0.053753 0.457010 0.300748 0.331542
C63   C     C_R   0.456900 0.946336 0.300748 0.331548
C64   C     C_R   0.946245 0.542989 0.300747 0.331542
C65   C     C_R   0.957042 0.553780 0.199253 0.331541
C66   C     C_R   0.446120 0.957166 0.199255 0.331548
C67   C     C_R   0.042956 0.446220 0.199253 0.331541
C68   C     C_R   0.553860 0.042854 0.199253 0.331542
C69   C     C_R   0.956145 0.446951 0.800756 0.331549
C70   C     C_R   0.447299 0.044274 0.800760 0.331561
C71   C     C_R   0.043849 0.553056 0.800756 0.331549
C72   C     C_R   0.552707 0.955733 0.800759 0.331562
C73   C     C_R   0.520390 0.972101 0.686406 -0.129037
C74   C     C_R   0.027735 0.520613 0.686402 -0.129029
C75   C     C_R   0.479612 0.027903 0.686406 -0.129038
C76   C     C_R   0.972262 0.479390 0.686403 -0.129030
C77   C     C_R   0.521115 0.027356 0.313605 -0.129018
C78   C     C_R   0.027394 0.478937 0.313604 -0.129020
C79   C     C_R   0.478881 0.972650 0.313605 -0.129017
C80   C     C_R   0.972604 0.521062 0.313604 -0.129019
C81   C     C_R   0.978953 0.527407 0.186396 -0.129020
C82   C     C_R   0.472542 0.979016 0.186397 -0.129024
C83   C     C_R   0.021046 0.472592 0.186396 -0.129019
C84   C     C_R   0.527442 0.020998 0.186396 -0.129020
C85   C     C_R   0.978503 0.472947 0.813611 -0.129006
C86   C     C_R   0.473115 0.021708 0.813615 -0.129002
C87   C     C_R   0.021493 0.527059 0.813611 -0.129008
C88   C     C_R   0.526890 0.978297 0.813614 -0.129004
C89   C     C_R   0.500001 0.000002 0.699148 -0.098515
C90   C     C_R   0.999998 0.500002 0.699145 -0.098538
C91   C     C_R   0.499997 0.000004 0.300863 -0.098588
C92   C     C_R   0.999999 0.500000 0.300862 -0.098581
C93   C     C_R   0.999999 0.500000 0.199138 -0.098579
C94   C     C_R   0.499992 0.000007 0.199139 -0.098567
C95   C     C_R   0.999998 0.500003 0.800869 -0.098624
C96   C     C_R   0.500002 0.000003 0.800872 -0.098648
C97   C     C_R   0.517752 0.971511 0.661207 0.664150
C98   C     C_R   0.028351 0.517970 0.661204 0.664146
C99   C     C_R   0.482249 0.028492 0.661207 0.664150
C100  C     C_R   0.971646 0.482030 0.661204 0.664146
C101  C     C_R   0.518473 0.028028 0.338803 0.664106
C102  C     C_R   0.028061 0.481580 0.338802 0.664108
C103  C     C_R   0.481525 0.971975 0.338803 0.664102
C104  C     C_R   0.971937 0.518419 0.338802 0.664109
C105  C     C_R   0.981596 0.528073 0.161198 0.664110
C106  C     C_R   0.471887 0.981652 0.161198 0.664116
C107  C     C_R   0.018403 0.471927 0.161198 0.664109
C108  C     C_R   0.528100 0.018356 0.161198 0.664117
C109  C     C_R   0.981150 0.472228 0.838809 0.664076
C110  C     C_R   0.472370 0.019060 0.838811 0.664058
C111  C     C_R   0.018847 0.527777 0.838808 0.664077
C112  C     C_R   0.527633 0.980943 0.838811 0.664058
N1    N     N_R   0.500000 0.000001 0.649351 -0.335522
N2    N     N_R   0.999999 0.500000 0.649347 -0.335535
N3    N     N_R   0.500000 0.000001 0.350661 -0.335563
N4    N     N_R   0.999999 0.500000 0.350660 -0.335561
N5    N     N_R   1.000000 0.500000 0.149340 -0.335561
N6    N     N_R   0.499994 0.000003 0.149341 -0.335555
N7    N     N_R   0.999999 0.500002 0.850667 -0.335586
N8    N     N_R   0.500002 0.000001 0.850671 -0.335597
H1    H     H_    0.557634 0.923911 0.732857 0.191464
H2    H     H_    0.075616 0.558255 0.732852 0.191477
H3    H     H_    0.442371 0.076095 0.732857 0.191463
H4    H     H_    0.924378 0.441751 0.732852 0.191476
H5    H     H_    0.559653 0.074520 0.267155 0.191491
H6    H     H_    0.074633 0.440491 0.267155 0.191491
H7    H     H_    0.440337 0.925492 0.267155 0.191493
H8    H     H_    0.925364 0.559507 0.267155 0.191491
H9    H     H_    0.940537 0.574670 0.232845 0.191490
H10   H     H_    0.425194 0.940707 0.232848 0.191478
H11   H     H_    0.059462 0.425329 0.232846 0.191490
H12   H     H_    0.574786 0.059316 0.232846 0.191485
H13   H     H_    0.939283 0.426345 0.767164 0.191510
H14   H     H_    0.426833 0.061304 0.767166 0.191521
H15   H     H_    0.060709 0.573663 0.767163 0.191509
H16   H     H_    0.573174 0.938704 0.767166 0.191520
O33   O     O_2   0.532208 0.942669 0.648455 -0.436702
O34   O     O_2   0.057088 0.532639 0.648453 -0.436689
O35   O     O_2   0.467792 0.057333 0.648455 -0.436701
O36   O     O_2   0.942911 0.467361 0.648453 -0.436688
O37   O     O_2   0.533643 0.056505 0.351551 -0.436657
O38   O     O_2   0.056568 0.466467 0.351550 -0.436660
O39   O     O_2   0.466358 0.943496 0.351550 -0.436655
O40   O     O_2   0.943430 0.533534 0.351551 -0.436659
O41   O     O_2   0.966498 0.556588 0.148449 -0.436656
O42   O     O_2   0.443349 0.966599 0.148449 -0.436653
O43   O     O_2   0.033501 0.443412 0.148449 -0.436655
O44   O     O_2   0.556640 0.033405 0.148449 -0.436659
O45   O     O_2   0.965613 0.443946 0.851554 -0.436631
O46   O     O_2   0.444202 0.034804 0.851556 -0.436619
O47   O     O_2   0.034386 0.556058 0.851554 -0.436628
O48   O     O_2   0.555801 0.965198 0.851556 -0.436617
C113  C     C_R   0.466604 0.991058 0.611027 0.321236
C114  C     C_R   0.009165 0.466664 0.611023 0.321329
C115  C     C_R   0.533396 0.008944 0.611027 0.321234
C116  C     C_R   0.990833 0.533336 0.611022 0.321327
C117  C     C_R   0.466809 0.009680 0.388987 0.321551
C118  C     C_R   0.009623 0.533207 0.388986 0.321528
C119  C     C_R   0.533191 0.990321 0.388987 0.321555
C120  C     C_R   0.990376 0.466793 0.388986 0.321528
C121  C     C_R   0.033212 0.509607 0.111014 0.321518
C122  C     C_R   0.490432 0.033226 0.111014 0.321492
C123  C     C_R   0.966788 0.490393 0.111014 0.321517
C124  C     C_R   0.509559 0.966777 0.111016 0.321499
C125  C     C_R   0.033077 0.489940 0.888994 0.321718
C126  C     C_R   0.489727 0.966989 0.888998 0.321811
C127  C     C_R   0.966922 0.510063 0.888995 0.321715
C128  C     C_R   0.510275 0.033013 0.888999 0.321808
C129  C     C_R   0.466909 0.991834 0.585969 -0.192102
C130  C     C_R   0.008382 0.466963 0.585965 -0.192189
C131  C     C_R   0.533091 0.008167 0.585969 -0.192101
C132  C     C_R   0.991618 0.533037 0.585965 -0.192188
C133  C     C_R   0.467092 0.008877 0.414044 -0.192386
C134  C     C_R   0.008822 0.532922 0.414043 -0.192365
C135  C     C_R   0.532908 0.991124 0.414044 -0.192389
C136  C     C_R   0.991177 0.467078 0.414043 -0.192365
C137  C     C_R   0.032926 0.508807 0.085957 -0.192348
C138  C     C_R   0.491232 0.032938 0.085957 -0.192325
C139  C     C_R   0.967073 0.491193 0.085957 -0.192347
C140  C     C_R   0.508762 0.967063 0.085959 -0.192327
C141  C     C_R   0.032806 0.490756 0.914051 -0.192517
C142  C     C_R   0.490551 0.967252 0.914055 -0.192592
C143  C     C_R   0.967193 0.509246 0.914052 -0.192515
C144  C     C_R   0.509450 0.032748 0.914056 -0.192591
H17   H     H_    0.441420 0.984988 0.576239 0.218370
H18   H     H_    0.015398 0.441522 0.576233 0.218210
H19   H     H_    0.558580 0.015013 0.576238 0.218370
H20   H     H_    0.984602 0.558478 0.576232 0.218210
H21   H     H_    0.441765 0.016282 0.423781 0.217836
H22   H     H_    0.016185 0.558262 0.423779 0.217877
H23   H     H_    0.558235 0.983718 0.423781 0.217836
H24   H     H_    0.983814 0.441738 0.423780 0.217877
H25   H     H_    0.058270 0.516157 0.076221 0.217893
H26   H     H_    0.483915 0.058291 0.076221 0.217928
H27   H     H_    0.941730 0.483843 0.076221 0.217893
H28   H     H_    0.516080 0.941709 0.076223 0.217927
H29   H     H_    0.058044 0.483060 0.923791 0.217561
H30   H     H_    0.482694 0.942065 0.923797 0.217406
H31   H     H_    0.941956 0.516941 0.923792 0.217561
H32   H     H_    0.517306 0.057935 0.923798 0.217406
C145  C     C_R   0.500000 0.000000 0.573393 -0.129513
C146  C     C_R   1.000000 0.500000 0.573390 -0.129240
C147  C     C_R   0.500000 0.000000 0.426616 -0.128623
C148  C     C_R   1.000000 0.500000 0.426615 -0.128690
C149  C     C_R   1.000000 0.500000 0.073385 -0.128705
C150  C     C_R   0.499998 0.000000 0.073386 -0.128758
C151  C     C_R   1.000000 0.500001 0.926621 -0.128163
C152  C     C_R   0.500000 0.000000 0.926624 -0.127910
O49   O     O_R   0.444640 0.499970 0.520100 -0.575801
O50   O     O_R   0.500030 0.444640 0.520100 -0.575801
O51   O     O_R   0.555360 0.500030 0.520100 -0.575800
O52   O     O_R   0.499970 0.555360 0.520100 -0.575800
O53   O     O_R   0.444640 0.500030 0.479900 -0.575814
O54   O     O_R   0.500030 0.555360 0.479900 -0.575815
O55   O     O_R   0.555360 0.499970 0.479900 -0.575815
O56   O     O_R   0.499970 0.444640 0.479900 -0.575814
O57   O     O_R   0.944640 0.999970 0.020100 -0.575806
O58   O     O_R   0.000030 0.944640 0.020100 -0.575806
O59   O     O_R   0.055360 0.000030 0.020100 -0.575805
O60   O     O_R   0.999970 0.055360 0.020100 -0.575805
O61   O     O_R   0.944640 0.000030 0.979900 -0.575819
O62   O     O_R   0.000030 0.055360 0.979900 -0.575820
O63   O     O_R   0.055360 0.999970 0.979900 -0.575820
O64   O     O_R   0.999970 0.944640 0.979900 -0.575819
C153  C     C_R   0.500000 0.000001 0.623644 0.053146
C154  C     C_R   0.999999 0.500000 0.623640 0.053112
C155  C     C_R   0.500000 0.000001 0.376368 0.053031
C156  C     C_R   0.999999 0.500000 0.376368 0.053040
C157  C     C_R   1.000000 0.500000 0.123633 0.053042
C158  C     C_R   0.499995 0.000002 0.123633 0.053056
C159  C     C_R   1.000000 0.500002 0.876375 0.052959
C160  C     C_R   0.500001 0.000001 0.876379 0.052920
C161  C     C_R   0.426911 0.500000 0.500000 1.005252
C162  C     C_R   0.500000 0.426911 0.500000 1.005252
C163  C     C_R   0.573089 0.500000 0.500000 1.005251
C164  C     C_R   0.500000 0.573089 0.500000 1.005251
C165  C     C_R   0.926911 0.000000 0.000000 1.005267
C166  C     C_R   1.000000 0.926911 0.000000 1.005266
C167  C     C_R   0.073089 1.000000 1.000000 1.005266
C168  C     C_R   0.000000 0.073089 1.000000 1.005265
Zn9   Zn    Zn3+2 0.500000 0.500000 0.526860 1.212184
Zn10  Zn    Zn3+2 0.500000 0.500000 0.473140 1.212119
Zn11  Zn    Zn3+2 0.000000 0.000000 0.026860 1.212136
Zn12  Zn    Zn3+2 1.000000 0.000000 0.973140 1.212070
C169  C     C_R   0.473305 0.673220 0.486122 0.237743
C170  C     C_R   0.326781 0.473304 0.486122 0.237743
C171  C     C_R   0.526696 0.326780 0.486122 0.237745
C172  C     C_R   0.673219 0.526696 0.486121 0.237745
C173  C     C_R   0.473302 0.326781 0.513879 0.237736
C174  C     C_R   0.326781 0.526697 0.513879 0.237736
C175  C     C_R   0.526698 0.673219 0.513879 0.237735
C176  C     C_R   0.673219 0.473302 0.513879 0.237735
C177  C     C_R   0.973304 0.173219 0.986121 0.237744
C178  C     C_R   0.826781 0.973305 0.986121 0.237746
C179  C     C_R   0.026696 0.826781 0.986121 0.237746
C180  C     C_R   0.173219 0.026695 0.986121 0.237748
C181  C     C_R   0.973303 0.826781 0.013879 0.237736
C182  C     C_R   0.826781 0.026697 0.013879 0.237734
C183  C     C_R   0.026697 0.173219 0.013879 0.237737
C184  C     C_R   0.173219 0.973303 0.013879 0.237736
C185  C     C_R   0.473018 0.633800 0.486359 0.291171
C186  C     C_R   0.366200 0.473017 0.486359 0.291171
C187  C     C_R   0.526982 0.366200 0.486359 0.291170
C188  C     C_R   0.633799 0.526983 0.486359 0.291170
C189  C     C_R   0.473016 0.366201 0.513641 0.291176
C190  C     C_R   0.366201 0.526984 0.513641 0.291175
C191  C     C_R   0.526984 0.633799 0.513641 0.291177
C192  C     C_R   0.633799 0.473016 0.513641 0.291177
C193  C     C_R   0.973018 0.133799 0.986358 0.291163
C194  C     C_R   0.866200 0.973018 0.986358 0.291162
C195  C     C_R   0.026982 0.866201 0.986358 0.291162
C196  C     C_R   0.133800 0.026982 0.986358 0.291160
C197  C     C_R   0.973017 0.866201 0.013642 0.291168
C198  C     C_R   0.866201 0.026983 0.013642 0.291170
C199  C     C_R   0.026983 0.133799 0.013642 0.291167
C200  C     C_R   0.133799 0.973016 0.013642 0.291169
C201  C     C_R   0.500001 0.614135 0.500000 -0.296890
C202  C     C_R   0.385865 0.500000 0.500000 -0.296890
C203  C     C_R   0.499999 0.385865 0.500000 -0.296889
C204  C     C_R   0.614135 0.499999 0.500000 -0.296890
C205  C     C_R   0.000000 0.114135 1.000000 -0.296890
C206  C     C_R   0.885865 0.000000 0.000000 -0.296890
C207  C     C_R   1.000000 0.885864 0.000000 -0.296890
C208  C     C_R   0.114135 0.999999 1.000000 -0.296890
C209  C     C_R   0.500001 0.692690 0.500000 -0.247620
C210  C     C_R   0.307310 0.500001 0.500000 -0.247620
C211  C     C_R   0.499999 0.307310 0.500001 -0.247620
C212  C     C_R   0.692690 0.499999 0.500000 -0.247620
C213  C     C_R   0.000001 0.192690 0.000000 -0.247620
C214  C     C_R   0.807310 0.000001 0.000000 -0.247618
C215  C     C_R   0.999999 0.807310 0.000000 -0.247620
C216  C     C_R   0.192690 0.999999 0.000000 -0.247620
C217  C     C_1   0.500001 0.732891 0.500001 0.217731
C218  C     C_1   0.267109 0.500001 0.500000 0.217730
C219  C     C_1   0.499999 0.267109 0.500001 0.217731
C220  C     C_1   0.732891 0.499999 0.500000 0.217730
C221  C     C_1   0.000001 0.232891 0.000000 0.217728
C222  C     C_1   0.767109 0.000001 0.000001 0.217728
C223  C     C_1   0.999999 0.767109 0.000001 0.217728
C224  C     C_1   0.232891 0.999998 0.000001 0.217728
C225  C     C_1   0.500002 0.766536 0.500001 0.210128
C226  C     C_1   0.233464 0.500001 0.500000 0.210126
C227  C     C_1   0.499999 0.233464 0.500001 0.210128
C228  C     C_1   0.766536 0.499999 0.500000 0.210126
C229  C     C_1   0.000001 0.266536 0.000000 0.210116
C230  C     C_1   0.733464 0.000001 0.000001 0.210114
C231  C     C_1   1.000000 0.733464 0.000001 0.210116
C232  C     C_1   0.266536 0.999999 0.000001 0.210114
C233  C     C_R   0.473701 0.826188 0.485826 0.213849
C234  C     C_R   0.173812 0.473701 0.485825 0.213846
C235  C     C_R   0.526299 0.173812 0.485826 0.213847
C236  C     C_R   0.826188 0.526298 0.485825 0.213846
C237  C     C_R   0.473699 0.173811 0.514176 0.213833
C238  C     C_R   0.173811 0.526300 0.514176 0.213836
C239  C     C_R   0.526301 0.826189 0.514176 0.213834
C240  C     C_R   0.826189 0.473700 0.514176 0.213838
C241  C     C_R   0.973703 0.326189 0.985824 0.213846
C242  C     C_R   0.673811 0.973703 0.985824 0.213850
C243  C     C_R   0.026298 0.673811 0.985824 0.213847
C244  C     C_R   0.326188 0.026296 0.985824 0.213849
C245  C     C_R   0.973701 0.673811 0.014177 0.213837
C246  C     C_R   0.673811 0.026298 0.014177 0.213835
C247  C     C_R   0.026298 0.326189 0.014177 0.213837
C248  C     C_R   0.326189 0.973702 0.014178 0.213833
C249  C     C_R   0.474077 0.865673 0.485467 0.185347
C250  C     C_R   0.134326 0.474077 0.485467 0.185357
C251  C     C_R   0.525923 0.134327 0.485467 0.185350
C252  C     C_R   0.865674 0.525922 0.485467 0.185358
C253  C     C_R   0.474076 0.134325 0.514534 0.185445
C254  C     C_R   0.134326 0.525923 0.514534 0.185420
C255  C     C_R   0.525924 0.865674 0.514534 0.185445
C256  C     C_R   0.865674 0.474077 0.514534 0.185418
C257  C     C_R   0.974079 0.365674 0.985465 0.185318
C258  C     C_R   0.634326 0.974080 0.985465 0.185294
C259  C     C_R   0.025921 0.634326 0.985466 0.185317
C260  C     C_R   0.365674 0.025920 0.985465 0.185296
C261  C     C_R   0.974078 0.634326 0.014535 0.185378
C262  C     C_R   0.634326 0.025922 0.014535 0.185387
C263  C     C_R   0.025922 0.365674 0.014535 0.185378
C264  C     C_R   0.365674 0.974079 0.014536 0.185388
C265  C     C_R   0.500000 0.885429 0.500000 -0.346854
C266  C     C_R   0.114571 0.500000 0.500000 -0.346851
C267  C     C_R   0.500000 0.114571 0.500000 -0.346855
C268  C     C_R   0.885429 0.500000 0.500000 -0.346851
C269  C     C_R   0.000000 0.385429 0.000000 -0.346829
C270  C     C_R   0.614571 0.000000 0.000000 -0.346826
C271  C     C_R   1.000000 0.614571 0.000000 -0.346829
C272  C     C_R   0.385429 1.000000 0.000000 -0.346826
C273  C     C_R   0.500001 0.806745 0.500001 -0.215067
C274  C     C_R   0.193255 0.500001 0.500000 -0.215066
C275  C     C_R   0.499999 0.193255 0.500001 -0.215066
C276  C     C_R   0.806745 0.499999 0.500000 -0.215067
C277  C     C_R   0.000000 0.306745 0.000000 -0.215062
C278  C     C_R   0.693255 0.000001 0.000001 -0.215062
C279  C     C_R   1.000000 0.693255 0.000001 -0.215063
C280  C     C_R   0.306745 0.999999 0.000001 -0.215061
N9    N     N_R   0.565046 0.917947 0.687507 0.256832
O65   O     O_R   0.562504 0.882590 0.693383 -0.271252
O66   O     O_R   0.593979 0.929232 0.675124 -0.234454
N10   N     N_R   0.081508 0.565726 0.687501 0.256840
O67   O     O_R   0.116883 0.563511 0.693389 -0.271258
O68   O     O_R   0.069972 0.594542 0.675102 -0.234470
N11   N     N_R   0.434958 0.082058 0.687507 0.256832
O69   O     O_R   0.437503 0.117416 0.693382 -0.271251
O70   O     O_R   0.406023 0.070774 0.675125 -0.234453
N12   N     N_R   0.918488 0.434277 0.687501 0.256839
O71   O     O_R   0.883113 0.436493 0.693388 -0.271256
O72   O     O_R   0.930025 0.405460 0.675104 -0.234470
N13   N     N_R   0.567234 0.080269 0.312509 0.256848
O73   O     O_R   0.565713 0.115675 0.306609 -0.271250
O74   O     O_R   0.595806 0.068185 0.324926 -0.234494
N14   N     N_R   0.080398 0.432923 0.312508 0.256849
O75   O     O_R   0.115801 0.434514 0.306608 -0.271254
O76   O     O_R   0.068372 0.404327 0.324925 -0.234489
N15   N     N_R   0.432761 0.919738 0.312508 0.256849
O77   O     O_R   0.434281 0.884332 0.306607 -0.271252
O78   O     O_R   0.404191 0.931820 0.324928 -0.234493
N16   N     N_R   0.919600 0.567076 0.312508 0.256848
O79   O     O_R   0.884196 0.565483 0.306608 -0.271253
O80   O     O_R   0.931625 0.595672 0.324925 -0.234488
N17   N     N_R   0.932972 0.580440 0.187492 0.256849
O81   O     O_R   0.934587 0.615842 0.193392 -0.271249
O82   O     O_R   0.904368 0.568433 0.175076 -0.234480
N18   N     N_R   0.419399 0.933162 0.187496 0.256846
O83   O     O_R   0.383998 0.934885 0.193385 -0.271231
O84   O     O_R   0.431332 0.904513 0.175093 -0.234487
N19   N     N_R   0.067026 0.419559 0.187492 0.256849
O85   O     O_R   0.065411 0.384157 0.193392 -0.271249
O86   O     O_R   0.095631 0.431567 0.175076 -0.234481
N20   N     N_R   0.580573 0.066866 0.187493 0.256848
O87   O     O_R   0.615973 0.065166 0.193388 -0.271244
O88   O     O_R   0.568628 0.095503 0.175082 -0.234486
N21   N     N_R   0.931615 0.420715 0.812519 0.256857
O89   O     O_R   0.932579 0.385296 0.806600 -0.271265
O90   O     O_R   0.903253 0.433221 0.824961 -0.234492
N22   N     N_R   0.421263 0.069016 0.812523 0.256858
O91   O     O_R   0.385842 0.068355 0.806596 -0.271266
O92   O     O_R   0.434001 0.097263 0.824977 -0.234503
N23   N     N_R   0.068377 0.579294 0.812518 0.256856
O93   O     O_R   0.067409 0.614713 0.806600 -0.271263
O94   O     O_R   0.096742 0.566790 0.824958 -0.234491
N24   N     N_R   0.578745 0.930993 0.812522 0.256858
O95   O     O_R   0.614167 0.931660 0.806596 -0.271263
O96   O     O_R   0.566010 0.902742 0.824974 -0.234504
N25   N     N_R   0.432432 0.980884 0.623357 0.244547
O97   O     O_R   0.399897 0.986518 0.613238 -0.267947
O98   O     O_R   0.433559 0.962715 0.643607 -0.325724
N26   N     N_R   0.019578 0.432564 0.623352 0.244564
O99   O     O_R   0.014164 0.399990 0.613236 -0.268006
O100  O     O_R   0.037750 0.433818 0.643598 -0.325687
N27   N     N_R   0.567568 0.019119 0.623356 0.244546
O101  O     O_R   0.600103 0.013484 0.613237 -0.267947
O102  O     O_R   0.566441 0.037288 0.643606 -0.325726
N28   N     N_R   0.980420 0.567436 0.623352 0.244562
O103  O     O_R   0.985834 0.600009 0.613235 -0.268006
O104  O     O_R   0.962248 0.566182 0.643597 -0.325689
N29   N     N_R   0.432881 0.020639 0.376658 0.244596
O105  O     O_R   0.400223 0.015725 0.386768 -0.268127
O106  O     O_R   0.434429 0.038822 0.356425 -0.325608
N30   N     N_R   0.020522 0.567155 0.376657 0.244593
O107  O     O_R   0.015554 0.599804 0.386768 -0.268111
O108  O     O_R   0.038704 0.565639 0.356422 -0.325613
N31   N     N_R   0.567119 0.979362 0.376658 0.244599
O109  O     O_R   0.599777 0.984274 0.386768 -0.268129
O110  O     O_R   0.565571 0.961180 0.356424 -0.325602
N32   N     N_R   0.979477 0.432845 0.376657 0.244594
O111  O     O_R   0.984445 0.400196 0.386768 -0.268111
O112  O     O_R   0.961294 0.434361 0.356423 -0.325613
N33   N     N_R   0.067165 0.520489 0.123343 0.244595
O113  O     O_R   0.099811 0.515505 0.113232 -0.268088
O114  O     O_R   0.065658 0.538671 0.143578 -0.325611
N34   N     N_R   0.479596 0.067195 0.123343 0.244590
O115  O     O_R   0.484618 0.099833 0.113229 -0.268093
O116  O     O_R   0.461420 0.065714 0.143581 -0.325624
N35   N     N_R   0.932835 0.479511 0.123343 0.244594
O117  O     O_R   0.900188 0.484495 0.113232 -0.268087
O118  O     O_R   0.934341 0.461329 0.143578 -0.325611
N36   N     N_R   0.520393 0.932808 0.123346 0.244590
O119  O     O_R   0.515371 0.900169 0.113233 -0.268096
O120  O     O_R   0.538567 0.934290 0.143584 -0.325625
N37   N     N_R   0.066871 0.478574 0.876665 0.244629
O121  O     O_R   0.099586 0.483109 0.886772 -0.268187
O122  O     O_R   0.065102 0.460387 0.856441 -0.325533
N38   N     N_R   0.478134 0.933272 0.876670 0.244646
O123  O     O_R   0.482458 0.900526 0.886774 -0.268234
O124  O     O_R   0.459945 0.935163 0.856451 -0.325497
N39   N     N_R   0.933128 0.521430 0.876666 0.244628
O125  O     O_R   0.900413 0.516895 0.886773 -0.268185
O126  O     O_R   0.934897 0.539618 0.856442 -0.325533
N40   N     N_R   0.521868 0.066730 0.876671 0.244645
O127  O     O_R   0.517543 0.099475 0.886774 -0.268232
O128  O     O_R   0.540058 0.064838 0.856452 -0.325496
N41   N     N_R   0.446737 0.693475 0.471633 0.265829
O129  O     O_R   0.410751 0.688962 0.474884 -0.204426
O130  O     O_R   0.458524 0.716445 0.455083 -0.267405
N42   N     N_R   0.306525 0.446737 0.471632 0.265829
O131  O     O_R   0.311038 0.410751 0.474884 -0.204424
O132  O     O_R   0.283556 0.458523 0.455083 -0.267401
N43   N     N_R   0.553263 0.306525 0.471633 0.265830
O133  O     O_R   0.589249 0.311038 0.474885 -0.204427
O134  O     O_R   0.541477 0.283556 0.455083 -0.267406
N44   N     N_R   0.693475 0.553263 0.471632 0.265829
O135  O     O_R   0.688962 0.589249 0.474884 -0.204424
O136  O     O_R   0.716444 0.541476 0.455082 -0.267401
N45   N     N_R   0.446734 0.306527 0.528368 0.265834
O137  O     O_R   0.410748 0.311040 0.525116 -0.204417
O138  O     O_R   0.458520 0.283557 0.544918 -0.267336
N46   N     N_R   0.306526 0.553265 0.528368 0.265833
O139  O     O_R   0.311039 0.589251 0.525116 -0.204421
O140  O     O_R   0.283557 0.541479 0.544918 -0.267352
N47   N     N_R   0.553266 0.693473 0.528368 0.265834
O141  O     O_R   0.589252 0.688960 0.525116 -0.204417
O142  O     O_R   0.541480 0.716443 0.544918 -0.267336
N48   N     N_R   0.693473 0.446734 0.528368 0.265834
O143  O     O_R   0.688960 0.410748 0.525116 -0.204422
O144  O     O_R   0.716443 0.458521 0.544918 -0.267352
N49   N     N_R   0.946738 0.193475 0.971631 0.265827
O145  O     O_R   0.910751 0.188962 0.974883 -0.204424
O146  O     O_R   0.958525 0.216444 0.955082 -0.267439
N50   N     N_R   0.806525 0.946738 0.971632 0.265825
O147  O     O_R   0.811037 0.910752 0.974883 -0.204429
O148  O     O_R   0.783556 0.958526 0.955082 -0.267454
N51   N     N_R   0.053263 0.806525 0.971632 0.265826
O149  O     O_R   0.089249 0.811038 0.974883 -0.204424
O150  O     O_R   0.041476 0.783557 0.955082 -0.267439
N52   N     N_R   0.193475 0.053261 0.971631 0.265825
O151  O     O_R   0.188963 0.089248 0.974882 -0.204429
O152  O     O_R   0.216444 0.041474 0.955081 -0.267454
N53   N     N_R   0.946736 0.806526 0.028369 0.265830
O153  O     O_R   0.910750 0.811039 0.025118 -0.204421
O154  O     O_R   0.958523 0.783557 0.044919 -0.267389
N54   N     N_R   0.806526 0.053264 0.028369 0.265831
O155  O     O_R   0.811039 0.089250 0.025118 -0.204419
O156  O     O_R   0.783557 0.041477 0.044919 -0.267385
N55   N     N_R   0.053264 0.193474 0.028369 0.265830
O157  O     O_R   0.089250 0.188961 0.025117 -0.204421
O158  O     O_R   0.041477 0.216443 0.044919 -0.267389
N56   N     N_R   0.193473 0.946736 0.028369 0.265829
O159  O     O_R   0.188961 0.910750 0.025118 -0.204419
O160  O     O_R   0.216442 0.958523 0.044919 -0.267383
Cl1   Cl    Cl    0.438546 0.609301 0.469538 -0.402192
Cl2   Cl    Cl    0.390700 0.438545 0.469539 -0.402191
Cl3   Cl    Cl    0.561454 0.390700 0.469539 -0.402192
Cl4   Cl    Cl    0.609300 0.561454 0.469538 -0.402192
Cl5   Cl    Cl    0.438544 0.390701 0.530461 -0.402148
Cl6   Cl    Cl    0.390701 0.561455 0.530461 -0.402151
Cl7   Cl    Cl    0.561456 0.609298 0.530461 -0.402148
Cl8   Cl    Cl    0.609299 0.438545 0.530461 -0.402151
Cl9   Cl    Cl    0.938546 0.109300 0.969538 -0.402222
Cl10  Cl    Cl    0.890700 0.938547 0.969538 -0.402226
Cl11  Cl    Cl    0.061454 0.890700 0.969538 -0.402223
Cl12  Cl    Cl    0.109300 0.061453 0.969537 -0.402226
Cl13  Cl    Cl    0.938546 0.890701 0.030462 -0.402182
Cl14  Cl    Cl    0.890701 0.061454 0.030462 -0.402181
Cl15  Cl    Cl    0.061454 0.109299 0.030462 -0.402181
Cl16  Cl    Cl    0.109299 0.938546 0.030462 -0.402180
N57   N     N_R   0.447161 0.805846 0.471341 0.259849
O161  O     O_R   0.444934 0.812207 0.448405 -0.219201
O162  O     O_R   0.424159 0.781940 0.481227 -0.262789
N58   N     N_R   0.194154 0.447161 0.471340 0.259849
O163  O     O_R   0.187793 0.444934 0.448404 -0.219190
O164  O     O_R   0.218060 0.424159 0.481226 -0.262786
N59   N     N_R   0.552839 0.194155 0.471341 0.259848
O165  O     O_R   0.555067 0.187794 0.448405 -0.219200
O166  O     O_R   0.575842 0.218060 0.481228 -0.262788
N60   N     N_R   0.805846 0.552839 0.471340 0.259849
O167  O     O_R   0.812208 0.555066 0.448404 -0.219190
O168  O     O_R   0.781940 0.575841 0.481226 -0.262785
N61   N     N_R   0.447158 0.194152 0.528661 0.259849
O169  O     O_R   0.444930 0.187789 0.551597 -0.219044
O170  O     O_R   0.424157 0.218059 0.518775 -0.262791
N62   N     N_R   0.194153 0.552841 0.528661 0.259850
O171  O     O_R   0.187790 0.555069 0.551597 -0.219092
O172  O     O_R   0.218059 0.575843 0.518775 -0.262792
N63   N     N_R   0.552842 0.805847 0.528661 0.259849
O173  O     O_R   0.555070 0.812210 0.551597 -0.219045
O174  O     O_R   0.575843 0.781941 0.518775 -0.262792
N64   N     N_R   0.805847 0.447159 0.528661 0.259850
O175  O     O_R   0.812209 0.444932 0.551597 -0.219093
O176  O     O_R   0.781941 0.424157 0.518775 -0.262792
N65   N     N_R   0.947164 0.305846 0.971338 0.259851
O177  O     O_R   0.944939 0.312208 0.948402 -0.219279
O178  O     O_R   0.924160 0.281941 0.981223 -0.262765
N66   N     N_R   0.694154 0.947165 0.971338 0.259850
O179  O     O_R   0.687793 0.944941 0.948401 -0.219325
O180  O     O_R   0.718059 0.924161 0.981223 -0.262765
N67   N     N_R   0.052837 0.694154 0.971338 0.259851
O181  O     O_R   0.055061 0.687793 0.948402 -0.219279
O182  O     O_R   0.075840 0.718059 0.981223 -0.262766
N68   N     N_R   0.305846 0.052835 0.971337 0.259851
O183  O     O_R   0.312207 0.055058 0.948401 -0.219326
O184  O     O_R   0.281941 0.075839 0.981222 -0.262764
N69   N     N_R   0.947162 0.694153 0.028663 0.259850
O185  O     O_R   0.944937 0.687790 0.051599 -0.219180
O186  O     O_R   0.924159 0.718059 0.018778 -0.262770
N70   N     N_R   0.694153 0.052837 0.028664 0.259851
O187  O     O_R   0.687790 0.055062 0.051600 -0.219168
O188  O     O_R   0.718059 0.075841 0.018779 -0.262767
N71   N     N_R   0.052837 0.305847 0.028663 0.259851
O189  O     O_R   0.055062 0.312209 0.051599 -0.219179
O190  O     O_R   0.075841 0.281941 0.018778 -0.262770
N72   N     N_R   0.305847 0.947163 0.028664 0.259851
O191  O     O_R   0.312209 0.944939 0.051600 -0.219167
O192  O     O_R   0.281941 0.924159 0.018780 -0.262766
N73   N     N_R   0.448339 0.885576 0.470158 0.256647
O193  O     O_R   0.412334 0.879201 0.471547 -0.245274
O194  O     O_R   0.460991 0.908881 0.454055 -0.344700
N74   N     N_R   0.114423 0.448339 0.470157 0.256648
O195  O     O_R   0.120799 0.412335 0.471547 -0.245273
O196  O     O_R   0.091119 0.460992 0.454054 -0.344699
N75   N     N_R   0.551661 0.114424 0.470158 0.256647
O197  O     O_R   0.587666 0.120799 0.471547 -0.245274
O198  O     O_R   0.539009 0.091120 0.454055 -0.344700
N76   N     N_R   0.885577 0.551660 0.470157 0.256649
O199  O     O_R   0.879201 0.587665 0.471546 -0.245273
O200  O     O_R   0.908882 0.539008 0.454054 -0.344700
N77   N     N_R   0.448337 0.114421 0.529843 0.256642
O201  O     O_R   0.412332 0.120797 0.528452 -0.245320
O202  O     O_R   0.460988 0.091116 0.545945 -0.344714
N78   N     N_R   0.114422 0.551662 0.529843 0.256645
O203  O     O_R   0.120797 0.587667 0.528453 -0.245306
O204  O     O_R   0.091117 0.539010 0.545945 -0.344706
N79   N     N_R   0.551663 0.885578 0.529843 0.256642
O205  O     O_R   0.587668 0.879203 0.528452 -0.245320
O206  O     O_R   0.539012 0.908884 0.545945 -0.344713
N80   N     N_R   0.885578 0.448338 0.529843 0.256645
O207  O     O_R   0.879202 0.412333 0.528453 -0.245305
O208  O     O_R   0.908883 0.460989 0.545945 -0.344707
N81   N     N_R   0.948343 0.385577 0.970155 0.256657
O209  O     O_R   0.912338 0.379202 0.971542 -0.245209
O210  O     O_R   0.960997 0.408882 0.954053 -0.344695
N82   N     N_R   0.614423 0.948344 0.970154 0.256659
O211  O     O_R   0.620798 0.912339 0.971541 -0.245196
O212  O     O_R   0.591119 0.960999 0.954052 -0.344699
N83   N     N_R   0.051657 0.614423 0.970155 0.256657
O213  O     O_R   0.087662 0.620798 0.971543 -0.245209
O214  O     O_R   0.039003 0.591118 0.954053 -0.344695
N84   N     N_R   0.385577 0.051655 0.970154 0.256659
O215  O     O_R   0.379202 0.087660 0.971541 -0.245195
O216  O     O_R   0.408882 0.039000 0.954052 -0.344700
N85   N     N_R   0.948341 0.614422 0.029845 0.256654
O217  O     O_R   0.912336 0.620797 0.028457 -0.245239
O218  O     O_R   0.960995 0.591116 0.045947 -0.344693
N86   N     N_R   0.614421 0.051658 0.029846 0.256655
O219  O     O_R   0.620797 0.087663 0.028458 -0.245237
O220  O     O_R   0.591116 0.039004 0.045947 -0.344691
N87   N     N_R   0.051658 0.385578 0.029845 0.256654
O221  O     O_R   0.087663 0.379202 0.028457 -0.245239
O222  O     O_R   0.039004 0.408883 0.045947 -0.344693
N88   N     N_R   0.385578 0.948342 0.029846 0.256654
O223  O     O_R   0.379203 0.912338 0.028459 -0.245237
O224  O     O_R   0.408884 0.960997 0.045948 -0.344695

loop_
_geom_bond_atom_site_label_1
_geom_bond_atom_site_label_2
_geom_bond_distance
_ccdc_geom_bond_type
C175  N47   1.435603 S    
N71   O189  1.301129 A    
C125  C159  1.415392 A    
N84   O215  1.301133 A    
C189  C203  1.408944 A    
C126  C160  1.415409 A    
O25   C13   1.282684 A    
N29   O105  1.301519 A    
C8    C272  1.464468 S    
C80   C104  1.408374 A    
N19   O85   1.301104 A    
C63   N15   1.434522 S    
C216  C224  1.427984 S    
C15   C151  1.465340 S    
C7    C271  1.464469 S    
N57   O161  1.301127 A    
C25   C49   1.409397 A    
C100  N2    1.363384 A    
C236  C252  1.402764 A    
C5    C269  1.464469 S    
C37   C93   1.421357 A    
C233  N57   1.436395 S    
N11   O70   1.301411 A    
C137  C149  1.399011 A    
C29   C53   1.409418 A    
O18   Zn2   2.021428 S    
C256  N80   1.436821 S    
C246  C278  1.405168 A    
C31   C55   1.409414 A    
C173  C189  1.400339 A    
C79   C103  1.408370 A    
N78   O203  1.301134 A    
C239  C273  1.405169 A    
C134  C148  1.399011 A    
C235  N59   1.436396 S    
C245  N69   1.436394 S    
C55   H15   1.077087 S    
N37   O122  1.301167 A    
N69   O186  1.300976 A    
C47   H7    1.077093 S    
C35   C91   1.421351 A    
C48   H8    1.077090 S    
C46   H6    1.077087 S    
O3    C3    1.280828 A    
O58   Zn11  2.002252 S    
C242  N66   1.436394 S    
C190  Cl6   1.770965 S    
C19   C33   1.415898 A    
N16   O80   1.301396 A    
O20   Zn4   2.021430 S    
C85   C95   1.418243 A    
C144  C152  1.398904 A    
C86   C96   1.418236 A    
O15   Zn7   2.004303 S    
C137  H25   1.083203 S    
C263  C269  1.413167 A    
C42   C58   1.390831 A    
O56   C162  1.285582 A    
C197  C207  1.408945 A    
C169  N41   1.435604 S    
C198  Cl14  1.770962 S    
C106  O42   1.348655 S    
C258  N82   1.436813 S    
N7    C159  1.433479 S    
N44   O136  1.300979 A    
C182  C214  1.405873 A    
C174  C190  1.400338 A    
N59   O165  1.301131 A    
C44   C60   1.390830 A    
C69   N21   1.434538 S    
N12   O72   1.301405 A    
N70   O187  1.301130 A    
C130  C146  1.399078 A    
C18   C42   1.409387 A    
C192  C204  1.408947 A    
O17   C9    1.282768 A    
N49   O146  1.300981 A    
C141  C151  1.398936 A    
N33   O113  1.301523 A    
C10   C146  1.465753 S    
C172  N44   1.435602 S    
C167  C208  1.458017 S    
O27   C13   1.282683 A    
C258  C270  1.413164 A    
N73   O194  1.301315 A    
C161  C202  1.458014 S    
C110  O46   1.348672 S    
O61   Zn12  2.002250 S    
C105  N5    1.363401 A    
N72   O192  1.300977 A    
C163  C204  1.458014 S    
C184  N56   1.435600 S    
C245  C261  1.402765 A    
N39   O126  1.301168 A    
C239  N63   1.436397 S    
C38   C94   1.421357 A    
C228  C276  1.428265 S    
C176  C192  1.400338 A    
C21   C45   1.409399 A    
C47   C63   1.390842 A    
C264  N88   1.436817 S    
N58   O163  1.301129 A    
C102  O38   1.348656 S    
C75   C99   1.408381 A    
O26   Zn6   2.021428 S    
N41   O130  1.300982 A    
C73   C97   1.408380 A    
N40   O127  1.301522 A    
C237  C253  1.402765 A    
C118  C134  1.397505 A    
O8    Zn2   2.004302 S    
C247  N71   1.436397 S    
N22   O91   1.301112 A    
O31   C15   1.282629 A    
N87   O222  1.301315 A    
C177  C213  1.405873 A    
C97   N1    1.363381 A    
C254  N78   1.436820 S    
C236  N60   1.436396 S    
N70   O188  1.300974 A    
N66   O179  1.301125 A    
C68   N20   1.434512 S    
C195  C207  1.408943 A    
C117  N29   1.441039 S    
C253  C267  1.413172 A    
C180  N52   1.435604 S    
C108  O44   1.348655 S    
N77   O201  1.301135 A    
C238  C274  1.405169 A    
C109  O45   1.348665 S    
C255  C265  1.413170 A    
C51   H11   1.077091 S    
C241  C257  1.402762 A    
N26   O99   1.301528 A    
N81   O210  1.301313 A    
C49   H9    1.077088 S    
C16   C152  1.465240 S    
C143  H31   1.083221 S    
O52   Zn9   2.002247 S    
C112  O48   1.348672 S    
C118  N30   1.441039 S    
C188  Cl4   1.770964 S    
C215  C223  1.427982 S    
C184  C200  1.400338 A    
O11   C7    1.280826 A    
C28   C52   1.409390 A    
C101  O37   1.348653 S    
C82   C106  1.408374 A    
N65   O177  1.301128 A    
N20   O88   1.301391 A    
C99   O35   1.348668 S    
N88   O223  1.301133 A    
O4    C4    1.280826 A    
C180  C216  1.405875 A    
C76   C90   1.418281 A    
N54   O155  1.300981 A    
C200  C208  1.408948 A    
N50   O148  1.300981 A    
N32   O111  1.301525 A    
C256  C268  1.413167 A    
C105  O41   1.348655 S    
C114  N26   1.441054 S    
C187  Cl3   1.770964 S    
O6    Zn4   2.004299 S    
N13   O73   1.301108 A    
C262  C270  1.413169 A    
N86   O220  1.301311 A    
C119  N31   1.441039 S    
C225  C273  1.428266 S    
C124  C158  1.415368 A    
N64   O176  1.300972 A    
O57   C165  1.285583 A    
N17   O81   1.301106 A    
C210  C218  1.427984 S    
C233  C273  1.405170 A    
C116  C154  1.415337 A    
C114  C154  1.415336 A    
C70   N22   1.434542 S    
O9    C5    1.280826 A    
C219  C227  1.195109 T    
O21   Zn1   2.021435 S    
C191  Cl7   1.770964 S    
C22   C46   1.409398 A    
C121  N33   1.441042 S    
O23   C11   1.282676 A    
C186  C202  1.408943 A    
C119  C135  1.397512 A    
N62   O172  1.300974 A    
N14   O75   1.301105 A    
C52   H12   1.077090 S    
C243  C279  1.405171 A    
N23   O94   1.301418 A    
C126  N38   1.441010 S    
N68   O184  1.300972 A    
C162  C203  1.458015 S    
C238  C254  1.402761 A    
C245  C279  1.405170 A    
C128  N40   1.441013 S    
O13   C7    1.280829 A    
C242  C278  1.405172 A    
C185  C201  1.408946 A    
C82   C94   1.418267 A    
O2    Zn2   2.004299 S    
C100  O36   1.348663 S    
C88   C112  1.408358 A    
C127  C159  1.415391 A    
N75   O197  1.301134 A    
O7    C1    1.280831 A    
C79   C91   1.418256 A    
N15   O78   1.301396 A    
O28   C14   1.282695 A    
N28   O103  1.301526 A    
O26   C14   1.282690 A    
C259  N83   1.436816 S    
O29   C15   1.282628 A    
C11   C147  1.465524 S    
O59   C167  1.285586 A    
O30   C16   1.282601 A    
C242  C258  1.402761 A    
O29   Zn5   2.021435 S    
C218  C226  1.195108 T    
N9    O66   1.301411 A    
O50   C162  1.285584 A    
O49   Zn9   2.002250 S    
C251  N75   1.436814 S    
C253  N77   1.436817 S    
C130  H18   1.083189 S    
C1    C265  1.464469 S    
N25   O97   1.301532 A    
C176  N48   1.435605 S    
C248  C264  1.402764 A    
C3    C267  1.464469 S    
N38   O123  1.301524 A    
C48   C64   1.390839 A    
N82   O212  1.301317 A    
C235  C275  1.405165 A    
N53   O153  1.300980 A    
C169  C209  1.405872 A    
C24   C36   1.415895 A    
O62   Zn12  2.002249 S    
N45   O138  1.300981 A    
C65   C81   1.413237 A    
C139  H27   1.083202 S    
N34   O115  1.301524 A    
C14   C150  1.465575 S    
C129  C145  1.399111 A    
C182  N54   1.435607 S    
C42   H2    1.077095 S    
C143  C151  1.398939 A    
O63   Zn12  2.002248 S    
C244  C280  1.405167 A    
C169  C185  1.400339 A    
N59   O166  1.300974 A    
C116  C132  1.397503 A    
C104  N4    1.363398 A    
C244  N68   1.436397 S    
C114  C130  1.397508 A    
N67   O182  1.300970 A    
C103  N3    1.363404 A    
N4    C156  1.433446 S    
N5    C157  1.433440 S    
N74   O195  1.301133 A    
C66   C82   1.413247 A    
N42   O132  1.300984 A    
N37   O121  1.301523 A    
C121  C157  1.415367 A    
N76   O200  1.301312 A    
C144  H32   1.083230 S    
C70   C86   1.413224 A    
O54   Zn10  2.002249 S    
C116  N28   1.441053 S    
N18   O83   1.301102 A    
C194  Cl10  1.770964 S    
C4    C268  1.464472 S    
O32   Zn6   2.021435 S    
C72   N24   1.434541 S    
C190  C202  1.408947 A    
O50   Zn9   2.002252 S    
N52   O152  1.300980 A    
C191  C201  1.408945 A    
C29   C39   1.415893 A    
N47   O141  1.300982 A    
C46   C62   1.390845 A    
C12   C148  1.465547 S    
C249  C265  1.413167 A    
O22   Zn4   2.021434 S    
N60   O167  1.301130 A    
N84   O216  1.301317 A    
C260  C272  1.413165 A    
C54   H14   1.077096 S    
C243  C259  1.402762 A    
O23   Zn3   2.021434 S    
N10   O67   1.301109 A    
N51   O149  1.300978 A    
C106  N6    1.363397 A    
C128  C144  1.397502 A    
C58   C74   1.413240 A    
C223  C231  1.195109 T    
O12   C8    1.280826 A    
O1    C1    1.280828 A    
C84   C94   1.418262 A    
O11   Zn7   2.004300 S    
C102  N4    1.363404 A    
C61   C77   1.413242 A    
O14   C6    1.280830 A    
N48   O143  1.300980 A    
C32   C40   1.415888 A    
C235  C251  1.402762 A    
N9    O65   1.301112 A    
C251  C267  1.413167 A    
C36   C92   1.421351 A    
C98   N2    1.363385 A    
C23   C35   1.415892 A    
C20   C29   1.420809 A    
C126  C142  1.397507 A    
C262  N86   1.436817 S    
C120  C136  1.397506 A    
N78   O204  1.301311 A    
C192  Cl8   1.770963 S    
C81   C105  1.408373 A    
N38   O124  1.301167 A    
C74   C98   1.408377 A    
N36   O119  1.301522 A    
C77   C91   1.418259 A    
C17   C41   1.409377 A    
C166  C207  1.458018 S    
C78   C92   1.418262 A    
N27   O101  1.301532 A    
C120  C156  1.415364 A    
O30   Zn8   2.021434 S    
C49   C65   1.390845 A    
N39   O125  1.301523 A    
O57   Zn11  2.002250 S    
C238  N62   1.436402 S    
C60   N12   1.434501 S    
N24   O95   1.301112 A    
N24   O96   1.301426 A    
C81   C93   1.418261 A    
C263  N87   1.436816 S    
N46   O139  1.300978 A    
N85   O218  1.301315 A    
C66   N18   1.434508 S    
C136  C148  1.399007 A    
C53   H13   1.077087 S    
C165  C206  1.458017 S    
C74   C90   1.418283 A    
C60   C76   1.413240 A    
C67   C83   1.413240 A    
C22   C36   1.415897 A    
C182  C198  1.400335 A    
C211  C219  1.427985 S    
N80   O207  1.301134 A    
N87   O221  1.301134 A    
C26   C50   1.409387 A    
O10   C6    1.280826 A    
C127  C143  1.397503 A    
C84   C108  1.408372 A    
C18   C34   1.415903 A    
N56   O159  1.300979 A    
N73   O193  1.301134 A    
C110  N8    1.363423 A    
C124  C140  1.397509 A    
C45   H5    1.077091 S    
C30   C54   1.409419 A    
C19   C43   1.409379 A    
O5    C3    1.280831 A    
N16   O79   1.301106 A    
C88   C96   1.418233 A    
C59   C75   1.413247 A    
N49   O145  1.300978 A    
C254  C266  1.413169 A    
C32   C56   1.409418 A    
C179  N51   1.435602 S    
C18   C31   1.420806 A    
N61   O170  1.300973 A    
C99   N1    1.363382 A    
C124  N36   1.441047 S    
C264  C272  1.413168 A    
O51   Zn9   2.002245 S    
C193  Cl9   1.770965 S    
C164  C201  1.458015 S    
C78   C102  1.408369 A    
C123  C157  1.415363 A    
C142  C152  1.398905 A    
C226  C274  1.428265 S    
C107  N5    1.363401 A    
O31   Zn7   2.021434 S    
N11   O69   1.301108 A    
N21   O90   1.301415 A    
C27   C37   1.415896 A    
O58   C166  1.285584 A    
C23   C47   1.409398 A    
C179  C215  1.405876 A    
C259  C271  1.413164 A    
C123  N35   1.441042 S    
C177  C193  1.400339 A    
C104  O40   1.348657 S    
N58   O164  1.300972 A    
C23   C26   1.420795 A    
C43   C59   1.390820 A    
N41   O129  1.300982 A    
O21   C11   1.282675 A    
N29   O106  1.301163 A    
O22   C12   1.282685 A    
C129  H17   1.083185 S    
C31   C39   1.415896 A    
C230  C278  1.428268 S    
N22   O92   1.301428 A    
O13   Zn5   2.004300 S    
N33   O114  1.301160 A    
C28   C38   1.415898 A    
C26   C38   1.415896 A    
C241  N65   1.436395 S    
O61   C165  1.285581 A    
N8    C160  1.433490 S    
C30   C40   1.415887 A    
C186  Cl2   1.770965 S    
C107  O43   1.348659 S    
C25   C37   1.415898 A    
N63   O174  1.300973 A    
C50   C66   1.390835 A    
C172  C212  1.405877 A    
C170  N42   1.435603 S    
O3    Zn3   2.004300 S    
C101  N3    1.363405 A    
C122  N34   1.441043 S    
C196  C208  1.408939 A    
C54   C70   1.390870 A    
C240  C256  1.402764 A    
N31   O109  1.301520 A    
O55   C163  1.285579 A    
N62   O171  1.301127 A    
N26   O100  1.301158 A    
C117  C155  1.415374 A    
N1    C153  1.433390 S    
N67   O181  1.301128 A    
C213  C221  1.427982 S    
C118  C156  1.415366 A    
O28   Zn8   2.021430 S    
C51   C67   1.390839 A    
N19   O86   1.301393 A    
C173  N45   1.435601 S    
O62   C168  1.285579 A    
C246  C262  1.402764 A    
C27   C51   1.409398 A    
N79   O206  1.301315 A    
C67   N19   1.434521 S    
C255  N79   1.436820 S    
N88   O224  1.301314 A    
C168  C205  1.458018 S    
N66   O180  1.300975 A    
N54   O156  1.300979 A    
N32   O112  1.301160 A    
N71   O190  1.300973 A    
C64   N16   1.434519 S    
O64   Zn12  2.002251 S    
C115  N27   1.441061 S    
C236  C276  1.405169 A    
O9    Zn5   2.004304 S    
C237  C275  1.405170 A    
C13   C149  1.465558 S    
C58   N10   1.434502 S    
C134  H22   1.083203 S    
C57   N9    1.434484 S    
O60   Zn11  2.002247 S    
C181  N53   1.435604 S    
O53   Zn10  2.002250 S    
C248  C280  1.405165 A    
C178  C214  1.405874 A    
C43   H3    1.077103 S    
N44   O135  1.300979 A    
C241  C277  1.405171 A    
C56   H16   1.077094 S    
C189  Cl5   1.770964 S    
C41   H1    1.077105 S    
C170  C186  1.400338 A    
C234  N58   1.436396 S    
C261  C271  1.413169 A    
C194  C206  1.408945 A    
C39   C95   1.421340 A    
C257  N81   1.436814 S    
C135  C147  1.399001 A    
N6    C158  1.433435 S    
O56   Zn10  2.002251 S    
N34   O116  1.301163 A    
C246  N70   1.436395 S    
C24   C25   1.420798 A    
N14   O76   1.301395 A    
C122  C158  1.415368 A    
O7    Zn3   2.004303 S    
C212  C220  1.427984 S    
O53   C161  1.285581 A    
C6    C270  1.464468 S    
C187  C203  1.408943 A    
O19   Zn3   2.021430 S    
N51   O150  1.300980 A    
C122  C138  1.397506 A    
N72   O191  1.301126 A    
C33   C89   1.421379 A    
O63   C167  1.285579 A    
C56   C72   1.390871 A    
C234  C250  1.402764 A    
C68   C84   1.413245 A    
C17   C32   1.420802 A    
C115  C153  1.415320 A    
O17   Zn1   2.021428 S    
C72   C88   1.413228 A    
C40   C96   1.421324 A    
C198  C206  1.408948 A    
C173  C211  1.405874 A    
C19   C30   1.420799 A    
C181  C197  1.400336 A    
C132  H20   1.083193 S    
N30   O107  1.301523 A    
C175  C209  1.405874 A    
C220  C228  1.195108 T    
C141  H29   1.083223 S    
N12   O71   1.301109 A    
C244  C260  1.402761 A    
C127  N39   1.441020 S    
N28   O104  1.301160 A    
N81   O209  1.301136 A    
C24   C48   1.409399 A    
C103  O39   1.348657 S    
C64   C80   1.413237 A    
C183  C213  1.405874 A    
O14   Zn8   2.004299 S    
C112  N8    1.363423 A    
C61   N13   1.434516 S    
C240  N64   1.436396 S    
N47   O142  1.300979 A    
O2    C2    1.280826 A    
C86   C110  1.408358 A    
C131  C145  1.399114 A    
C77   C101  1.408372 A    
N79   O205  1.301131 A    
C247  C263  1.402765 A    
N23   O93   1.301110 A    
N18   O84   1.301387 A    
C71   N23   1.434538 S    
N69   O185  1.301125 A    
N61   O169  1.301132 A    
N83   O213  1.301132 A    
N40   O128  1.301169 A    
C21   C35   1.415893 A    
N77   O202  1.301317 A    
N45   O137  1.300979 A    
O8    C4    1.280830 A    
C73   C89   1.418296 A    
C22   C27   1.420798 A    
O4    Zn4   2.004302 S    
C135  H23   1.083204 S    
C138  C150  1.399019 A    
C171  N43   1.435606 S    
O51   C163  1.285586 A    
C197  Cl13  1.770962 S    
C239  C255  1.402761 A    
O60   C168  1.285586 A    
O49   C161  1.285583 A    
O5    Zn1   2.004300 S    
C188  C204  1.408944 A    
N35   O118  1.301164 A    
C17   C33   1.415896 A    
N43   O133  1.300980 A    
C200  Cl16  1.770962 S    
C62   N14   1.434521 S    
C111  N7    1.363412 A    
C185  Cl1   1.770963 S    
N65   O178  1.300972 A    
C125  C141  1.397508 A    
C184  C216  1.405872 A    
C59   N11   1.434483 S    
N20   O87   1.301104 A    
C132  C146  1.399079 A    
C97   O33   1.348665 S    
C234  C274  1.405168 A    
C179  C195  1.400339 A    
C261  N85   1.436815 S    
N50   O147  1.300981 A    
C180  C196  1.400338 A    
N74   O196  1.301316 A    
O64   C166  1.285582 A    
N55   O157  1.300979 A    
C139  C149  1.399011 A    
C174  C210  1.405871 A    
N13   O74   1.301398 A    
C257  C269  1.413168 A    
C44   H4    1.077094 S    
C183  C199  1.400339 A    
C221  C229  1.195109 T    
N55   O158  1.300981 A    
N64   O175  1.301125 A    
C217  C225  1.195109 T    
N17   O82   1.301396 A    
C131  H19   1.083190 S    
C2    C266  1.464472 S    
C237  N61   1.436398 S    
C172  C188  1.400338 A    
N27   O102  1.301156 A    
C214  C222  1.427984 S    
O10   Zn6   2.004299 S    
C170  C210  1.405873 A    
C52   C68   1.390844 A    
N57   O162  1.300974 A    
O25   Zn5   2.021428 S    
O6    C2    1.280830 A    
N60   O168  1.300972 A    
N83   O214  1.301314 A    
O27   Zn7   2.021430 S    
C9    C145  1.465853 S    
C227  C275  1.428266 S    
C133  C147  1.398997 A    
C252  N76   1.436817 S    
C138  H26   1.083201 S    
N10   O68   1.301401 A    
N35   O117  1.301520 A    
O54   C164  1.285579 A    
N68   O183  1.301130 A    
N86   O219  1.301134 A    
C119  C155  1.415368 A    
C128  C160  1.415410 A    
C248  N72   1.436398 S    
C142  H30   1.083231 S    
N63   O173  1.301131 A    
C65   N17   1.434519 S    
C247  C277  1.405167 A    
N48   O144  1.300979 A    
C115  C131  1.397505 A    
C178  N50   1.435605 S    
C181  C215  1.405876 A    
O19   C9    1.282767 A    
C113  C129  1.397510 A    
N15   O77   1.301105 A    
C178  C194  1.400335 A    
C87   C111  1.408361 A    
C111  O47   1.348668 S    
C50   H10   1.077093 S    
N43   O134  1.300979 A    
O24   C12   1.282684 A    
C183  N55   1.435603 S    
C108  N6    1.363398 A    
N36   O120  1.301163 A    
C109  N7    1.363413 A    
O24   Zn2   2.021435 S    
O12   Zn8   2.004302 S    
C85   C109  1.408361 A    
C250  C266  1.413166 A    
C231  C279  1.428269 S    
C133  H21   1.083204 S    
C69   C85   1.413227 A    
C83   C107  1.408367 A    
C229  C277  1.428269 S    
C34   C90   1.421374 A    
C71   C87   1.413226 A    
C243  N67   1.436395 S    
C57   C73   1.413249 A    
C98   O34   1.348659 S    
C45   C61   1.390844 A    
N82   O211  1.301134 A    
C113  N25   1.441059 S    
N46   O140  1.300982 A    
N85   O217  1.301134 A    
C75   C89   1.418293 A    
C20   C34   1.415902 A    
O18   C10   1.282740 A    
C140  C150  1.399015 A    
O52   C164  1.285586 A    
N75   O198  1.301316 A    
C80   C92   1.418261 A    
C140  H28   1.083203 S    
C63   C79   1.413239 A    
N30   O108  1.301163 A    
N2    C154  1.433407 S    
C62   C78   1.413236 A    
N80   O208  1.301311 A    
C125  N37   1.441019 S    
C195  Cl11  1.770964 S    
N25   O98   1.301153 A    
C174  N46   1.435604 S    
N56   O160  1.300982 A    
C222  C230  1.195104 T    
C123  C139  1.397505 A    
C113  C153  1.415323 A    
C193  C205  1.408943 A    
O16   Zn6   2.004302 S    
O59   Zn11  2.002245 S    
C121  C137  1.397505 A    
C250  N74   1.436816 S    
C55   C71   1.390857 A    
C199  C205  1.408944 A    
C175  C191  1.400339 A    
C20   C44   1.409390 A    
C21   C28   1.420800 A    
C196  Cl12  1.770966 S    
C209  C217  1.427985 S    
C199  Cl15  1.770965 S    
C41   C57   1.390821 A    
O55   Zn10  2.002248 S    
O20   C10   1.282739 A    
N42   O131  1.300979 A    
N53   O154  1.300984 A    
C260  N84   1.436812 S    
N76   O199  1.301134 A    
C87   C95   1.418242 A    
C120  N32   1.441041 S    
C171  C211  1.405874 A    
C252  C268  1.413168 A    
C176  C212  1.405870 A    
O15   C5    1.280829 A    
C117  C133  1.397507 A    
C249  N73   1.436816 S    
C83   C93   1.418261 A    
O16   C8    1.280830 A    
N21   O89   1.301111 A    
C53   C69   1.390857 A    
N31   O110  1.301164 A    
N52   O151  1.300980 A    
C136  H24   1.083203 S    
C171  C187  1.400339 A    
C224  C232  1.195108 T    
C177  N49   1.435605 S    
O1    Zn1   2.004304 S    
O32   C16   1.282600 A    
N3    C155  1.433446 S    
C240  C276  1.405171 A    
C233  C249  1.402765 A    
C76   C100  1.408372 A    
C232  C280  1.428268 S    
