data_mof_unit_29353.cif
_audit_creation_date              2012-12-11T14:01:44-0500
_audit_creation_method            fapswitch 2.2
_symmetry_space_group_name_H-M    P1
_symmetry_Int_Tables_number       1
_space_group_crystal_system       triclinic
_cell_length_a                    19.036597
_cell_length_b                    11.090348
_cell_length_c                    18.701409
_cell_angle_alpha                 89.801785
_cell_angle_beta                  89.742319
_cell_angle_gamma                 90.113822
_cell_volume                      3948.21647981

loop_
_atom_site_label
_atom_site_type_symbol
_atom_type_description
_atom_site_fract_x
_atom_site_fract_y
_atom_site_fract_z
_atom_type_partial_charge
C1    C     C_R   0.270126 0.051242 0.848716 0.554395
C2    C     C_R   0.009548 0.656699 0.963454 -0.145960
C3    C     C_3   0.774583 0.757470 0.911676 -0.238390
C4    C     C_3   0.853676 0.752876 0.928124 -0.274730
C5    C     C_3   0.876438 0.862741 0.969147 -0.479654
C6    C     C_3   0.724821 0.256824 0.086729 -0.238593
C7    C     C_3   0.645705 0.250760 0.070345 -0.273337
C8    C     C_3   0.622707 0.359389 0.028007 -0.479941
C9    C     C_3   0.274492 0.257554 0.911544 -0.238266
C10   C     C_3   0.353558 0.253074 0.928105 -0.274903
C11   C     C_3   0.376225 0.363169 0.968942 -0.479577
C12   C     C_R   0.488978 0.156418 0.035343 -0.146634
C13   C     C_R   0.509391 0.156759 0.963484 -0.146026
C14   C     C_2   0.265551 0.645135 0.934405 -0.125727
C15   C     C_2   0.734667 0.645725 0.065532 -0.125471
C16   C     C_2   0.765539 0.145095 0.934378 -0.125658
C17   C     C_2   0.234664 0.145732 0.065526 -0.125457
C18   C     C_2   0.258200 0.632491 0.095209 -0.000054
C19   C     C_2   0.741699 0.632402 0.904318 0.000295
C20   C     C_2   0.758188 0.132436 0.095189 0.000023
C21   C     C_R   0.729843 0.051303 0.151197 0.554094
C22   C     C_2   0.241671 0.132436 0.904274 0.000313
C23   C     C_2   0.312335 0.599927 0.053789 -0.159197
C24   C     C_2   0.688009 0.599116 0.946364 -0.160105
C25   C     C_2   0.812274 0.099782 0.053731 -0.159264
C26   C     C_2   0.188014 0.099131 0.946356 -0.160128
C27   C     C_2   0.320253 0.645046 0.979555 -0.194303
C28   C     C_2   0.680043 0.644958 0.020293 -0.194784
C29   C     C_2   0.820218 0.145045 0.979540 -0.194457
C30   C     C_2   0.180056 0.145059 0.020269 -0.194817
C31   C     C_2   0.513313 0.841275 0.585056 -0.107588
C32   C     C_R   0.770128 0.551245 0.848720 0.554369
C33   C     C_2   0.514762 0.828478 0.428875 -0.094565
C34   C     C_2   0.013313 0.341275 0.585056 -0.107590
C35   C     C_2   0.014762 0.328478 0.428875 -0.094564
C36   C     C_2   0.551746 0.756502 0.472971 -0.151860
C37   C     C_2   0.536048 0.746342 0.548669 -0.171576
C38   C     C_2   0.051747 0.256502 0.472971 -0.151860
C39   C     C_2   0.036048 0.246342 0.548668 -0.171577
C40   C     C_2   0.250558 0.582683 0.577630 -0.128680
C41   C     C_2   0.749820 0.581125 0.422455 -0.131688
C42   C     C_2   0.750557 0.082683 0.577630 -0.128674
C43   C     C_R   0.229854 0.551334 0.151214 0.554076
C44   C     C_2   0.249820 0.081126 0.422456 -0.131689
C45   C     C_2   0.246695 0.594313 0.421110 -0.099455
C46   C     C_2   0.752816 0.595494 0.579053 -0.098951
C47   C     C_2   0.746695 0.094313 0.421110 -0.099456
C48   C     C_2   0.252816 0.095494 0.579053 -0.098953
C49   C     C_R   0.471722 0.821616 0.852817 0.529712
C50   C     C_R   0.528319 0.821638 0.147135 0.531834
C51   C     C_R   0.971724 0.321609 0.852815 0.529696
C52   C     C_R   0.028320 0.321637 0.147134 0.531838
C53   C     C_2   0.196953 0.644815 0.464078 -0.009325
C54   C     C_R   0.483036 0.048247 0.072390 -0.092500
C55   C     C_2   0.802510 0.646358 0.535997 -0.009628
C56   C     C_2   0.696953 0.144815 0.464078 -0.009328
C57   C     C_2   0.302510 0.146358 0.535998 -0.009625
C58   C     C_2   0.193891 0.613751 0.540463 -0.134620
C59   C     C_2   0.805978 0.614832 0.459820 -0.136841
C60   C     C_2   0.693890 0.113751 0.540463 -0.134619
C61   C     C_2   0.305978 0.114832 0.459820 -0.136841
C62   C     C_R   0.273441 0.682774 0.859695 0.564693
C63   C     C_R   0.726633 0.683024 0.140189 0.564887
C64   C     C_R   0.773440 0.182781 0.859689 0.564737
C65   C     C_R   0.516326 0.048814 0.926858 -0.091181
C66   C     C_R   0.226631 0.183032 0.140188 0.564888
C67   C     C_R   0.272126 0.048082 0.648716 0.544916
C68   C     C_R   0.727758 0.047665 0.351350 0.544880
C69   C     C_R   0.772126 0.548081 0.648716 0.544927
C70   C     C_R   0.227758 0.547665 0.351350 0.544864
C71   C     C_R   0.472227 0.824765 0.649481 0.557056
C72   C     C_R   0.532184 0.823022 0.353782 0.550217
C73   C     C_R   0.972227 0.324765 0.649481 0.557046
C74   C     C_R   0.032184 0.323022 0.353782 0.550221
C75   C     C_R   0.260010 0.634875 0.647285 0.559389
C76   C     C_R   0.983084 0.548246 0.072356 -0.092522
C77   C     C_R   0.739959 0.634610 0.352852 0.556120
C78   C     C_R   0.760010 0.134875 0.647285 0.559387
C79   C     C_R   0.239959 0.134610 0.352852 0.556114
C80   C     C_R   0.498860 0.827918 0.074895 -0.000128
C81   C     C_R   0.501337 0.828032 0.924967 0.000159
C82   C     C_R   0.998861 0.327911 0.074892 -0.000151
C83   C     C_R   0.001347 0.327994 0.924963 0.000147
C84   C     C_R   0.495407 0.938223 0.037333 0.027346
C85   C     C_R   0.504526 0.938378 0.962227 0.028117
C86   C     C_R   0.995440 0.438206 0.037317 0.027347
C87   C     C_R   0.016442 0.548739 0.926838 -0.091246
C88   C     C_R   0.004578 0.438334 0.962214 0.028082
C89   C     C_R   0.502816 0.719624 0.963447 -0.177462
C90   C     C_R   0.497557 0.719542 0.036723 -0.176875
C91   C     C_R   0.002790 0.219590 0.963451 -0.177472
C92   C     C_R   0.997535 0.219527 0.036729 -0.176886
C93   C     C_3   0.137791 0.723954 0.434833 -0.220703
C94   C     C_3   0.117095 0.828530 0.484042 -0.327058
C95   C     C_3   0.071264 0.919395 0.444445 -0.461872
C96   C     C_3   0.861172 0.727152 0.564858 -0.222699
C97   C     C_3   0.878616 0.834982 0.516263 -0.323815
C98   C     C_R   0.989081 0.656396 0.035300 -0.146604
C99   C     C_3   0.923854 0.927527 0.555337 -0.461493
C100  C     C_3   0.637791 0.223955 0.434833 -0.220703
C101  C     C_3   0.617094 0.328530 0.484042 -0.327058
C102  C     C_3   0.571264 0.419395 0.444445 -0.461871
C103  C     C_3   0.361172 0.227152 0.564858 -0.222699
C104  C     C_3   0.378615 0.334983 0.516264 -0.323815
C105  C     C_3   0.423853 0.427527 0.555338 -0.461494
C106  C     C_3   0.224839 0.756886 0.086751 -0.238680
C107  C     C_3   0.145707 0.750860 0.070449 -0.273367
C108  C     C_3   0.122682 0.859445 0.028083 -0.479990
Cr1   Cr    Cr6+3 0.230530 0.836340 0.748870 1.003274
Cr2   Cr    Cr6+3 0.614360 0.677860 0.250770 0.997633
Cr3   Cr    Cr6+3 0.885640 0.177860 0.749230 0.998138
Cr4   Cr    Cr6+3 0.114360 0.177860 0.250770 0.997644
Cr5   Cr    Cr6+3 0.769470 0.836340 0.251130 1.004453
Cr6   Cr    Cr6+3 0.730530 0.336340 0.748870 1.003275
Cr7   Cr    Cr6+3 0.269470 0.336340 0.251130 1.004469
Cr8   Cr    Cr6+3 0.387420 0.989430 0.750820 0.988788
Cr9   Cr    Cr6+3 0.612580 0.989430 0.249180 0.989884
Cr10  Cr    Cr6+3 0.887420 0.489430 0.750820 0.988793
Cr11  Cr    Cr6+3 0.112580 0.489430 0.249180 0.989880
Cr12  Cr    Cr6+3 0.385640 0.677860 0.749230 0.998081
H1    H     H_    0.146587 0.638017 0.569530 0.144743
H2    H     H_    0.531947 0.052497 0.871194 0.131084
H3    H     H_    0.246206 0.312265 0.952203 0.160586
H4    H     H_    0.967522 0.551391 0.128033 0.131557
H5    H     H_    0.032080 0.552373 0.871177 0.131054
H6    H     H_    0.347533 0.530500 0.072311 0.127877
H7    H     H_    0.653255 0.528533 0.928628 0.127930
H8    H     H_    0.847336 0.030075 0.072136 0.127985
H9    H     H_    0.153311 0.028436 0.928677 0.127960
H10   H     H_    0.372084 0.664174 0.959130 0.156484
H11   H     H_    0.628151 0.663330 0.040624 0.156228
H12   H     H_    0.872053 0.164256 0.959146 0.156518
H13   H     H_    0.853033 0.641621 0.430892 0.145268
H14   H     H_    0.128171 0.163559 0.040578 0.156244
H15   H     H_    0.213588 0.619977 0.953246 0.124817
H16   H     H_    0.786678 0.621122 0.046841 0.124807
H17   H     H_    0.713581 0.119820 0.953183 0.124778
H18   H     H_    0.286660 0.120992 0.046860 0.124745
H19   H     H_    0.591071 0.695069 0.451928 0.149865
H20   H     H_    0.537322 0.656982 0.572620 0.144229
H21   H     H_    0.091072 0.195069 0.451928 0.149865
H22   H     H_    0.037322 0.156982 0.572620 0.144228
H23   H     H_    0.475592 0.891932 0.447880 0.084959
H24   H     H_    0.646587 0.138018 0.569530 0.144745
H25   H     H_    0.516377 0.931422 0.562123 0.100081
H26   H     H_    0.975592 0.391932 0.447880 0.084960
H27   H     H_    0.016377 0.431422 0.562123 0.100082
H28   H     H_    0.502313 0.632879 0.936924 0.138540
H29   H     H_    0.498108 0.632709 0.063492 0.138861
H30   H     H_    0.002259 0.132840 0.936935 0.138581
H31   H     H_    0.998068 0.132701 0.063506 0.138928
H32   H     H_    0.099531 0.957754 0.397592 0.173267
H33   H     H_    0.022364 0.875419 0.425576 0.154115
H34   H     H_    0.057224 0.993648 0.481172 0.139120
H35   H     H_    0.353033 0.141621 0.430892 0.145267
H36   H     H_    0.086527 0.794555 0.530591 0.153250
H37   H     H_    0.165024 0.873831 0.504135 0.173521
H38   H     H_    0.155342 0.765512 0.383535 0.173261
H39   H     H_    0.090516 0.667245 0.425286 0.164065
H40   H     H_    0.897492 0.958490 0.604973 0.175594
H41   H     H_    0.975092 0.887173 0.570056 0.148644
H42   H     H_    0.933077 0.006888 0.520159 0.152627
H43   H     H_    0.908194 0.804967 0.468329 0.155505
H44   H     H_    0.829140 0.877437 0.498210 0.173383
H45   H     H_    0.844427 0.765606 0.617050 0.173541
H46   H     H_    0.293622 0.553650 0.442248 0.077953
H47   H     H_    0.909540 0.672606 0.572511 0.158689
H48   H     H_    0.599531 0.457754 0.397592 0.173268
H49   H     H_    0.522364 0.375418 0.425575 0.154115
H50   H     H_    0.557223 0.493647 0.481172 0.139120
H51   H     H_    0.586526 0.294555 0.530591 0.153249
H52   H     H_    0.665023 0.373831 0.504135 0.173521
H53   H     H_    0.655342 0.265512 0.383535 0.173264
H54   H     H_    0.590516 0.167245 0.425286 0.164065
H55   H     H_    0.397492 0.458490 0.604974 0.175593
H56   H     H_    0.475092 0.387173 0.570056 0.148643
H57   H     H_    0.705968 0.554367 0.557840 0.074279
H58   H     H_    0.433076 0.506889 0.520160 0.152627
H59   H     H_    0.408193 0.304969 0.468328 0.155506
H60   H     H_    0.329138 0.377438 0.498211 0.173383
H61   H     H_    0.344427 0.265605 0.617051 0.173536
H62   H     H_    0.409540 0.172607 0.572511 0.158689
H63   H     H_    0.298266 0.553416 0.552358 0.098894
H64   H     H_    0.702664 0.547614 0.447442 0.088846
H65   H     H_    0.798266 0.053413 0.552358 0.098892
H66   H     H_    0.202664 0.047614 0.447442 0.088847
H67   H     H_    0.979488 0.739756 0.063406 0.112709
H68   H     H_    0.793622 0.053650 0.442248 0.077952
H69   H     H_    0.018397 0.740350 0.934994 0.112226
H70   H     H_    0.479384 0.239770 0.063461 0.112664
H71   H     H_    0.518169 0.240429 0.935020 0.112186
H72   H     H_    0.064947 0.866402 0.024862 0.126197
H73   H     H_    0.140896 0.940296 0.056415 0.182102
H74   H     H_    0.144902 0.851662 0.973457 0.162406
H75   H     H_    0.133084 0.667907 0.040128 0.191239
H76   H     H_    0.114846 0.750851 0.121022 0.188237
H77   H     H_    0.232075 0.806863 0.137633 0.139256
H78   H     H_    0.252825 0.811556 0.045541 0.160761
H79   H     H_    0.205968 0.054368 0.557840 0.074281
H80   H     H_    0.934119 0.868599 0.974055 0.125605
H81   H     H_    0.859641 0.942856 0.938893 0.183714
H82   H     H_    0.852633 0.857245 0.023166 0.162578
H83   H     H_    0.866283 0.670861 0.959550 0.191216
H84   H     H_    0.884662 0.751920 0.877642 0.188015
H85   H     H_    0.767236 0.806663 0.860358 0.138843
H86   H     H_    0.746374 0.812117 0.952423 0.160610
H87   H     H_    0.564974 0.366267 0.024704 0.126214
H88   H     H_    0.640841 0.440218 0.056421 0.182020
H89   H     H_    0.645018 0.351733 0.973412 0.162524
H90   H     H_    0.467500 0.051361 0.128075 0.131570
H91   H     H_    0.633109 0.167831 0.039983 0.191117
H92   H     H_    0.614795 0.250665 0.120886 0.188266
H93   H     H_    0.731993 0.306767 0.137631 0.139268
H94   H     H_    0.752837 0.311539 0.045561 0.160757
H95   H     H_    0.433869 0.368627 0.974369 0.125576
H96   H     H_    0.359855 0.443147 0.938280 0.183794
H97   H     H_    0.351951 0.358265 0.022754 0.162878
H98   H     H_    0.366133 0.171239 0.959709 0.191075
H99   H     H_    0.384633 0.251852 0.877683 0.188057
H100  H     H_    0.267193 0.306594 0.860168 0.138868
O1    O     O_R   0.215090 0.709860 0.828130 -0.522101
O2    O     O_R   0.543740 0.718170 0.330000 -0.515878
O3    O     O_R   0.956260 0.218170 0.670000 -0.514459
O4    O     O_R   0.043740 0.218170 0.330000 -0.515875
O5    O     O_R   0.320940 0.626760 0.674370 -0.503180
O6    O     O_R   0.679060 0.626760 0.325630 -0.510104
O7    O     O_R   0.820940 0.126760 0.674370 -0.503185
O8    O     O_R   0.179060 0.126760 0.325630 -0.510107
O9    O     O_3   0.334530 0.834540 0.749640 -0.253707
O10   O     O_3   0.665470 0.834540 0.250360 -0.255806
O11   O     O_3   0.834530 0.334540 0.749640 -0.253729
O12   O     O_R   0.784910 0.709860 0.171870 -0.521480
O13   O     O_3   0.165470 0.334540 0.250360 -0.255810
O14   O     O_R   0.236990 0.958390 0.823710 -0.517900
O15   O     O_R   0.763010 0.958390 0.176290 -0.517459
O16   O     O_R   0.736990 0.458390 0.823710 -0.517889
O17   O     O_R   0.263010 0.458390 0.176290 -0.517444
O18   O     O_R   0.332380 0.074750 0.830850 -0.526680
O19   O     O_R   0.667620 0.074750 0.169150 -0.526572
O20   O     O_R   0.832380 0.574750 0.830850 -0.526703
O21   O     O_R   0.167620 0.574750 0.169150 -0.526561
O22   O     O_R   0.445800 0.917770 0.825070 -0.507037
O23   O     O_R   0.715090 0.209860 0.828130 -0.522122
O24   O     O_R   0.554200 0.917770 0.174930 -0.505734
O25   O     O_R   0.945800 0.417770 0.825070 -0.507018
O26   O     O_R   0.054200 0.417770 0.174930 -0.505719
O27   O     O_R   0.456410 0.716580 0.829970 -0.533678
O28   O     O_R   0.543590 0.716580 0.170030 -0.531740
O29   O     O_R   0.956410 0.216580 0.829970 -0.533654
O30   O     O_R   0.043590 0.216580 0.170030 -0.531721
O31   O     O_R   0.321080 0.625290 0.822650 -0.498234
O32   O     O_R   0.678920 0.625290 0.177350 -0.496495
O33   O     O_R   0.821080 0.125290 0.822650 -0.498138
O34   O     O_R   0.284910 0.209860 0.171870 -0.521420
O35   O     O_R   0.178920 0.125290 0.177350 -0.496496
O36   O     O_R   0.214930 0.711450 0.668160 -0.513622
O37   O     O_R   0.785070 0.711450 0.331840 -0.512348
O38   O     O_R   0.714930 0.211450 0.668160 -0.513625
O39   O     O_R   0.285070 0.211450 0.331840 -0.512351
O40   O     O_R   0.236850 0.959870 0.675420 -0.498983
O41   O     O_R   0.763150 0.959870 0.324580 -0.498199
O42   O     O_R   0.736850 0.459870 0.675420 -0.498982
O43   O     O_R   0.263150 0.459870 0.324580 -0.498210
O44   O     O_R   0.332230 0.076350 0.670880 -0.530279
O45   O     O_R   0.445660 0.919250 0.676780 -0.503299
O46   O     O_R   0.667770 0.076350 0.329120 -0.530986
O47   O     O_R   0.832230 0.576350 0.670880 -0.530269
O48   O     O_R   0.167770 0.576350 0.329120 -0.530994
O49   O     O_R   0.554340 0.919250 0.323220 -0.498472
O50   O     O_R   0.945660 0.419250 0.676780 -0.503300
O51   O     O_R   0.054340 0.419250 0.323220 -0.498470
O52   O     O_R   0.456260 0.718170 0.670000 -0.514455

loop_
_geom_bond_atom_site_label_1
_geom_bond_atom_site_label_2
_ccdc_geom_bond_type
C102  H50   S    
C89   H28   S    
C87   C88   A    
C35   C74   S    
Cr3   O33   S    
C101  C102  S    
Cr4   O8    S    
C31   H25   S    
C55   C59   S    
Cr8   O9    S    
C103  H62   S    
Cr3   O11   S    
C79   O8    A    
C16   H17   S    
Cr12  O31   S    
C87   H5    S    
C105  H58   S    
C80   C84   A    
C107  H75   S    
C49   O22   A    
Cr10  O25   S    
C48   C57   D    
C108  H73   S    
C64   O23   A    
C13   C65   A    
C33   H23   S    
C6    H93   S    
C17   C66   S    
C93   C94   S    
C36   C37   S    
C51   O25   A    
Cr11  O26   S    
C50   O24   A    
C73   O50   A    
C5    H81   S    
C38   C39   S    
C86   C88   A    
C9    C22   S    
C4    H84   S    
C104  H59   S    
C20   C25   D    
C54   H90   S    
C76   C98   A    
Cr4   O13   S    
C14   C62   S    
Cr8   O18   S    
Cr9   O10   S    
C33   C36   D    
C82   C92   A    
C101  H52   S    
C8    H88   S    
C62   O1    A    
C49   C81   S    
C57   C61   S    
C93   H39   S    
C104  C105  S    
C46   C69   S    
C43   O17   A    
C33   C72   S    
C99   H41   S    
Cr1   O9    S    
Cr11  O13   S    
C6    C7    S    
C66   O34   A    
C71   O52   A    
C30   H14   S    
C105  H56   S    
C46   C55   D    
C24   H7    S    
C107  C108  S    
C2    H69   S    
C41   H64   S    
C3    C19   S    
C17   H18   S    
Cr12  O27   S    
C23   C27   S    
C14   C27   D    
C63   O12   A    
Cr2   O10   S    
C9    C10   S    
C11   H97   S    
C68   O46   A    
Cr9   O46   S    
C11   H96   S    
C106  H78   S    
C40   H63   S    
C81   C89   A    
Cr1   O14   S    
C102  H49   S    
C31   C71   S    
Cr6   O23   S    
Cr3   O7    S    
C45   C53   D    
C1    C22   S    
C71   O45   A    
C77   O37   A    
C99   H40   S    
C17   C30   D    
Cr4   O4    S    
C46   H57   S    
C2    C87   A    
C93   H38   S    
Cr5   O37   S    
C90   H29   S    
C50   O28   A    
C19   C32   S    
C61   H35   S    
C54   C84   A    
C68   O41   A    
C97   C99   S    
Cr5   O10   S    
C10   H99   S    
C7    H92   S    
C5    H80   S    
C100  H53   S    
C25   C29   S    
C70   O43   A    
C57   C103  S    
Cr8   O22   S    
C40   C58   D    
C73   O3    A    
C48   H79   S    
C53   C93   S    
C34   C39   D    
C76   H4    S    
C24   C28   S    
C7    C8    S    
C35   C38   D    
C84   C85   A    
C41   C59   D    
C75   O36   A    
Cr2   O6    S    
C42   C60   D    
C91   C92   A    
Cr7   O17   S    
C55   C96   S    
Cr4   O35   S    
Cr6   O16   S    
C15   H16   S    
C32   O20   A    
C97   H43   S    
C16   C29   D    
C82   C86   A    
C37   H20   S    
C43   O21   A    
C31   C37   D    
C50   C80   S    
C95   H33   S    
C35   H26   S    
C3    H85   S    
C8    H87   S    
Cr4   O30   S    
C18   C106  S    
C98   H67   S    
Cr8   O44   S    
C91   H30   S    
C99   H42   S    
Cr11  O21   S    
C34   H27   S    
Cr9   O49   S    
C18   C23   D    
C6    H94   S    
C39   H22   S    
C75   O5    A    
C1    O14   A    
C53   C58   S    
C97   H44   S    
C72   O2    A    
C96   C97   S    
C20   C21   S    
C92   H31   S    
C78   O38   A    
C96   H47   S    
C70   O48   A    
Cr3   O3    S    
C106  C107  S    
C66   O35   A    
C52   C82   S    
Cr6   O38   S    
Cr9   O19   S    
C49   O27   A    
C26   H9    S    
Cr7   O43   S    
C23   H6    S    
C67   O44   A    
C13   H71   S    
C42   H65   S    
C62   O31   A    
C21   O19   A    
Cr8   O45   S    
C94   H37   S    
C106  H77   S    
C100  H54   S    
C72   O49   A    
C44   C61   D    
C38   H21   S    
C25   H8    S    
C56   C100  S    
C108  H74   S    
C3    C4    S    
Cr2   O2    S    
C51   C83   S    
C47   C68   S    
Cr7   O13   S    
C74   O4    A    
Cr1   O1    S    
C10   H98   S    
Cr5   O12   S    
C64   O33   A    
C45   H46   S    
Cr10  O20   S    
C78   O7    A    
Cr5   O15   S    
C58   H1    S    
C102  H48   S    
C65   H2    S    
Cr1   O36   S    
Cr10  O11   S    
C45   C70   S    
C103  H61   S    
C3    H86   S    
C5    H82   S    
C44   C79   S    
C67   O40   A    
C4    C5    S    
C4    H83   S    
C52   O26   A    
Cr12  O9    S    
C69   O47   A    
C63   O32   A    
C7    H91   S    
C74   O51   A    
C65   C85   A    
C69   O42   A    
Cr2   O28   S    
C1    O18   A    
Cr3   O29   S    
Cr11  O51   S    
Cr5   O41   S    
Cr6   O11   S    
C42   C78   S    
Cr12  O52   S    
C40   C75   S    
C28   H11   S    
Cr2   O32   S    
C95   H34   S    
Cr1   O40   S    
C19   C24   D    
Cr6   O42   S    
C79   O39   A    
C107  H76   S    
Cr7   O39   S    
C18   C43   S    
C60   H24   S    
C41   C77   S    
C32   O16   A    
C15   C28   D    
C104  H60   S    
Cr7   O34   S    
C6    C20   S    
Cr11  O48   S    
C83   C91   A    
C100  C101  S    
C9    H3    S    
C59   H13   S    
C101  H51   S    
C12   H70   S    
C48   C67   S    
C80   C90   A    
C94   C95   S    
C51   O29   A    
C36   H19   S    
C81   C85   A    
C10   C11   S    
C34   C73   S    
C22   C26   D    
Cr10  O47   S    
C29   H12   S    
Cr9   O24   S    
C56   C60   S    
C77   O6    A    
C9    H100  S    
C12   C13   A    
C2    C98   A    
C94   H36   S    
C105  H55   S    
C76   C86   A    
C44   H66   S    
C103  C104  S    
C47   H68   S    
C27   H10   S    
C15   C63   S    
C96   H45   S    
C108  H72   S    
C95   H32   S    
C16   C64   S    
C89   C90   A    
C83   C88   A    
C52   O30   A    
Cr12  O5    S    
C21   O15   A    
C12   C54   A    
C14   H15   S    
C8    H89   S    
C11   H95   S    
C47   C56   D    
Cr10  O50   S    
C26   C30   S    
