data_mof_unit_65719.cif
_audit_creation_date              2012-12-10T16:35:06-0500
_audit_creation_method            fapswitch 2.2
_symmetry_space_group_name_H-M    P1
_symmetry_Int_Tables_number       1
_space_group_crystal_system       triclinic
_cell_length_a                    10.897523
_cell_length_b                    10.830925
_cell_length_c                    10.896822
_cell_angle_alpha                 80.488939
_cell_angle_beta                  98.620645
_cell_angle_gamma                 90.606731
_cell_volume                      1254.01156933

loop_
_atom_site_label
_atom_site_type_symbol
_atom_type_description
_atom_site_fract_x
_atom_site_fract_y
_atom_site_fract_z
_atom_type_partial_charge
Br1   Br    Br    0.039304 0.375164 0.707159 -0.371818
Br2   Br    Br    0.353183 0.660180 0.920523 -0.460968
Br3   Br    Br    0.654897 0.333086 0.058112 -0.418097
C1    C     C_R   0.834230 0.471973 0.529179 0.529086
C2    C     C_2   0.467088 0.027580 0.536755 -0.028084
C3    C     C_2   0.530922 0.968731 0.466886 -0.061646
C4    C     C_2   0.028049 0.529813 0.455677 -0.022933
C5    C     C_3   0.387490 0.955910 0.626620 -0.344627
C6    C     C_3   0.957560 0.607092 0.337440 -0.391154
C7    C     C_2   0.966735 0.463651 0.543759 0.180031
C8    C     C_2   0.466965 0.535978 0.024162 0.129859
C9    C     C_2   0.534638 0.460238 0.972079 0.160420
C10   C     C_R   0.163681 0.526565 0.472060 0.550132
C11   C     C_R   0.523038 0.473154 0.838258 0.575288
C12   C     C_R   0.476427 0.527241 0.160218 0.546502
C13   C     C_R   0.525569 0.835148 0.473887 0.495426
C14   C     C_R   0.476179 0.163766 0.524480 0.526733
H1    H     H_    0.587211 0.019225 0.401364 0.137714
H2    H     H_    0.341103 0.018293 0.677252 0.185247
H3    H     H_    0.314173 0.904892 0.573731 0.149782
H4    H     H_    0.446023 0.887552 0.698213 0.173292
H5    H     H_    0.020183 0.655166 0.273956 0.183288
H6    H     H_    0.896598 0.545607 0.283450 0.165546
H7    H     H_    0.899832 0.679941 0.363267 0.130579
O1    O     O_3   0.500000 0.500000 0.500000 -0.479019
O2    O     O_R   0.597340 0.765700 0.560080 -0.530621
O3    O     O_R   0.548200 0.222430 0.451790 -0.530591
O4    O     O_R   0.441590 0.789440 0.401000 -0.527532
O5    O     O_R   0.412860 0.222430 0.587130 -0.531392
O6    O     O_R   0.441590 0.410520 0.779910 -0.500532
O7    O     O_R   0.548210 0.443940 0.230290 -0.512726
O8    O     O_R   0.787780 0.544200 0.591150 -0.518620
O9    O     O_R   0.222430 0.601350 0.398650 -0.542509
O10   O     O_R   0.767360 0.410530 0.454140 -0.531991
O11   O     O_R   0.222430 0.443930 0.556060 -0.488981
O12   O     O_R   0.597340 0.544190 0.781580 -0.514829
O13   O     O_R   0.412870 0.601350 0.208220 -0.502121
Zn1   Zn    Zn3+2 0.396020 0.396030 0.603970 1.022895
Zn2   Zn    Zn3+2 0.618560 0.587010 0.606350 0.995264
Zn3   Zn    Zn3+2 0.396030 0.620930 0.379070 0.983073
Zn4   Zn    Zn3+2 0.589390 0.396030 0.410610 0.990635

loop_
_geom_bond_atom_site_label_1
_geom_bond_atom_site_label_2
_ccdc_geom_bond_type
O5    Zn1   S    
C13   O4    A    
C4    C7    D    
C8    C9    D    
C6    H7    S    
C12   O7    A    
O1    Zn1   S    
C2    C5    S    
C14   O5    A    
O3    Zn4   S    
C5    H4    S    
C5    H3    S    
O1    Zn2   S    
C10   O9    A    
C1    O8    A    
O10   Zn4   S    
C8    C12   S    
C11   O6    A    
Br2   C8    S    
C9    C11   S    
C10   O11   A    
O13   Zn3   S    
O1    Zn3   S    
C11   O12   A    
C2    C3    D    
C3    H1    S    
C1    O10   A    
O2    Zn2   S    
O9    Zn3   S    
C2    C14   S    
O4    Zn3   S    
C3    C13   S    
C5    H2    S    
C4    C10   S    
O11   Zn1   S    
O6    Zn1   S    
C6    H5    S    
O8    Zn2   S    
O1    Zn4   S    
C4    C6    S    
C12   O13   A    
Br3   C9    S    
O7    Zn4   S    
C1    C7    S    
O12   Zn2   S    
C6    H6    S    
Br1   C7    S    
C13   O2    A    
C14   O3    A    
