data_mof_unit_16507.cif
_audit_creation_date              2012-12-11T14:52:43-0500
_audit_creation_method            fapswitch 2.2
_symmetry_space_group_name_H-M    P1
_symmetry_Int_Tables_number       1
_space_group_crystal_system       triclinic
_cell_length_a                    20.621747
_cell_length_b                    7.256872
_cell_length_c                    20.316768
_cell_angle_alpha                 90.002827
_cell_angle_beta                  101.463448
_cell_angle_gamma                 89.998803
_cell_volume                      2979.74102987

loop_
_atom_site_label
_atom_site_type_symbol
_atom_type_description
_atom_site_fract_x
_atom_site_fract_y
_atom_site_fract_z
_atom_type_partial_charge
O1    O     O_R   0.673670 0.377510 0.185950 -0.536041
O2    O     O_R   0.326330 0.622490 0.814050 -0.536041
O3    O     O_R   0.826330 0.877510 0.314050 -0.536046
O4    O     O_R   0.173670 0.122490 0.685950 -0.536045
O5    O     O_R   0.806260 0.705340 0.185590 -0.531872
O6    O     O_R   0.193740 0.294660 0.814410 -0.531872
O7    O     O_R   0.693740 0.205340 0.314410 -0.531875
O8    O     O_R   0.306260 0.794660 0.685590 -0.531875
C1    C     C_R   0.825643 0.538708 0.170808 0.716269
C2    C     C_R   0.174356 0.461292 0.829192 0.716269
C3    C     C_R   0.674355 0.038716 0.329192 0.716269
C4    C     C_R   0.325645 0.961284 0.670808 0.716269
O9    O     O_R   0.672940 0.707120 0.178050 -0.540639
O10   O     O_R   0.327060 0.292880 0.821950 -0.540639
O11   O     O_R   0.827060 0.207120 0.321950 -0.540646
O12   O     O_R   0.172940 0.792880 0.678050 -0.540647
O13   O     O_R   0.692060 0.879040 0.306460 -0.533846
O14   O     O_R   0.307940 0.120960 0.693540 -0.533846
O15   O     O_R   0.807940 0.379040 0.193540 -0.533848
O16   O     O_R   0.192060 0.620960 0.806460 -0.533848
C5    C     C_R   0.648790 0.540117 0.160863 0.687871
C6    C     C_R   0.351210 0.459883 0.839137 0.687870
C7    C     C_R   0.851209 0.040120 0.339138 0.687864
C8    C     C_R   0.148791 0.959880 0.660862 0.687865
O17   O     O_3   0.756430 0.544390 0.292140 -0.374922
O18   O     O_3   0.243570 0.455610 0.707860 -0.374922
O19   O     O_3   0.743570 0.044390 0.207860 -0.374916
O20   O     O_3   0.256430 0.955610 0.792140 -0.374916
V1    V     V_3+5 0.748810 0.818610 0.242180 1.418350
V2    V     V_3+5 0.251190 0.181390 0.757820 1.418350
V3    V     V_3+5 0.751190 0.318610 0.257820 1.418348
V4    V     V_3+5 0.248810 0.681390 0.742180 1.418347
C9    C     C_R   0.088201 0.956448 0.606527 -0.063276
C10   C     C_R   0.911798 0.043552 0.393473 -0.063276
C11   C     C_R   0.411801 0.456458 0.893469 -0.063265
C12   C     C_R   0.588199 0.543542 0.106531 -0.063265
C13   C     C_R   0.004701 0.221934 0.456417 -0.195934
C14   C     C_R   0.995299 0.778066 0.543583 -0.195932
C15   C     C_R   0.495277 0.721930 0.043610 -0.195884
C16   C     C_R   0.504723 0.278071 0.956390 -0.195882
C17   C     C_R   0.951730 0.203311 0.402000 -0.158738
C18   C     C_R   0.048270 0.796689 0.598000 -0.158735
C19   C     C_R   0.548251 0.703300 0.098025 -0.158714
C20   C     C_R   0.451749 0.296700 0.901975 -0.158714
C21   C     C_R   0.927376 0.899933 0.440411 -0.235436
C22   C     C_R   0.072624 0.100067 0.559589 -0.235437
C23   C     C_R   0.572636 0.399927 0.059576 -0.235412
C24   C     C_R   0.427364 0.600073 0.940424 -0.235414
C25   C     C_R   0.980588 0.918640 0.495843 0.157206
C26   C     C_R   0.019412 0.081360 0.504157 0.157207
C27   C     C_R   0.519420 0.418640 0.004147 0.157185
C28   C     C_R   0.480580 0.581361 0.995853 0.157185
H1    H     H_    0.103020 0.223134 0.564888 0.126382
H2    H     H_    0.896980 0.776866 0.435112 0.126383
H3    H     H_    0.396955 0.723139 0.935141 0.126375
H4    H     H_    0.603045 0.276861 0.064859 0.126375
H5    H     H_    0.058484 0.683573 0.633332 0.128909
H6    H     H_    0.941516 0.316427 0.366668 0.128908
H7    H     H_    0.441544 0.183590 0.866630 0.128887
H8    H     H_    0.558456 0.816410 0.133370 0.128886
H9    H     H_    0.033780 0.347405 0.461432 0.122409
H10   H     H_    0.966220 0.652595 0.538567 0.122411
H11   H     H_    0.466185 0.847403 0.038610 0.122402
H12   H     H_    0.533815 0.152598 0.961389 0.122404
C29   C     C_3   0.540453 0.139352 0.518261 0.565092
C30   C     C_3   0.459547 0.860648 0.481739 0.565092
C31   C     C_3   0.959460 0.639114 0.981675 0.565121
C32   C     C_3   0.040541 0.360881 0.018325 0.565091
C33   C     C_3   0.533819 0.972453 0.563623 -0.279768
C34   C     C_3   0.466181 0.027547 0.436377 -0.279769
C35   C     C_3   0.966198 0.472110 0.936395 -0.279731
C36   C     C_3   0.033803 0.527886 0.063606 -0.279757
H13   H     H_    0.561313 0.951435 0.615863 0.133093
H14   H     H_    0.438687 0.048565 0.384136 0.133089
H15   H     H_    0.938717 0.450833 0.884167 0.133105
H16   H     H_    0.061282 0.549171 0.115834 0.133073
H17   H     H_    0.564395 0.712678 0.504501 0.159045
H18   H     H_    0.435605 0.287322 0.495499 0.159045
H19   H     H_    0.935790 0.212394 0.995638 0.159015
H20   H     H_    0.064205 0.787616 0.004363 0.159028
C37   C     C_1   0.371329 0.969490 0.625005 -0.177231
C38   C     C_1   0.628671 0.030510 0.374995 -0.177231
C39   C     C_1   0.128674 0.469524 0.874998 -0.177217
C40   C     C_1   0.871325 0.530476 0.125002 -0.177219
C41   C     C_3   0.464582 0.158161 0.496844 -0.286745
C42   C     C_3   0.535418 0.841839 0.503156 -0.286743
C43   C     C_3   0.035317 0.658317 0.003076 -0.286713
C44   C     C_3   0.964683 0.341682 0.996925 -0.286732
C45   C     C_3   0.457631 0.988773 0.541368 0.047810
C46   C     C_3   0.542369 0.011227 0.458631 0.047810
C47   C     C_3   0.042374 0.488826 0.958634 0.047771
C48   C     C_3   0.957627 0.511172 0.041366 0.047796
C49   C     C_1   0.410032 0.977129 0.587138 0.015287
C50   C     C_1   0.589968 0.022871 0.412862 0.015287
C51   C     C_1   0.089973 0.477185 0.912865 0.015340
C52   C     C_1   0.910027 0.522814 0.087135 0.015339
O21   O     O_3   0.585690 0.285949 0.534771 -0.550574
C53   C     C_3   0.571163 0.382962 0.590145 -0.267050
H21   H     H_    0.574405 0.292298 0.634809 0.136253
H22   H     H_    0.521690 0.449579 0.577412 0.151322
H23   H     H_    0.608362 0.493956 0.603899 0.166768
O22   O     O_3   0.414310 0.714051 0.465228 -0.550574
C54   C     C_3   0.428836 0.617039 0.409855 -0.267058
H24   H     H_    0.478310 0.550422 0.422587 0.151324
H25   H     H_    0.425594 0.707703 0.365191 0.136252
H26   H     H_    0.391638 0.506044 0.396101 0.166765
O23   O     O_3   0.914119 0.785434 0.965088 -0.550519
C55   C     C_3   0.928625 0.882457 0.909713 -0.266909
H27   H     H_    0.925538 0.791694 0.865087 0.136189
H28   H     H_    0.978030 0.949452 0.922488 0.151076
H29   H     H_    0.891322 0.993157 0.895873 0.166850
O24   O     O_3   0.085871 0.214532 0.034894 -0.550535
C56   C     C_3   0.071436 0.117656 0.090336 -0.266916
H30   H     H_    0.021958 0.051032 0.077704 0.150944
H31   H     H_    0.074747 0.208433 0.134985 0.136252
H32   H     H_    0.108641 0.006676 0.104058 0.166830

loop_
_geom_bond_atom_site_label_1
_geom_bond_atom_site_label_2
_ccdc_geom_bond_type
O17   V3    S    
C24   H3    S    
O1    C5    A    
C38   C50   T    
C43   C47   S    
O19   V1    S    
O13   V1    S    
C30   O22   S    
O3    C7    A    
O1    V3    S    
C36   H16   S    
O15   V3    S    
O21   C53   S    
C5    C12   S    
O7    C3    A    
C6    C11   S    
C9    C18   A    
O9    V1    S    
C17   H6    S    
C14   C18   A    
H20   C43   S    
C32   O24   S    
C36   C48   S    
C20   H7    S    
C2    C39   S    
C48   C52   S    
C32   C47   S    
C55   H27   S    
C12   C23   A    
O2    V4    S    
C40   C52   T    
O3    V1    S    
C34   H14   S    
O24   C56   S    
C1    O15   A    
C44   C48   S    
C2    O16   A    
O2    C6    A    
O23   C55   S    
C33   H13   S    
O14   V2    S    
C32   C36   S    
C56   H32   S    
O11   C7    A    
C15   C28   A    
O12   C8    A    
C45   C49   S    
C9    C22   A    
C34   C46   S    
C10   C17   A    
O10   V2    S    
C33   C45   S    
C11   C24   A    
C18   H5    S    
H19   C44   S    
C46   C50   S    
C30   C45   S    
O5    V1    S    
C3    C38   S    
C29   C46   S    
O7    V3    S    
C27   C28   A    
O8    V4    S    
C42   C46   S    
C14   C25   A    
C41   C45   S    
O18   V4    S    
C23   C27   A    
O5    C1    A    
C37   C49   T    
C13   H9    S    
C21   C25   A    
O8    C4    A    
C7    C10   S    
C39   C51   T    
O9    C5    A    
C54   H25   S    
C10   C21   A    
O11   V3    S    
C11   C20   A    
C19   H8    S    
H18   C41   S    
O6    V2    S    
H17   C42   S    
C53   H21   S    
C53   H22   S    
C32   C44   S    
C53   H23   S    
C30   C42   S    
C36   C43   S    
C56   H30   S    
O16   V4    S    
C3    O13   A    
C21   H2    S    
O6    C2    A    
C15   C19   A    
C29   C41   S    
O12   V4    S    
C16   C27   A    
C15   H11   S    
C22   C26   A    
C31   C43   S    
C8    C9    S    
C16   H12   S    
C55   H29   S    
O10   C6    A    
O20   V2    S    
C29   O21   S    
C35   H15   S    
C13   C26   A    
C31   O23   S    
C30   C34   S    
O4    C8    A    
C29   C33   S    
C22   H1    S    
C31   C48   S    
C55   H28   S    
C4    C37   S    
C54   H26   S    
C31   C35   S    
C13   C17   A    
O22   C54   S    
C1    C40   S    
C47   C51   S    
C35   C44   S    
C16   C20   A    
C35   C47   S    
C25   C26   A    
C4    O14   A    
C54   H24   S    
C12   C19   A    
C14   H10   S    
C24   C28   A    
C34   C41   S    
O4    V2    S    
C33   C42   S    
C23   H4    S    
C56   H31   S    
