data_mof_unit_38545.cif
_audit_creation_date              2013-03-05T15:45:41-0500
_audit_creation_method            fapswitch 2.2
_symmetry_space_group_name_H-M    P1
_symmetry_Int_Tables_number       1
_space_group_crystal_system       triclinic
_cell_length_a                    6.935013
_cell_length_b                    16.67421
_cell_length_c                    16.926387
_cell_angle_alpha                 101.168177
_cell_angle_beta                  89.046297
_cell_angle_gamma                 91.583384
_cell_volume                      1919.37134348

loop_
_atom_site_label
_atom_site_type_symbol
_atom_site_description
_atom_site_fract_x
_atom_site_fract_y
_atom_site_fract_z
_atom_type_partial_charge
O1    O     O_R   0.506340 0.439070 0.579550 -0.569945
O2    O     O_R   0.170010 0.404890 0.412100 -0.586121
O3    O     O_R   0.005010 0.560930 0.420450 -0.597235
C1    C     C_R   0.339366 0.381340 0.383542 1.105936
O4    O     O_R   0.176280 0.429360 0.578400 -0.593291
O5    O     O_R   0.011320 0.585570 0.587940 -0.598358
C2    C     C_R   0.341643 0.414981 0.606620 1.062847
O6    O     O_R   0.500030 0.414430 0.412060 -0.570471
O7    O     O_3   0.340950 0.551220 0.502940 -0.297891
V1    V     V_3+5 0.064020 0.490500 0.499460 1.266993
O8    O     O_R   0.681910 0.595110 0.587900 -0.599836
C3    C     C_R   0.851753 0.618023 0.616487 1.090931
O9    O     O_R   0.675640 0.570640 0.421600 -0.588386
C4    C     C_R   0.847333 0.584380 0.393260 1.018353
V2    V     V_3+5 0.564670 0.509500 0.500540 1.266445
O10   O     O_3   0.837610 0.448780 0.497060 -0.261734
C5    C     C_R   0.892742 0.862473 0.167637 -0.157014
C6    C     C_R   0.872007 0.632766 0.328184 -0.262457
C7    C     C_R   0.064664 0.668413 0.216772 -0.283003
C8    C     C_R   0.020096 0.613992 0.268754 0.366618
C9    C     C_R   0.763974 0.703310 0.330129 -0.289873
C10   C     C_R   0.806843 0.756558 0.276516 0.208763
C11   C     C_R   0.960496 0.739702 0.220258 0.137906
C12   C     C_R   0.004405 0.793262 0.166855 -0.193597
C13   C     C_R   0.740511 0.878611 0.224150 -0.121401
C14   C     C_R   0.699146 0.826794 0.278399 -0.171598
H1    H     H_    0.119723 0.779347 0.122673 0.161493
H2    H     H_    0.651746 0.931413 0.225900 0.142322
H3    H     H_    0.178698 0.653979 0.172099 0.189857
H4    H     H_    0.580795 0.841033 0.320986 0.130252
H5    H     H_    0.650693 0.718147 0.375109 0.145009
C15   C     C_3   0.709524 0.778065 0.770748 0.406768
C16   C     C_3   0.803437 0.776567 0.686830 -0.449545
H6    H     H_    0.739567 0.799480 0.635992 0.169408
C17   C     C_3   0.867338 0.687862 0.686549 -0.333521
C18   C     C_3   0.770948 0.690210 0.769394 0.501389
C19   C     C_3   0.960043 0.723039 0.810908 0.214351
C20   C     C_3   0.061272 0.720003 0.728212 -0.231361
C21   C     C_3   0.993737 0.808151 0.730385 0.563102
C22   C     C_3   0.898512 0.811565 0.813723 -0.482076
H7    H     H_    0.207792 0.697013 0.710950 0.207889
C23   C     C_3   0.457902 0.229792 0.314443 0.361213
C24   C     C_3   0.294923 0.180454 0.264947 -0.184522
H8    H     H_    0.224721 0.123654 0.277832 0.149631
C25   C     C_3   0.409869 0.188546 0.187397 -0.205684
C26   C     C_3   0.575432 0.236063 0.237637 -0.344714
C27   C     C_3   0.469199 0.315816 0.235766 0.581265
C28   C     C_3   0.306434 0.269080 0.183938 -0.176744
C29   C     C_3   0.192726 0.262133 0.262637 -0.135716
C30   C     C_3   0.356343 0.310393 0.313538 -0.314585
H9    H     H_    0.731593 0.225517 0.227199 0.156903
H10   H     H_    0.246716 0.286374 0.129313 0.145845
H11   H     H_    0.036935 0.273278 0.273571 0.167826
C31   C     C_R   0.429158 0.140384 0.833669 -0.134819
C32   C     C_R   0.336303 0.364227 0.670516 -0.303292
C33   C     C_R   0.158796 0.310190 0.776107 -0.301933
C34   C     C_R   0.177639 0.367740 0.725486 0.365223
C35   C     C_R   0.479789 0.306552 0.672641 -0.159272
C36   C     C_R   0.463277 0.251077 0.725806 0.188006
C37   C     C_R   0.299556 0.251784 0.776789 0.147297
C38   C     C_R   0.281830 0.195714 0.829502 -0.217424
C39   C     C_R   0.591716 0.140614 0.782606 -0.152525
C40   C     C_R   0.607802 0.194653 0.728864 -0.147091
H12   H     H_    0.157296 0.197243 0.869297 0.134945
H13   H     H_    0.707789 0.098872 0.784455 0.140307
H14   H     H_    0.036284 0.312773 0.817065 0.178321
H15   H     H_    0.734956 0.193107 0.690554 0.137102
H16   H     H_    0.602286 0.303609 0.631629 0.181377
O11   O     O_R   0.266070 0.085680 0.087850 -0.602554
O12   O     O_R   0.590090 0.070660 0.921580 -0.607631
O13   O     O_R   0.754780 0.914400 0.912080 -0.591627
C41   C     C_R   0.424474 0.086799 0.894800 0.941292
O14   O     O_R   0.596110 0.095130 0.087880 -0.598491
O15   O     O_R   0.760850 0.939050 0.079570 -0.596810
C42   C     C_R   0.426790 0.118561 0.116572 0.968727
O16   O     O_R   0.260010 0.061030 0.920360 -0.590578
O17   O     O_3   0.425070 0.948840 0.997010 -0.243175
V3    V     V_3+5 0.702100 0.009490 0.000550 1.187567
O18   O     O_R   0.090200 0.929250 0.078500 -0.593422
C43   C     C_R   0.918136 0.913824 0.105356 0.950141
O19   O     O_R   0.084180 0.904770 0.912200 -0.545978
C44   C     C_R   0.914216 0.881663 0.883736 1.076168
V4    V     V_3+5 0.201420 0.990350 0.999580 1.224654
O20   O     O_3   0.928580 0.051150 0.002990 -0.291848
N1    N     N_R   0.046086 0.694173 0.877867 0.258865
O21   O     O_R   0.962015 0.636082 0.908083 -0.325192
O22   O     O_R   0.209676 0.725716 0.906898 -0.353479
O23   O     O_3   0.111633 0.870977 0.710833 -0.739896
H17   H     H_    0.156533 0.850607 0.654824 0.313212
N2    N     N_R   0.540199 0.205130 0.384462 0.238504
O24   O     O_R   0.625035 0.135369 0.376167 -0.402857
O25   O     O_R   0.525763 0.251240 0.455534 -0.446393
O26   O     O_3   0.559429 0.387547 0.220986 -0.675594
H18   H     H_    0.622011 0.372153 0.167309 0.327014
N3    N     N_R   0.038968 0.431465 0.733276 0.248490
O27   O     O_R   0.860053 0.416942 0.751550 -0.377453
O28   O     O_R   0.096650 0.506730 0.735084 -0.365564
N4    N     N_R   0.122991 0.538869 0.258861 0.236721
O29   O     O_R   0.302232 0.536427 0.234612 -0.364634
O30   O     O_R   0.031074 0.470613 0.262826 -0.400562
O31   O     O_3   0.524308 0.805708 0.793248 -0.683137
H19   H     H_    0.519210 0.860722 0.779445 0.336513
O32   O     O_3   0.651766 0.627711 0.788948 -0.653843
H20   H     H_    0.596896 0.650172 0.842881 0.367996

loop_
_geom_bond_atom_site_label_1
_geom_bond_atom_site_label_2
_geom_bond_distance
_ccdc_geom_bond_type
O31   H19   0.991148 S    
O12   V3    2.009208 S    
C6    C9    1.406726 A    
C4    C6    1.491271 S    
O2    C1    1.303964 A    
C7    C8    1.406360 A    
C12   H1    1.084346 S    
C2    C32   1.496245 S    
C1    O6    1.288268 A    
O19   C44   1.300699 A    
O17   V3    2.142504 S    
C13   H2    1.083603 S    
C9    H5    1.084387 S    
C16   C21   1.551168 S    
C18   O32   1.398433 S    
C15   C18   1.532675 S    
C19   N1    1.456705 S    
C18   C19   1.534634 S    
C19   C20   1.548052 S    
C19   C22   1.539530 S    
O5    C3    1.290298 A    
C20   C21   1.548414 S    
C33   H14   1.084061 S    
O17   V4    1.712316 S    
V2    O10   2.165753 S    
N4    O29   1.301766 A    
C33   C34   1.407102 A    
C23   C26   1.542101 S    
O8    V2    2.010841 S    
C27   C28   1.539651 S    
C11   C12   1.412763 A    
O1    V2    1.973681 S    
O7    V1    2.142456 S    
C41   O16   1.304288 A    
O13   C44   1.290332 A    
C36   C37   1.413565 A    
O15   C43   1.292109 A    
O9    C4    1.307221 A    
O14   C42   1.303918 A    
C21   O23   1.397632 S    
O16   V4    1.979811 S    
O19   V4    2.010770 S    
C27   C30   1.536740 S    
N1    O22   1.300247 A    
C40   H15   1.083741 S    
C5    C12   1.405265 A    
C22   C44   1.497687 S    
C17   C20   1.561634 S    
C20   H7    1.110438 S    
C21   C22   1.539194 S    
O4    C2    1.295602 A    
C24   C29   1.559995 S    
C31   C39   1.409457 A    
C13   C14   1.398883 A    
N1    O21   1.300202 A    
C26   H9    1.107748 S    
C5    C43   1.486818 S    
C33   C37   1.399555 A    
C1    C30   1.509101 S    
C37   C38   1.413650 A    
C23   N2    1.457307 S    
C17   C18   1.537446 S    
C38   H12   1.084178 S    
C7    C11   1.398994 A    
C24   H8    1.110210 S    
C39   C40   1.400147 A    
O11   V4    2.005721 S    
V3    O20   1.697617 S    
N2    O25   1.300107 A    
V4    O20   2.165880 S    
O14   V3    1.992131 S    
C16   H6    1.109962 S    
C27   O26   1.397874 S    
C8    N4    1.438899 S    
O26   H18   0.991154 S    
C3    C17   1.495477 S    
C24   C25   1.550655 S    
O3    C4    1.292477 A    
C23   C30   1.537254 S    
C35   H16   1.084192 S    
C28   C29   1.558680 S    
C14   H4    1.083706 S    
O6    V2    2.005049 S    
N4    O30   1.301626 A    
O9    V2    1.966467 S    
C34   N3    1.438480 S    
C23   C24   1.539266 S    
O2    V1    1.992143 S    
O32   H20   0.991111 S    
C25   C28   1.551216 S    
C26   C27   1.543821 S    
C39   H13   1.083339 S    
O1    C2    1.305517 A    
C10   C11   1.414336 A    
O5    V1    1.995882 S    
O8    C3    1.299984 A    
N3    O28   1.301436 A    
C31   C38   1.407042 A    
C36   C40   1.401826 A    
C25   C42   1.507857 S    
C5    C13   1.408670 A    
C15   C16   1.548804 S    
C32   C34   1.424167 A    
C35   C36   1.411272 A    
O4    V1    2.009206 S    
O3    V1    1.997073 S    
V1    O10   1.697581 S    
O18   V4    1.966413 S    
N2    O24   1.300276 A    
C29   H11   1.107793 S    
C16   C17   1.554842 S    
O11   C42   1.288518 A    
C6    C8    1.423388 A    
C15   C22   1.546855 S    
O7    V2    1.714448 S    
C10   C14   1.401233 A    
O18   C43   1.306502 A    
C25   C26   1.546111 S    
C28   H10   1.110041 S    
C31   C41   1.491798 S    
O23   H17   0.991145 S    
C29   C30   1.546252 S    
O15   V3    1.996907 S    
C32   C35   1.408478 A    
N3    O27   1.301340 A    
C15   O31   1.398501 S    
O12   C41   1.295653 A    
C9    C10   1.410238 A    
O13   V3    1.995975 S    
C7    H3    1.084076 S    
