data_mof_unit_39545.cif
_audit_creation_date              2012-12-10T16:48:50-0500
_audit_creation_method            fapswitch 2.2
_symmetry_space_group_name_H-M    P1
_symmetry_Int_Tables_number       1
_space_group_crystal_system       triclinic
_cell_length_a                    17.200761
_cell_length_b                    8.705862
_cell_length_c                    7.431927
_cell_angle_alpha                 102.027934
_cell_angle_beta                  91.002635
_cell_angle_gamma                 92.878637
_cell_volume                      1086.66033791

loop_
_atom_site_label
_atom_site_type_symbol
_atom_type_description
_atom_site_fract_x
_atom_site_fract_y
_atom_site_fract_z
_atom_type_partial_charge
C1    C     C_R   0.500898 0.201073 0.455264 0.870820
C2    C     C_R   0.499110 0.798931 0.544786 0.849842
C3    C     C_2   0.515472 0.038582 0.437809 -0.240576
C4    C     C_2   0.484534 0.961456 0.562476 -0.243887
C5    C     C_R   0.351354 0.497759 0.524026 0.861996
C6    C     C_R   0.649161 0.502662 0.475989 0.850680
C7    C     C_R   0.267279 0.486665 0.530768 -0.184005
C8    C     C_R   0.733653 0.495988 0.463904 -0.201222
C9    C     C_R   0.226339 0.350384 0.431835 0.207036
C10   C     C_R   0.783234 0.572765 0.612860 0.227380
C11   C     C_R   0.146815 0.354503 0.390483 0.259889
C12   C     C_R   0.861663 0.537319 0.614888 0.261350
C13   C     C_R   0.108453 0.494777 0.452871 -0.074813
C14   C     C_R   0.891144 0.433781 0.463678 -0.083635
C15   C     C_R   0.149902 0.629012 0.556023 0.311575
C16   C     C_R   0.842932 0.366496 0.310343 0.314758
C17   C     C_R   0.228905 0.623752 0.595185 -0.228294
C18   C     C_R   0.764358 0.396904 0.311869 -0.230779
C19   C     C_2   0.025167 0.502972 0.413965 -0.050645
C20   C     C_2   0.973419 0.402166 0.465048 -0.044548
Cu1   Cu    Cu3+1 0.508700 0.517250 0.683000 1.043958
Cu2   Cu    Cu3+1 0.491300 0.482750 0.317000 1.041516
H1    H     H_    0.726711 0.338259 0.197010 0.219863
H2    H     H_    0.261408 0.729565 0.666264 0.209853
H3    H     H_    0.991831 0.307964 0.528851 0.210705
H4    H     H_    0.005209 0.604041 0.365092 0.210377
H5    H     H_    0.439345 0.378849 0.958034 0.237119
H6    H     H_    0.560690 0.621096 0.041947 0.242381
N1    N     N_2   0.478180 0.456750 0.041980 -0.196772
N2    N     N_2   0.521820 0.543250 0.958020 -0.193162
O1    O     O_R   0.505650 0.286040 0.618880 -0.624977
O2    O     O_R   0.494350 0.713960 0.381120 -0.617542
O3    O     O_R   0.490960 0.256910 0.309800 -0.510482
O4    O     O_R   0.509040 0.743090 0.690200 -0.515060
O5    O     O_R   0.394600 0.516230 0.672450 -0.582489
O6    O     O_R   0.605400 0.483770 0.327550 -0.594508
O7    O     O_R   0.379910 0.487100 0.363380 -0.554990
O8    O     O_R   0.620090 0.512900 0.636620 -0.548860
Br1   Br    Br    0.280426 0.160620 0.346514 -0.412811
Br2   Br    Br    0.746138 0.731481 0.810326 -0.363696
Br3   Br    Br    0.101984 0.824674 0.641481 -0.308091
Br4   Br    Br    0.881418 0.228511 0.098745 -0.311018
Br5   Br    Br    0.928282 0.626542 0.826875 -0.311652
Br6   Br    Br    0.093994 0.173730 0.231991 -0.277145
C21   C     C_2   0.576447 0.973996 0.305316 0.437212
H7    H     H_    0.607542 0.872215 0.321627 0.077201
O9    O     O_2   0.594100 0.036797 0.178224 -0.489888
C22   C     C_2   0.423825 0.026128 0.695706 0.443703
H8    H     H_    0.393216 0.128956 0.681115 0.094011
O10   O     O_2   0.405811 0.962224 0.821682 -0.487675

loop_
_geom_bond_atom_site_label_1
_geom_bond_atom_site_label_2
_ccdc_geom_bond_type
C2    C4    S    
C6    O8    A    
N1    N2    D    
Cu1   O5    S    
Cu2   N1    S    
C14   C20   S    
H5    N1    S    
C11   C13   A    
Cu1   N2    S    
C5    O5    A    
C19   C20   D    
C9    Br1   S    
Cu1   O1    S    
C22   O10   D    
C1    O3    A    
C11   Br6   S    
C16   C18   A    
C21   H7    S    
C9    C11   A    
C2    O4    A    
Cu2   O2    S    
Cu2   O3    S    
C10   C12   A    
H6    N2    S    
C22   H8    S    
C12   C14   A    
C12   Br5   S    
C7    C9    A    
C13   C15   A    
C14   C16   A    
C17   H2    S    
C20   H3    S    
C13   C19   S    
C3    C4    D    
C16   Br4   S    
C1    O1    A    
Cu2   O6    S    
C15   Br3   S    
C2    O2    A    
C4    C22   S    
C21   O9    D    
C15   C17   A    
C19   H4    S    
C5    C7    S    
C5    O7    A    
C10   Br2   S    
C6    C8    S    
Cu1   O4    S    
C1    C3    S    
Cu1   Cu2   S    
Cu2   O7    S    
C3    C21   S    
C8    C10   A    
C8    C18   A    
Cu1   O8    S    
C18   H1    S    
C6    O6    A    
C7    C17   A    
