data_mof_unit_15837.cif
_audit_creation_date              2012-12-10T17:44:37-0500
_audit_creation_method            fapswitch 2.2
_symmetry_space_group_name_H-M    P1
_symmetry_Int_Tables_number       1
_space_group_crystal_system       triclinic
_cell_length_a                    9.896271
_cell_length_b                    10.729265
_cell_length_c                    15.482713
_cell_angle_alpha                 91.203698
_cell_angle_beta                  67.817596
_cell_angle_gamma                 89.05371
_cell_volume                      1521.40904314

loop_
_atom_site_label
_atom_site_type_symbol
_atom_type_description
_atom_site_fract_x
_atom_site_fract_y
_atom_site_fract_z
_atom_type_partial_charge
C1    C     C_R   0.500535 0.740319 0.495239 0.870033
C2    C     C_R   0.743022 0.521137 0.029109 0.175328
C3    C     C_R   0.596625 0.556609 0.084961 0.096685
C4    C     C_R   0.408770 0.502116 0.676035 0.848843
C5    C     C_R   0.842031 0.489648 0.070914 -0.218844
C6    C     C_R   0.795096 0.486353 0.167701 -0.198910
C7    C     C_R   0.552132 0.551640 0.181736 -0.267515
C8    C     C_R   0.240027 0.894562 0.494678 -0.168102
C9    C     C_R   0.105845 0.959085 0.528898 -0.147091
C10   C     C_R   0.092209 0.072547 0.576592 -0.154377
C11   C     C_R   0.215902 0.127076 0.581507 -0.153874
C12   C     C_R   0.427794 0.559495 0.907908 0.094010
C13   C     C_R   0.355127 0.067398 0.538930 0.099798
C14   C     C_R   0.363550 0.942986 0.508363 0.098092
C15   C     C_R   0.495729 0.874457 0.492854 -0.123579
C16   C     C_R   0.495030 0.261212 0.509464 0.886064
C17   C     C_R   0.621559 0.935357 0.489121 -0.221512
C18   C     C_R   0.618719 0.062237 0.500260 -0.218218
C19   C     C_R   0.487433 0.129007 0.522123 -0.132331
C20   C     C_R   0.785819 0.663589 0.623665 -0.174707
C21   C     C_R   0.818820 0.739802 0.686471 -0.213844
C22   C     C_R   0.957765 0.736181 0.687909 -0.190061
C23   C     C_R   0.287229 0.611534 0.959907 0.177934
C24   C     C_R   0.065017 0.657531 0.625667 -0.181238
C25   C     C_R   0.035124 0.578420 0.561725 0.145961
C26   C     C_R   0.890759 0.579777 0.561163 0.170809
C27   C     C_R   0.964360 0.423908 0.441513 -0.137731
C28   C     C_R   0.591311 0.502051 0.324078 0.880088
C29   C     C_R   0.107650 0.424178 0.441370 -0.113670
C30   C     C_R   0.354350 0.523965 0.776830 -0.052478
C31   C     C_R   0.648642 0.513737 0.222993 -0.061701
C32   C     C_R   0.182833 0.621523 0.918931 -0.223770
C33   C     C_R   0.217218 0.579733 0.826895 -0.220435
C34   C     C_R   0.536744 0.557023 0.946376 0.064381
C35   C     C_R   0.454292 0.508015 0.819531 -0.262908
C36   C     C_R   0.495798 0.585012 0.042620 0.068624
C37   C     C_R   0.355006 0.638148 0.093194 -0.232521
C38   C     C_R   0.253490 0.653100 0.051659 -0.242963
C39   C     C_R   0.685354 0.528695 0.891565 -0.228889
C40   C     C_R   0.787185 0.513271 0.932492 -0.246020
H1    H     H_    0.147121 0.694723 0.092194 0.151262
H2    H     H_    0.677217 0.674124 0.626529 0.211846
H3    H     H_    0.735941 0.802420 0.734122 0.160156
H4    H     H_    0.439773 0.570114 0.226395 0.157577
H5    H     H_    0.983437 0.796108 0.736459 0.157744
H6    H     H_    0.170482 0.662171 0.628713 0.209084
H7    H     H_    0.190861 0.362145 0.393544 0.156821
H8    H     H_    0.871551 0.458169 0.198959 0.156342
H9    H     H_    0.899378 0.489280 0.888615 0.151872
H10   H     H_    0.076356 0.664393 0.957199 0.146093
H11   H     H_    0.139085 0.594411 0.794311 0.150970
H12   H     H_    0.954024 0.462691 0.028793 0.150789
H13   H     H_    0.321935 0.672812 0.164285 0.146562
H14   H     H_    0.726496 0.520352 0.816404 0.164532
H15   H     H_    0.554360 0.456126 0.781580 0.157126
H16   H     H_    0.723814 0.885298 0.475826 0.170762
H17   H     H_    0.245003 0.810138 0.454469 0.171291
H18   H     H_    0.011875 0.919829 0.519711 0.146507
H19   H     H_    0.986963 0.120443 0.606781 0.139006
H20   H     H_    0.201674 0.215939 0.618646 0.156191
H21   H     H_    0.720353 0.107995 0.489670 0.169234
H22   H     H_    0.939701 0.361760 0.393816 0.142932
N1    N     N_R   0.856800 0.501200 0.500850 -0.117463
N2    N     N_R   0.142390 0.501280 0.500880 -0.124703
O1    O     O_R   0.385310 0.683220 0.500000 -0.649712
O2    O     O_R   0.614640 0.683250 0.500010 -0.635467
O3    O     O_R   0.319840 0.499980 0.632240 -0.639779
O4    O     O_R   0.549160 0.500000 0.632250 -0.632160
O5    O     O_R   0.385360 0.316750 0.499990 -0.616956
O6    O     O_R   0.614690 0.316780 0.500000 -0.615996
O7    O     O_R   0.450840 0.500000 0.367750 -0.616223
O8    O     O_R   0.680160 0.500020 0.367760 -0.610653
Zn1   Zn    Zn3+2 0.346880 0.499980 0.499990 0.917540
Zn2   Zn    Zn3+2 0.653120 0.500020 0.500010 0.927512

loop_
_geom_bond_atom_site_label_1
_geom_bond_atom_site_label_2
_ccdc_geom_bond_type
C27   C29   A    
C12   C23   A    
C6    H8    S    
C30   C35   A    
C29   H7    S    
C36   C37   A    
C18   C19   A    
C3    C7    A    
C5    C6    A    
C39   H14   S    
O4    Zn2   S    
C40   H9    S    
O2    Zn2   S    
O1    Zn1   S    
C9    H18   S    
C21   H3    S    
C8    C9    A    
O6    Zn2   S    
C1    O1    A    
N2    Zn1   S    
C5    H12   S    
O5    Zn1   S    
C1    C15   S    
C9    C10   A    
C37   H13   S    
C6    C31   A    
C29   N2    A    
C13   C14   A    
C28   O8    A    
C1    O2    A    
C7    C31   A    
C13   C19   A    
C35   H15   S    
C34   C39   A    
C16   O6    A    
C24   C25   A    
C38   H1    S    
O8    Zn2   S    
C39   C40   A    
C4    O4    A    
C25   C26   A    
C25   N2    A    
C26   N1    A    
C37   C38   A    
C27   H22   S    
C8    H17   S    
C17   C18   A    
C7    H4    S    
C12   C35   A    
C17   H16   S    
C32   H10   S    
C27   N1    A    
O3    Zn1   S    
C22   C24   A    
C28   O7    A    
C12   C34   A    
C11   H20   S    
O7    Zn1   S    
C15   C17   A    
C8    C14   A    
C30   C33   A    
C28   C31   S    
C16   O5    A    
C4    O3    A    
C20   H2    S    
C18   H21   S    
N1    Zn2   S    
C33   H11   S    
C23   C38   A    
C24   H6    S    
C23   C32   A    
C2    C3    A    
C32   C33   A    
C11   C13   A    
C20   C26   A    
C3    C36   A    
C16   C19   S    
C10   H19   S    
C34   C36   A    
C10   C11   A    
C2    C5    A    
C2    C40   A    
C22   H5    S    
C20   C21   A    
C14   C15   A    
C21   C22   A    
C4    C30   S    
