data_mof_unit_10163.cif
_audit_creation_date              2012-12-11T15:15:36-0500
_audit_creation_method            fapswitch 2.2
_symmetry_space_group_name_H-M    P1
_symmetry_Int_Tables_number       1
_space_group_crystal_system       triclinic
_cell_length_a                    20.651618
_cell_length_b                    22.812846
_cell_length_c                    6.931957
_cell_angle_alpha                 90.000664
_cell_angle_beta                  88.285015
_cell_angle_gamma                 89.999969
_cell_volume                      3264.33584211

loop_
_atom_site_label
_atom_site_type_symbol
_atom_type_description
_atom_site_fract_x
_atom_site_fract_y
_atom_site_fract_z
_atom_type_partial_charge
O1    O     O_R   0.387100 0.552640 0.378490 -0.522137
O2    O     O_R   0.612900 0.052640 0.621510 -0.522137
O3    O     O_R   0.249610 0.559600 0.072250 -0.536043
O4    O     O_R   0.750390 0.059600 0.927750 -0.536047
O5    O     O_R   0.249120 0.447360 0.902040 -0.547941
O6    O     O_R   0.750880 0.947360 0.097960 -0.547940
C1    C     C_R   0.224650 0.570974 0.242100 0.772190
C2    C     C_R   0.775350 0.070974 0.757901 0.772191
O7    O     O_R   0.386610 0.559560 0.048860 -0.542813
O8    O     O_R   0.613390 0.059560 0.951140 -0.542814
O9    O     O_R   0.387100 0.447320 0.878470 -0.537119
O10   O     O_R   0.612900 0.947320 0.121530 -0.537119
C3    C     C_R   0.406429 0.576230 0.216580 0.733577
C4    C     C_R   0.593572 0.076231 0.783421 0.733577
O11   O     O_R   0.249120 0.552680 0.402050 -0.533318
O12   O     O_R   0.750880 0.052680 0.597950 -0.533314
O13   O     O_3   0.318110 0.463180 0.223790 -0.377576
O14   O     O_3   0.681890 0.963180 0.776210 -0.377574
V1    V     V_3+5 0.318110 0.506830 0.948930 1.483372
V2    V     V_3+5 0.681890 0.006830 0.051070 1.483375
O15   O     O_R   0.386610 0.440400 0.548840 -0.541535
O16   O     O_R   0.613390 0.940400 0.451160 -0.541538
C5    C     C_R   0.407429 0.425290 0.716577 0.702937
C6    C     C_R   0.592571 0.925290 0.283421 0.702931
O17   O     O_R   0.249610 0.440440 0.572240 -0.552692
O18   O     O_R   0.750390 0.940440 0.427760 -0.552686
C7    C     C_R   0.227969 0.425491 0.742481 0.684886
C8    C     C_R   0.772030 0.925490 0.257517 0.684885
V3    V     V_3+5 0.318110 0.493170 0.448930 1.489473
V4    V     V_3+5 0.681890 0.993170 0.551070 1.489480
O19   O     O_3   0.318110 0.536820 0.723940 -0.358838
O20   O     O_3   0.681890 0.036820 0.276060 -0.358838
C9    C     C_R   0.177462 0.379285 0.750878 -0.051303
C10   C     C_R   0.822534 0.879282 0.249116 -0.051305
C11   C     C_R   0.168616 0.343075 0.589047 -0.158635
C12   C     C_R   0.831344 0.843044 0.410889 -0.158674
C13   C     C_R   0.120904 0.299775 0.591961 -0.109492
C14   C     C_R   0.879058 0.799744 0.407981 -0.109488
C15   C     C_R   0.080181 0.292512 0.754814 0.184905
C16   C     C_R   0.919817 0.792512 0.245196 0.184878
C17   C     C_R   0.089104 0.327740 0.918214 -0.054981
C18   C     C_R   0.910928 0.827769 0.081847 -0.055010
C19   C     C_R   0.137689 0.370697 0.916684 -0.169488
C20   C     C_R   0.862341 0.870724 0.083368 -0.169472
C21   C     C_R   0.912214 0.168989 0.919840 0.026166
C22   C     C_R   0.087788 0.668996 0.080191 0.026174
C23   C     C_R   0.866701 0.123165 0.912599 -0.178218
C24   C     C_R   0.133300 0.623171 0.087414 -0.178209
C25   C     C_R   0.838845 0.150646 0.588428 -0.066120
C26   C     C_R   0.161157 0.650644 0.411594 -0.066132
C27   C     C_R   0.882975 0.196925 0.594347 -0.087386
C28   C     C_R   0.117027 0.696924 0.405692 -0.087395
C29   C     C_R   0.919699 0.206914 0.758543 0.029439
C30   C     C_R   0.080301 0.706916 0.241503 0.029442
C31   C     C_2   0.029586 0.246735 0.753295 -0.257471
C32   C     C_2   0.970413 0.746736 0.246723 -0.257453
C33   C     C_2   0.965058 0.257476 0.755873 -0.029201
C34   C     C_2   0.034939 0.757476 0.244199 -0.029183
C35   C     C_R   0.828861 0.114375 0.749675 -0.042056
C36   C     C_R   0.171140 0.614376 0.250335 -0.042056
H1    H     H_    0.198889 0.347927 0.459727 0.136644
H2    H     H_    0.801042 0.847872 0.540158 0.136673
H3    H     H_    0.810556 0.144910 0.460726 0.150026
H4    H     H_    0.189445 0.644904 0.539294 0.150027
H5    H     H_    0.046302 0.201596 0.744592 0.150815
H6    H     H_    0.953700 0.701597 0.255365 0.150814
H7    H     H_    0.115049 0.272483 0.465724 0.120213
H8    H     H_    0.884885 0.772430 0.534174 0.120260
H9    H     H_    0.888029 0.225678 0.470591 0.139120
H10   H     H_    0.111974 0.725673 0.529459 0.139121
C37   C     C_R   0.571296 0.367236 0.821803 -0.132774
C38   C     C_R   0.428705 0.867235 0.178186 -0.132775
H11   H     H_    0.528991 0.452299 0.797721 0.122895
H12   H     H_    0.471010 0.952298 0.202264 0.122894
H13   H     H_    0.618063 0.385276 0.856934 0.135577
H14   H     H_    0.381938 0.885274 0.143052 0.135578
C39   C     C_R   0.461441 0.383851 0.728958 -0.051387
C40   C     C_R   0.538560 0.883851 0.271037 -0.051386
C41   C     C_R   0.478260 0.096447 0.761633 -0.216152
C42   C     C_R   0.521740 0.596446 0.238377 -0.216154
C43   C     C_R   0.422731 0.130972 0.781026 -0.024381
C44   C     C_R   0.577270 0.630971 0.218985 -0.024383
C45   C     C_R   0.428507 0.192522 0.801809 -0.068970
C46   C     C_R   0.571494 0.692521 0.198201 -0.068968
C47   C     C_R   0.491112 0.219701 0.786627 0.010261
C48   C     C_R   0.508889 0.719701 0.213376 0.010259
C49   C     C_R   0.547717 0.182589 0.789525 0.021920
C50   C     C_R   0.452283 0.682589 0.210475 0.021923
C51   C     C_R   0.499993 0.282565 0.774707 0.093517
C52   C     C_R   0.500008 0.782564 0.225293 0.093516
C53   C     C_R   0.561503 0.306461 0.814212 0.130405
C54   C     C_R   0.438498 0.806460 0.185782 0.130406
C55   C     C_R   0.614187 0.270036 0.836910 -0.237155
C56   C     C_R   0.385814 0.770035 0.163081 -0.237156
C57   C     C_R   0.609182 0.209939 0.809411 -0.101571
C58   C     C_R   0.390819 0.709938 0.190583 -0.101572
C59   C     C_R   0.451401 0.322907 0.717928 -0.170139
C60   C     C_R   0.548599 0.822907 0.282073 -0.170142
C61   C     C_R   0.521148 0.405509 0.784394 -0.153982
C62   C     C_R   0.478853 0.905509 0.215595 -0.153981
C63   C     C_R   0.540088 0.120067 0.776874 -0.111476
C64   C     C_R   0.459913 0.620067 0.223131 -0.111478
H15   H     H_    0.405883 0.308435 0.662641 0.120077
H16   H     H_    0.594117 0.808436 0.337367 0.120075
H17   H     H_    0.473095 0.049230 0.749650 0.135959
H18   H     H_    0.526905 0.549229 0.250362 0.135962
H19   H     H_    0.661525 0.289331 0.858834 0.147148
H20   H     H_    0.338477 0.789329 0.141153 0.147148
C65   C     C_2   0.369875 0.226267 0.861863 0.788945
O21   O     O_2   0.369874 0.255416 0.009962 -0.546709
O22   O     O_R   0.315071 0.225184 0.748097 -0.649281
H21   H     H_    0.278518 0.250335 0.803320 0.301385
C66   C     C_2   0.630126 0.726265 0.138155 0.788947
O23   O     O_2   0.630130 0.755413 0.990054 -0.546710
O24   O     O_R   0.684928 0.725184 0.251931 -0.649286
H22   H     H_    0.721482 0.750335 0.196713 0.301384
C67   C     C_2   0.359365 0.099931 0.792108 0.818616
O25   O     O_2   0.349526 0.058802 0.683594 -0.548730
O26   O     O_R   0.312030 0.115777 0.930923 -0.640646
H23   H     H_    0.271527 0.090831 0.924295 0.313677
C68   C     C_2   0.640636 0.599929 0.207908 0.818612
O27   O     O_2   0.650472 0.558799 0.316416 -0.548732
O28   O     O_R   0.687973 0.615776 0.069103 -0.640647
H24   H     H_    0.728475 0.590830 0.075733 0.313676
C69   C     C_2   0.671582 0.179982 0.786452 0.748562
O29   O     O_2   0.688165 0.161481 0.627536 -0.549178
O30   O     O_R   0.714708 0.178278 0.937941 -0.645907
H25   H     H_    0.695721 0.195229 0.062381 0.272719
C70   C     C_2   0.328419 0.679982 0.213541 0.748568
O31   O     O_2   0.311835 0.661482 0.372456 -0.549179
O32   O     O_R   0.285293 0.678276 0.062050 -0.645907
H26   H     H_    0.304281 0.695226 0.937610 0.272718
H27   H     H_    0.859237 0.095116 0.037526 0.145938
H28   H     H_    0.140765 0.595126 0.962477 0.145938
C71   C     C_2   0.936466 0.317457 0.748054 0.822039
O33   O     O_2   0.969368 0.359846 0.699781 -0.548517
O34   O     O_R   0.870471 0.324918 0.792511 -0.650401
H29   H     H_    0.856069 0.367232 0.781063 0.308169
C72   C     C_2   0.063526 0.817455 0.252124 0.821978
O35   O     O_2   0.030627 0.859830 0.300577 -0.548521
O36   O     O_R   0.129514 0.824929 0.207577 -0.650392
H30   H     H_    0.143912 0.867241 0.219107 0.308179
H31   H     H_    0.058458 0.322026 0.046315 0.143357
H32   H     H_    0.941600 0.822078 0.953794 0.143390
C73   C     C_2   0.948850 0.177039 0.099859 0.732783
O37   O     O_2   0.957952 0.135118 0.205737 -0.558291
O38   O     O_R   0.971825 0.232328 0.151698 -0.670902
H33   H     H_    0.996290 0.231637 0.276361 0.288293
C74   C     C_2   0.051152 0.677051 0.900175 0.732777
O39   O     O_2   0.042044 0.635132 0.794291 -0.558290
O40   O     O_R   0.028184 0.732343 0.848346 -0.670890
H34   H     H_    0.003718 0.731656 0.723686 0.288311
H35   H     H_    0.143502 0.397642 0.043636 0.124879
H36   H     H_    0.856555 0.897693 0.956462 0.124891

loop_
_geom_bond_atom_site_label_1
_geom_bond_atom_site_label_2
_ccdc_geom_bond_type
C34   C72   S    
V4    O20   S    
C50   C58   A    
C46   C66   S    
C25   H3    S    
C43   C67   S    
C67   O25   D    
C26   H4    S    
O22   H21   S    
O4    C2    A    
V1    O19   S    
C67   O26   S    
C73   O37   D    
C71   O33   D    
C15   C17   A    
C7    C9    S    
O9    V1    S    
C21   C73   S    
C24   H28   S    
C11   C13   A    
C46   C48   A    
C40   C62   A    
C17   H31   S    
O3    C1    A    
C65   O22   S    
C2    C35   S    
C30   C34   S    
C38   C54   A    
C32   H6    S    
O12   V4    S    
O24   H22   S    
C42   H18   S    
O13   V3    S    
C41   H17   S    
H11   C61   S    
O7    C3    A    
C43   C45   A    
C49   C63   A    
O7    V1    S    
C15   C31   S    
O38   H33   S    
O8    V2    S    
C16   C32   S    
C49   C57   A    
C40   C60   A    
C26   C28   A    
O40   H34   S    
C45   C65   S    
O3    V1    S    
O14   V4    S    
C51   C53   A    
C65   O21   D    
C44   C68   S    
C10   C12   A    
C38   H14   S    
C24   C36   A    
C21   C23   A    
C8    C10   S    
C2    O12   A    
O5    C7    A    
C23   H27   S    
V3    O19   S    
C17   C19   A    
O10   V2    S    
C18   C20   A    
V2    O20   S    
C12   H2    S    
C54   C56   A    
C73   O38   S    
C28   C30   A    
O11   V3    S    
C47   C49   A    
O15   C5    A    
O17   V3    S    
C22   C24   A    
C37   H13   S    
C23   C35   A    
C48   C50   A    
C9    C19   A    
O28   H24   S    
C10   C20   A    
C42   C44   A    
C48   C52   A    
C41   C43   A    
C29   C33   S    
O13   V1    S    
C4    C63   S    
H12   C62   S    
C1    O11   A    
C25   C27   A    
O15   V3    S    
C51   C59   A    
C27   C29   A    
C18   H32   S    
C53   C55   A    
C57   C69   S    
C52   C54   A    
C72   O35   D    
C56   H20   S    
C22   C30   A    
O1    V3    S    
C11   H1    S    
C5    C39   S    
C56   C58   A    
C68   O27   D    
C59   H15   S    
C6    C40   S    
C45   C47   A    
C14   H8    S    
O18   V4    S    
C44   C46   A    
C31   C33   D    
O8    C4    A    
C69   O29   D    
O16   C6    A    
O1    C3    A    
O32   H26   S    
C1    C36   S    
C66   O23   D    
C38   C62   A    
C71   O34   S    
C47   C51   A    
O16   V4    S    
C31   H5    S    
C41   C63   A    
C16   C18   A    
C50   C64   A    
O26   H23   S    
O5    V1    S    
O17   C7    A    
O6    V2    S    
O34   H29   S    
O10   C6    A    
O18   C8    A    
C25   C35   A    
O2    V4    S    
C26   C36   A    
C74   O40   S    
C70   O31   D    
C20   H36   S    
C13   C15   A    
C19   H35   S    
C74   O39   D    
C55   H19   S    
C12   C14   A    
C14   C16   A    
C72   O36   S    
C37   C61   A    
C60   H16   S    
C13   H7    S    
O9    C5    A    
C9    C11   A    
C32   C34   D    
C39   C61   A    
O14   V2    S    
O2    C4    A    
C68   O28   S    
C28   H10   S    
C21   C29   A    
O4    V2    S    
O6    C8    A    
C22   C74   S    
C37   C53   A    
C55   C57   A    
C42   C64   A    
C69   O30   S    
C33   C71   S    
C39   C59   A    
C27   H9    S    
C66   O24   S    
C3    C64   S    
O36   H30   S    
C52   C60   A    
O30   H25   S    
C58   C70   S    
C70   O32   S    
