data_mof_unit_44794.cif
_audit_creation_date              2012-12-11T14:49:44-0500
_audit_creation_method            fapswitch 2.2
_symmetry_space_group_name_H-M    P1
_symmetry_Int_Tables_number       1
_space_group_crystal_system       triclinic
_cell_length_a                    11.151762
_cell_length_b                    11.172242
_cell_length_c                    18.879729
_cell_angle_alpha                 89.927984
_cell_angle_beta                  90.375775
_cell_angle_gamma                 120.091344
_cell_volume                      2035.16299501

loop_
_atom_site_label
_atom_site_type_symbol
_atom_type_description
_atom_site_fract_x
_atom_site_fract_y
_atom_site_fract_z
_atom_type_partial_charge
C1    C     C_R   0.530467 0.460741 0.644411 0.611725
C2    C     C_R   0.465720 0.524087 0.352546 0.566558
C3    C     C_R   0.475572 0.940949 0.147265 0.568711
C4    C     C_R   0.060864 0.535691 0.353195 0.544548
C5    C     C_R   0.482700 0.117003 0.524327 -0.127546
C6    C     C_R   0.634066 0.539288 0.974187 -0.142705
C7    C     C_R   0.912047 0.368712 0.527116 -0.135637
C8    C     C_R   0.451687 0.084269 0.972384 -0.132730
C9    C     C_R   0.632413 0.549064 0.527680 -0.131936
C10   C     C_R   0.884085 0.364980 0.975167 -0.138377
C11   C     C_R   0.912715 0.380964 0.047637 -0.113969
C12   C     C_R   0.926194 0.466023 0.855913 0.605801
C13   C     C_R   0.619584 0.554021 0.454955 -0.133402
C14   C     C_R   0.446431 0.065593 0.045069 -0.137316
C15   C     C_R   0.938918 0.382225 0.455017 -0.112691
C16   C     C_R   0.620237 0.552818 0.046436 -0.123136
C17   C     C_R   0.472302 0.090347 0.451709 -0.152915
C18   C     C_R   0.506935 0.995531 0.425595 -0.048565
C19   C     C_R   0.489915 0.486293 0.076590 -0.029298
C20   C     C_R   0.998233 0.511348 0.423984 -0.034842
C21   C     C_R   0.515721 0.006174 0.076850 -0.029999
C22   C     C_R   0.491295 0.482487 0.422620 -0.029892
C23   C     C_R   0.538912 0.072869 0.644224 0.576727
C24   C     C_R   0.004794 0.511296 0.074371 -0.013944
C25   C     C_R   0.964504 0.476011 0.929298 0.022226
C26   C     C_R   0.513483 0.478297 0.569384 0.032664
C27   C     C_R   0.519963 0.034057 0.930158 0.009929
C28   C     C_R   0.969222 0.486927 0.570442 0.000300
C29   C     C_R   0.515930 0.482219 0.930238 0.004740
C30   C     C_R   0.509898 0.034506 0.570743 0.016414
C31   C     C_R   0.572045 0.945985 0.472053 0.218945
C32   C     C_R   0.374859 0.390413 0.034335 0.197902
C33   C     C_R   0.013690 0.625721 0.465449 0.118064
C34   C     C_R   0.531301 0.461504 0.855514 0.598057
C35   C     C_R   0.615328 0.991516 0.036204 0.219085
C36   C     C_R   0.377325 0.380203 0.462703 0.200740
C37   C     C_R   0.051761 0.626412 0.028547 0.216703
C38   C     C_R   0.057327 0.604997 0.956886 0.269707
C39   C     C_R   0.382331 0.395355 0.536384 0.251914
C40   C     C_R   0.599232 0.981719 0.962593 0.256371
C41   C     C_R   0.026435 0.619585 0.539021 0.187413
C42   C     C_R   0.383066 0.410491 0.961136 0.228001
C43   C     C_R   0.544422 0.940607 0.543598 0.215922
C44   C     C_R   0.931342 0.469601 0.644876 0.589230
C45   C     C_R   0.538934 0.069629 0.855419 0.568489
C46   C     C_R   0.464901 0.524795 0.147134 0.564368
C47   C     C_R   0.474798 0.940098 0.353087 0.536957
C48   C     C_R   0.060423 0.534825 0.146781 0.556215
Cr1   Cr    Cr6+3 0.776430 0.541680 0.750000 1.147831
Cr2   Cr    Cr6+3 0.765250 0.223570 0.750000 1.123473
Cr3   Cr    Cr6+3 0.458320 0.234750 0.750000 1.131798
Cr4   Cr    Cr6+3 0.541680 0.776430 0.250000 1.160482
Cr5   Cr    Cr6+3 0.223570 0.765250 0.250000 1.192182
Cr6   Cr    Cr6+3 0.234750 0.458320 0.250000 1.124683
H1    H     H_    0.465386 0.197570 0.544393 0.142544
H2    H     H_    0.912686 0.293477 0.423183 0.230989
H3    H     H_    0.709269 0.612413 0.079054 0.226142
H4    H     H_    0.446926 0.148309 0.415886 0.204512
H5    H     H_    0.932801 0.046712 0.503344 0.445014
H6    H     H_    0.074037 0.223822 0.139651 0.391263
H7    H     H_    0.220511 0.863701 0.425406 0.345645
H8    H     H_    0.803736 0.870158 0.140397 0.387628
H9    H     H_    0.065730 0.190998 0.357770 0.388752
H10   H     H_    0.948097 0.883934 0.999206 0.441749
H11   H     H_    0.294975 0.743721 0.805967 0.395117
H12   H     H_    0.736885 0.582952 0.952087 0.191921
H13   H     H_    0.154563 0.375608 0.680903 0.375182
H14   H     H_    0.856958 0.948862 0.856870 0.372905
H15   H     H_    0.228329 0.835948 0.689631 0.380415
H16   H     H_    0.106402 0.180170 0.838916 0.368918
H17   H     H_    0.318388 0.666803 0.546299 0.361451
H18   H     H_    0.855623 0.265897 0.549578 0.200097
H19   H     H_    0.399902 0.135087 0.949189 0.202720
H20   H     H_    0.734891 0.603271 0.551328 0.200583
H21   H     H_    0.804912 0.266032 0.954730 0.148612
H22   H     H_    0.858003 0.296481 0.082999 0.202649
H23   H     H_    0.708496 0.613442 0.423451 0.234513
H24   H     H_    0.389250 0.097249 0.076953 0.235701
O1    O     O_R   0.916700 0.566820 0.669930 -0.438705
O2    O     O_R   0.566820 0.916700 0.330070 -0.433785
O3    O     O_R   0.083300 0.650120 0.169930 -0.436514
O4    O     O_R   0.349880 0.433180 0.330070 -0.451163
O5    O     O_R   0.649840 0.534790 0.674920 -0.484228
O6    O     O_R   0.884950 0.350160 0.825080 -0.482264
O7    O     O_R   0.465210 0.115050 0.674920 -0.497935
O8    O     O_R   0.649840 0.534790 0.825080 -0.492638
O9    O     O_R   0.884950 0.350160 0.674920 -0.517498
O10   O     O_R   0.465210 0.115050 0.825080 -0.497531
O11   O     O_R   0.534790 0.649840 0.174920 -0.481325
O12   O     O_R   0.650120 0.083300 0.830070 -0.441956
O13   O     O_R   0.350160 0.884950 0.325080 -0.492762
O14   O     O_R   0.115050 0.465210 0.174920 -0.488159
O15   O     O_R   0.534790 0.649840 0.325080 -0.462857
O16   O     O_R   0.350160 0.884950 0.174920 -0.453861
O17   O     O_R   0.115050 0.465210 0.325080 -0.483582
O18   O     O_3   0.666667 0.333333 0.750000 -0.366888
O19   O     O_3   0.333333 0.666667 0.250000 -0.333281
O20   O     O_2   0.713446 0.827635 0.428072 -0.202149
O21   O     O_2   0.801308 0.063929 0.390580 -0.310042
O22   O     O_3   0.840336 0.021439 0.521715 -0.449141
O23   O     O_R   0.433180 0.349880 0.669930 -0.452147
O24   O     O_2   0.174329 0.122286 0.015269 -0.165321
O25   O     O_2   0.272861 0.186469 0.134356 -0.303539
O26   O     O_3   0.106291 0.269049 0.093037 -0.412407
O27   O     O_2   0.911718 0.725074 0.362741 -0.259397
O28   O     O_2   0.941687 0.823309 0.481341 -0.165894
O29   O     O_3   0.158045 0.893463 0.405201 -0.371579
O30   O     O_2   0.887145 0.075886 0.021261 -0.163923
O31   O     O_2   0.813410 0.097346 0.139940 -0.344894
O32   O     O_3   0.749255 0.854388 0.096269 -0.459801
O33   O     O_2   0.285235 0.183119 0.358362 -0.284253
O34   O     O_R   0.916700 0.566820 0.830070 -0.463043
O35   O     O_2   0.187794 0.108735 0.476546 -0.150493
O36   O     O_3   0.106781 0.248198 0.400792 -0.461160
O37   O     O_2   0.938385 0.740023 0.112569 -0.309814
O38   O     O_2   0.171827 0.888571 0.070753 -0.199246
O39   O     O_3   0.970586 0.814886 0.980739 -0.470749
O40   O     O_2   0.198408 0.861694 0.903363 -0.210991
O41   O     O_2   0.325810 0.749120 0.946830 -0.293327
O42   O     O_3   0.203499 0.674012 0.824810 -0.446953
O43   O     O_2   0.108349 0.301516 0.537953 -0.254440
O44   O     O_2   0.190166 0.184316 0.615711 -0.202562
O45   O     O_R   0.650120 0.083300 0.669930 -0.458650
O46   O     O_3   0.238235 0.429684 0.651672 -0.443669
O47   O     O_2   0.686243 0.797401 0.960331 -0.246190
O48   O     O_2   0.569578 0.810549 0.853870 -0.222000
O49   O     O_3   0.822858 0.006669 0.878745 -0.458784
O50   O     O_2   0.218090 0.893537 0.548371 -0.274034
O51   O     O_2   0.010226 0.813556 0.618280 -0.178553
O52   O     O_3   0.194535 0.751548 0.660251 -0.474711
O53   O     O_2   0.115416 0.340472 0.956259 -0.205463
O54   O     O_2   0.252533 0.451846 0.851180 -0.225982
O55   O     O_3   0.177011 0.194242 0.875116 -0.442425
O56   O     O_R   0.433180 0.349880 0.830070 -0.452980
O57   O     O_2   0.654013 0.794513 0.598143 -0.170352
O58   O     O_2   0.467574 0.792553 0.666378 -0.212777
O59   O     O_3   0.402249 0.657725 0.547725 -0.520309
O60   O     O_R   0.566820 0.916700 0.169930 -0.448560
O61   O     O_R   0.083300 0.650120 0.330070 -0.453635
O62   O     O_R   0.349880 0.433180 0.169930 -0.455708
S1    S     S_3+6 0.734780 0.964518 0.450577 0.088540
S2    S     S_3+6 0.113269 0.775510 0.591041 0.077029
S3    S     S_3+6 0.228161 0.351407 0.909938 0.121434
S4    S     S_3+6 0.520630 0.796342 0.592962 0.106886
S5    S     S_3+6 0.231098 0.235758 0.069565 0.097804
S6    S     S_3+6 0.000797 0.767497 0.428388 0.108739
S7    S     S_3+6 0.772085 0.009718 0.074017 0.063405
S8    S     S_3+6 0.238658 0.224342 0.423936 0.091113
S9    S     S_3+6 0.033487 0.770599 0.050889 0.078066
S10   S     S_3+6 0.199594 0.728103 0.907409 0.093612
S11   S     S_3+6 0.224111 0.322411 0.585483 0.105526
S12   S     S_3+6 0.667523 0.893187 0.912876 0.115827

loop_
_geom_bond_atom_site_label_1
_geom_bond_atom_site_label_2
_ccdc_geom_bond_type
C29   C42   A    
C11   C24   A    
Cr6   O4    S    
H13   O46   S    
Cr3   O7    S    
Cr4   O11   S    
C19   C46   S    
Cr2   O6    S    
H17   O59   S    
C46   O11   A    
C12   O6    A    
C31   C43   A    
C14   C21   A    
C11   H22   S    
O24   S5    D    
C25   C38   A    
Cr3   O56   S    
C26   C39   A    
C5    C17   A    
C34   O56   A    
C39   S11   S    
Cr4   O19   S    
C48   O3    A    
C40   S12   S    
Cr5   O3    S    
C34   O8    A    
O40   S10   D    
C9    C13   A    
H9    O36   S    
O48   S12   D    
C36   S8    S    
Cr6   O62   S    
H15   O52   S    
Cr5   O13   S    
H16   O55   S    
Cr4   O60   S    
Cr6   O19   S    
C44   O9    A    
C17   H4    S    
O30   S7    D    
C27   C45   S    
O54   S3    D    
C7    C15   A    
C44   O1    A    
C18   C47   S    
H5    O22   S    
C43   S4    S    
O31   S7    D    
C47   O2    A    
H7    O29   S    
C19   C32   A    
Cr1   O8    S    
O38   S9    D    
Cr2   O12   S    
C9    C26   A    
C24   C37   A    
C2    O15   A    
C15   C20   A    
C13   H23   S    
O55   S3    S    
C24   C48   S    
C23   C30   S    
C45   O10   A    
C33   S6    S    
O35   S8    D    
C7    H18   S    
O29   S6    S    
C23   O45   A    
O51   S2    D    
Cr5   O19   S    
C29   C34   S    
C28   C44   S    
C7    C28   A    
Cr1   O1    S    
C31   S1    S    
Cr6   O14   S    
C37   C38   A    
O47   S12   D    
O49   S12   S    
C4    O17   A    
C10   H21   S    
H8    O32   S    
C27   C40   A    
O37   S9    D    
C17   C18   A    
Cr4   O15   S    
C3    O60   A    
C35   S7    S    
C45   O12   A    
H14   O49   S    
Cr6   O17   S    
Cr2   O9    S    
Cr1   O34   S    
C21   C35   A    
C20   C33   A    
C10   C25   A    
O57   S4    D    
O59   S4    S    
O20   S1    D    
C23   O7    A    
C1    C26   S    
C30   C43   A    
C3    C21   S    
C1    O5    A    
C9    H20   S    
O32   S7    S    
C1    O23   A    
C12   O34   A    
O53   S3    D    
O25   S5    D    
C46   O62   A    
C5    C30   A    
O46   S11   S    
C8    C14   A    
Cr5   O16   S    
Cr5   O61   S    
C47   O13   A    
O26   S5    S    
C5    H1    S    
C36   C39   A    
Cr2   O45   S    
C37   S9    S    
Cr3   O10   S    
O33   S8    D    
O21   S1    D    
C32   S5    S    
Cr3   O23   S    
C22   C36   A    
Cr3   O18   S    
O42   S10   S    
O28   S6    D    
C12   C25   S    
O22   S1    S    
C33   C41   A    
C15   H2    S    
Cr1   O5    S    
C35   C40   A    
O36   S8    S    
C41   S2    S    
O58   S4    D    
H6    O26   S    
C2    C22   S    
O44   S11   D    
C4    O61   A    
Cr2   O18   S    
O41   S10   D    
C16   C19   A    
O27   S6    D    
C8    H19   S    
H11   O42   S    
C13   C22   A    
C3    O16   A    
C16   H3    S    
C14   H24   S    
Cr1   O18   S    
O52   S2    S    
C2    O4    A    
C10   C11   A    
H10   O39   S    
C6    C16   A    
C4    C20   S    
O43   S11   D    
C6    H12   S    
C6    C29   A    
C48   O14   A    
C42   S3    S    
C8    C27   A    
C32   C42   A    
O39   S9    S    
C18   C31   A    
Cr4   O2    S    
O50   S2    D    
C38   S10   S    
C28   C41   A    
