data_mof_unit_11703.cif
_audit_creation_date              2012-12-10T17:36:23-0500
_audit_creation_method            fapswitch 2.2
_symmetry_space_group_name_H-M    P1
_symmetry_Int_Tables_number       1
_space_group_crystal_system       triclinic
_cell_length_a                    12.341215
_cell_length_b                    13.17736
_cell_length_c                    15.871214
_cell_angle_alpha                 77.802963
_cell_angle_beta                  101.143806
_cell_angle_gamma                 116.508516
_cell_volume                      2243.06238985

loop_
_atom_site_label
_atom_site_type_symbol
_atom_type_description
_atom_site_fract_x
_atom_site_fract_y
_atom_site_fract_z
_atom_type_partial_charge
C1    C     C_R   0.854936 0.286582 0.507323 0.764176
C2    C     C_3   0.044928 0.407159 0.070735 0.021490
C3    C     C_3   0.999191 0.495869 0.083473 0.290538
C4    C     C_3   0.086188 0.615872 0.041750 -0.424324
C5    C     C_3   0.085163 0.616804 0.943797 -0.386751
C6    C     C_1   0.999887 0.497782 0.175519 -0.120569
C7    C     C_1   0.998304 0.498389 0.824918 -0.106432
C8    C     C_1   0.998569 0.499144 0.749236 -0.180859
C9    C     C_R   0.275357 0.023397 0.389622 -0.196496
C10   C     C_R   0.228375 0.834811 0.471210 -0.051327
C11   C     C_R   0.815898 0.084957 0.562418 -0.191941
C12   C     C_R   0.999537 0.499712 0.659573 0.818807
C13   C     C_R   0.737397 0.970086 0.579322 -0.149794
C14   C     C_R   0.614009 0.932524 0.549945 -0.183590
C15   C     C_R   0.566795 0.009377 0.499464 0.078194
C16   C     C_R   0.649874 0.123910 0.473907 0.082879
C17   C     C_R   0.440110 0.976233 0.472811 0.072671
C18   C     C_R   0.399972 0.054391 0.415612 0.168151
C19   C     C_R   0.484643 0.161550 0.383150 -0.242621
C20   C     C_R   0.607785 0.194996 0.410415 -0.202692
C21   C     C_R   0.351650 0.867892 0.501701 -0.256156
C22   C     C_R   0.189955 0.913922 0.417072 -0.191542
C23   C     C_R   0.145112 0.713463 0.487821 0.798888
C24   C     C_R   0.773123 0.163532 0.511853 -0.100288
C25   C     C_R   0.345826 0.327802 0.637558 -0.305862
C26   C     C_R   0.757615 0.644836 0.382612 0.382271
C27   C     C_R   0.659634 0.674695 0.357431 -0.306385
C28   C     C_R   0.557521 0.620006 0.401796 -0.224182
C29   C     C_R   0.550871 0.533471 0.472499 -0.005060
C30   C     C_R   0.652958 0.504890 0.496470 0.240704
C31   C     C_R   0.446709 0.474352 0.520048 -0.026666
C32   C     C_R   0.446210 0.387386 0.590030 0.174961
C33   C     C_R   0.545954 0.360571 0.612458 -0.279135
C34   C     C_R   0.000334 0.500113 0.340442 0.828165
C35   C     C_R   0.647087 0.418315 0.567095 -0.168029
C36   C     C_R   0.342161 0.497553 0.501494 0.018028
C37   C     C_R   0.246233 0.354719 0.616031 0.072519
C38   C     C_3   0.042767 0.407773 0.972288 -0.357553
C39   C     C_3   0.868596 0.465562 0.937732 -0.381901
C40   C     C_3   0.869627 0.468928 0.034854 -0.378202
C41   C     C_1   0.000295 0.499080 0.250931 -0.186190
C42   C     C_3   0.998699 0.497254 0.917374 0.288179
Cu1   Cu    Cu3+1 0.098280 0.475420 0.519630 0.934328
Cu2   Cu    Cu3+1 0.901720 0.524580 0.480370 0.942580
H1    H     H_    0.135929 0.428429 0.958244 0.140393
H2    H     H_    0.141334 0.434646 0.100670 0.141596
H3    H     H_    0.057938 0.682147 0.050047 0.174822
H4    H     H_    0.094928 0.890003 0.393235 0.154130
H5    H     H_    0.455615 0.219901 0.336198 0.144779
H6    H     H_    0.244275 0.082865 0.346145 0.135334
H7    H     H_    0.376019 0.806398 0.547401 0.148872
H8    H     H_    0.909956 0.112719 0.590894 0.150993
H9    H     H_    0.558869 0.842343 0.566478 0.129395
H10   H     H_    0.771737 0.910139 0.617892 0.140743
H11   H     H_    0.982154 0.321493 0.953401 0.174302
H12   H     H_    0.669222 0.276313 0.379089 0.174652
H13   H     H_    0.168442 0.309020 0.652477 0.120670
H14   H     H_    0.546216 0.294281 0.666153 0.147812
H15   H     H_    0.344514 0.260971 0.691121 0.134065
H16   H     H_    0.334536 0.562280 0.449684 0.124763
H17   H     H_    0.485294 0.647251 0.378997 0.145072
H18   H     H_    0.662938 0.740990 0.303022 0.144948
H19   H     H_    0.718806 0.391977 0.590080 0.205085
H20   H     H_    0.833079 0.526467 0.897017 0.167101
H21   H     H_    0.805733 0.378318 0.921744 0.159756
H22   H     H_    0.801162 0.386507 0.064543 0.155444
H23   H     H_    0.841166 0.536214 0.040349 0.165213
H24   H     H_    0.179289 0.641407 0.929628 0.163348
H25   H     H_    0.054981 0.682502 0.905193 0.170225
H26   H     H_    0.180673 0.639222 0.074656 0.159670
N1    N     N_R   0.246300 0.438200 0.549400 -0.180317
N2    N     N_R   0.754300 0.561180 0.451130 -0.201321
O1    O     O_R   0.972520 0.318130 0.524690 -0.581498
O2    O     O_R   0.806530 0.359650 0.491530 -0.606855
O3    O     O_R   0.083030 0.479240 0.637150 -0.576754
O4    O     O_R   0.917040 0.520750 0.603990 -0.594535
O5    O     O_R   0.193470 0.640350 0.508470 -0.591266
O6    O     O_R   0.027480 0.681870 0.475310 -0.555344
O7    O     O_R   0.082960 0.479250 0.396010 -0.580509
O8    O     O_R   0.916970 0.520760 0.362850 -0.557639
N3    N     N_3   0.975342 0.290285 0.112610 -0.608599
H27   H     H_    0.981948 0.289594 0.179360 0.224649
H28   H     H_    0.883416 0.260618 0.087932 0.225087
N4    N     N_3   0.861545 0.702701 0.335588 -0.527598
H29   H     H_    0.832928 0.687362 0.271213 0.189900
H30   H     H_    0.892969 0.790641 0.335565 0.176430

loop_
_geom_bond_atom_site_label_1
_geom_bond_atom_site_label_2
_ccdc_geom_bond_type
Cu1   O1    S    
C22   H4    S    
C5    C42   S    
C33   H14   S    
C26   N2    A    
C19   C20   A    
C20   H12   S    
C3    C6    S    
C4    H26   S    
N3    H27   S    
C7    C8    T    
C10   C22   A    
C39   H20   S    
C26   C27   A    
C30   C35   A    
C1    O2    A    
C28   C29   A    
N4    H30   S    
C38   C42   S    
C9    C22   A    
Cu1   O7    S    
C15   C16   A    
C11   C24   A    
C18   C19   A    
C7    C42   S    
Cu2   O4    S    
C2    C38   S    
C38   H1    S    
C5    H25   S    
C11   H8    S    
C34   O8    A    
C38   H11   S    
C6    C41   T    
C26   N4    S    
C36   N1    A    
C8    C12   S    
C25   C37   A    
C28   H17   S    
C25   C32   A    
C16   C24   A    
C40   H22   S    
C13   C14   A    
C39   H21   S    
C34   C41   S    
C5    H24   S    
N3    H28   S    
C39   C42   S    
C10   C21   A    
Cu1   O3    S    
Cu2   O8    S    
N4    H29   S    
C39   C40   S    
C40   H23   S    
C2    H2    S    
Cu1   Cu2   S    
C29   C30   A    
C27   H18   S    
C34   O7    A    
C19   H5    S    
C31   C32   A    
C16   C20   A    
C17   C18   A    
C23   O5    A    
Cu2   O2    S    
C3    C40   S    
C37   N1    A    
C12   O4    A    
C3    C4    S    
C21   H7    S    
C13   H10   S    
C15   C17   A    
Cu1   N1    S    
C31   C36   A    
C9    H6    S    
C4    C5    S    
C36   H16   S    
C30   N2    A    
C10   C23   S    
Cu1   O5    S    
C1    O1    A    
C32   C33   A    
Cu2   O6    S    
C2    C3    S    
C29   C31   A    
C11   C13   A    
C33   C35   A    
Cu2   N2    S    
C23   O6    A    
C17   C21   A    
C9    C18   A    
C14   H9    S    
C1    C24   S    
C12   O3    A    
C27   C28   A    
C14   C15   A    
C2    N3    S    
C35   H19   S    
C25   H15   S    
C37   H13   S    
C4    H3    S    
