data_mof_unit_31638.cif
_audit_creation_date              2012-12-10T17:57:25-0500
_audit_creation_method            fapswitch 2.2
_symmetry_space_group_name_H-M    P1
_symmetry_Int_Tables_number       1
_space_group_crystal_system       triclinic
_cell_length_a                    9.544925
_cell_length_b                    10.789161
_cell_length_c                    13.54814
_cell_angle_alpha                 91.499641
_cell_angle_beta                  73.306176
_cell_angle_gamma                 91.0002
_cell_volume                      1335.8779296

loop_
_atom_site_label
_atom_site_type_symbol
_atom_type_description
_atom_site_fract_x
_atom_site_fract_y
_atom_site_fract_z
_atom_type_partial_charge
C1    C     C_R   0.502398 0.737376 0.496617 0.812867
C2    C     C_R   0.460870 0.522410 0.968614 -0.002184
C3    C     C_R   0.480558 0.472682 0.867869 -0.073827
C4    C     C_R   0.560116 0.489205 0.023251 0.031754
C5    C     C_R   0.698478 0.444021 0.969396 -0.019589
C6    C     C_R   0.718237 0.394055 0.870178 -0.255574
C7    C     C_R   0.602809 0.394373 0.824969 0.431737
C8    C     C_R   0.516591 0.478688 0.130637 0.159400
C9    C     C_R   0.774826 0.474100 0.125343 0.021086
C10   C     C_R   0.378419 0.503555 0.813732 -0.209785
C11   C     C_R   0.563371 0.938234 0.558922 -0.225029
C12   C     C_R   0.422034 0.496495 0.699808 0.898236
C13   C     C_R   0.561611 0.066061 0.560235 -0.247466
C14   C     C_R   0.500977 0.127907 0.493447 -0.082994
C15   C     C_R   0.447123 0.062431 0.420668 0.413399
C16   C     C_R   0.453804 0.931460 0.416115 0.060005
C17   C     C_R   0.507205 0.870857 0.489316 -0.051285
C18   C     C_R   0.907163 0.591764 0.550392 -0.036929
C19   C     C_R   0.055808 0.591664 0.550492 -0.075197
C20   C     C_R   0.089089 0.406866 0.450806 0.470765
C21   C     C_R   0.941589 0.407690 0.451550 -0.004861
C22   C     C_R   0.499917 0.262159 0.498019 0.877848
C23   C     C_R   0.578292 0.495971 0.299451 0.834313
C24   C     C_R   0.807725 0.436910 0.019817 0.442597
C25   C     C_R   0.624514 0.484828 0.184311 -0.143855
C26   C     C_R   0.249252 0.568274 0.866683 0.376343
C27   C     C_R   0.237864 0.623229 0.962342 -0.254695
C28   C     C_R   0.345202 0.605863 0.012187 0.350814
Cu1   Cu    Cu3+1 0.359340 0.499980 0.500000 0.970623
Cu2   Cu    Cu3+1 0.640660 0.500020 0.500000 0.959257
H1    H     H_    0.604732 0.116880 0.615152 0.192920
H2    H     H_    0.836400 0.665246 0.591002 0.140583
H3    H     H_    0.096320 0.664916 0.591319 0.168871
H4    H     H_    0.899374 0.334315 0.411781 0.148144
H5    H     H_    0.817617 0.344693 0.831747 0.185866
H6    H     H_    0.144832 0.681694 0.997502 0.169745
H7    H     H_    0.606167 0.891520 0.613824 0.158263
N1    N     N_R   0.147940 0.499970 0.499970 -0.217746
N2    N     N_R   0.852060 0.500060 0.499990 -0.198394
O1    O     O_R   0.381250 0.680340 0.500010 -0.577610
O2    O     O_R   0.618820 0.680370 0.500010 -0.594153
O3    O     O_R   0.323240 0.499950 0.650980 -0.585071
O4    O     O_R   0.560810 0.499980 0.650980 -0.539451
O5    O     O_R   0.381180 0.319630 0.499990 -0.556282
O6    O     O_R   0.618750 0.319660 0.499990 -0.589172
O7    O     O_R   0.439190 0.500020 0.349020 -0.610618
O8    O     O_R   0.676760 0.500050 0.349020 -0.582779
C29   C     C_3   0.898893 0.499306 0.172338 -0.809706
H8    H     H_    0.881883 0.589238 0.215599 0.247037
H9    H     H_    0.906825 0.422752 0.223566 0.238369
H10   H     H_    0.006078 0.509214 0.113499 0.229112
O9    O     O_3   0.398261 0.129603 0.351806 -0.748531
H11   H     H_    0.335301 0.076847 0.321149 0.347551
C30   C     C_3   0.414442 0.859541 0.329892 -0.817805
H12   H     H_    0.294113 0.859785 0.343237 0.233165
H13   H     H_    0.469185 0.902278 0.254713 0.241369
H14   H     H_    0.451644 0.762189 0.321849 0.246880
O10   O     O_3   0.168956 0.308927 0.399495 -0.736979
H15   H     H_    0.270396 0.337232 0.376705 0.389219
O11   O     O_3   0.943673 0.393157 0.964823 -0.744983
H16   H     H_    0.987940 0.351809 0.012854 0.328697
C31   C     C_3   0.365034 0.425149 0.179338 -0.728067
H17   H     H_    0.378090 0.337033 0.215467 0.231763
H18   H     H_    0.293919 0.491739 0.234257 0.266392
H19   H     H_    0.306628 0.397592 0.122088 0.207310
O12   O     O_3   0.137532 0.589247 0.823896 -0.695131
H20   H     H_    0.116101 0.509402 0.793160 0.363328
O13   O     O_3   0.341420 0.671873 0.101826 -0.728748
H21   H     H_    0.253746 0.725251 0.121552 0.319903
O14   O     O_3   0.604091 0.313845 0.743689 -0.733155
H22   H     H_    0.696796 0.266901 0.724066 0.312120

loop_
_geom_bond_atom_site_label_1
_geom_bond_atom_site_label_2
_ccdc_geom_bond_type
Cu1   N1    S    
C2    C4    A    
C18   N2    A    
Cu2   O2    S    
C31   H17   S    
C19   N1    A    
C30   H13   S    
C27   H6    S    
C12   O4    A    
C20   N1    A    
C31   H19   S    
Cu2   O6    S    
C1    C17   S    
C21   N2    A    
C24   O11   S    
Cu1   O7    S    
C4    C8    A    
C10   C26   A    
C7    O14   S    
C29   H9    S    
C2    C3    A    
C9    C25   A    
C9    C24   A    
C3    C10   A    
O13   H21   S    
C13   C14   A    
C6    H5    S    
C8    C25   A    
C11   C13   A    
C14   C22   S    
C26   C27   A    
Cu1   Cu2   S    
C5    C24   A    
C10   C12   S    
O9    H11   S    
C31   H18   S    
Cu1   O1    S    
C1    O2    A    
C29   H8    S    
C28   O13   S    
Cu2   N2    S    
O12   H20   S    
C6    C7    A    
C3    C7    A    
C23   C25   S    
Cu1   O5    S    
C5    C6    A    
Cu1   O3    S    
C16   C30   S    
Cu2   O4    S    
C23   O8    A    
C12   O3    A    
C15   C16   A    
C26   O12   S    
Cu2   O8    S    
C4    C5    A    
O14   H22   S    
C18   H2    S    
C20   C21   A    
C9    C29   S    
C11   H7    S    
C22   O6    A    
C19   H3    S    
C27   C28   A    
C23   O7    A    
C30   H12   S    
C18   C19   A    
C2    C28   A    
C21   H4    S    
C1    O1    A    
O10   H15   S    
C15   O9    S    
C20   O10   S    
C13   H1    S    
C29   H10   S    
C22   O5    A    
C14   C15   A    
C16   C17   A    
C8    C31   S    
O11   H16   S    
C30   H14   S    
C11   C17   A    
