data_mof_unit_45391.cif
_audit_creation_date              2012-12-11T16:09:03-0500
_audit_creation_method            fapswitch 2.2
_symmetry_space_group_name_H-M    P1
_symmetry_Int_Tables_number       1
_space_group_crystal_system       triclinic
_cell_length_a                    12.910256
_cell_length_b                    13.219688
_cell_length_c                    27.65892
_cell_angle_alpha                 94.516377
_cell_angle_beta                  90.024055
_cell_angle_gamma                 119.05645
_cell_volume                      4109.55275216

loop_
_atom_site_label
_atom_site_type_symbol
_atom_type_description
_atom_site_fract_x
_atom_site_fract_y
_atom_site_fract_z
_atom_type_partial_charge
C1    C     C_R   0.627703 0.897231 0.426828 0.572352
C2    C     C_R   0.114199 0.712678 0.312544 0.007859
C3    C     C_R   0.093255 0.693233 0.210522 0.023640
C4    C     C_R   0.601994 0.223841 0.441092 0.551108
C5    C     C_R   0.128273 0.623613 0.235128 0.095696
C6    C     C_R   0.124944 0.625342 0.285175 -0.122357
C7    C     C_R   0.061449 0.672794 0.160396 0.092989
C8    C     C_R   0.040999 0.755040 0.137161 -0.014513
C9    C     C_R   0.155620 0.919648 0.364935 -0.133982
C10   C     C_R   0.110898 0.896501 0.316422 0.038142
C11   C     C_R   0.103240 0.797876 0.288999 0.035397
C12   C     C_R   0.595758 0.371989 0.234642 -0.102344
C13   C     C_R   0.082083 0.972209 0.293511 0.017720
C14   C     C_R   0.057407 0.954051 0.243120 -0.085111
C15   C     C_R   0.061956 0.862848 0.215342 -0.004913
C16   C     C_R   0.261456 0.872791 0.428198 0.546452
C17   C     C_R   0.085405 0.784249 0.238176 0.017221
C18   C     C_R   0.042215 0.848934 0.165092 -0.155659
C19   C     C_R   0.175683 0.837756 0.386649 0.005116
C20   C     C_R   0.688316 0.970682 0.348544 -0.148487
C21   C     C_R   0.684308 0.956710 0.298488 -0.012240
C22   C     C_R   0.679986 0.931301 0.196684 0.032615
C23   C     C_R   0.581305 0.345306 0.282848 0.108664
C24   C     C_R   0.703326 0.039074 0.221562 0.012580
C25   C     C_R   0.712941 0.051973 0.272161 -0.110403
C26   C     C_R   0.704739 0.918493 0.147238 0.058051
C27   C     C_R   0.663728 0.804579 0.124485 0.010892
C28   C     C_R   0.627534 0.898028 0.564779 0.556934
C29   C     C_R   0.602339 0.761916 0.353154 0.062795
C30   C     C_R   0.599500 0.746963 0.301962 0.030746
C31   C     C_R   0.640647 0.845258 0.274731 0.042174
C32   C     C_R   0.553281 0.636395 0.277105 -0.090884
C33   C     C_R   0.546324 0.623056 0.226774 -0.104033
C34   C     C_R   0.679055 0.360583 0.311288 0.046704
C35   C     C_R   0.587861 0.720066 0.199642 0.030097
C36   C     C_R   0.637224 0.832344 0.223677 0.023813
C37   C     C_R   0.584043 0.707466 0.148922 -0.039550
C38   C     C_R   0.644882 0.874542 0.375949 0.016876
C39   C     C_R   0.747015 0.315900 0.651792 -0.012049
C40   C     C_R   0.603266 0.228016 0.578557 0.542107
C41   C     C_R   0.754193 0.323367 0.703169 0.030059
C42   C     C_R   0.767530 0.337242 0.805813 0.017486
C43   C     C_R   0.862808 0.345934 0.778613 -0.109149
C44   C     C_R   0.856378 0.339270 0.728311 -0.125269
C45   C     C_R   0.706980 0.414217 0.214633 0.005486
C46   C     C_R   0.777000 0.353101 0.856964 0.068765
C47   C     C_R   0.686818 0.363655 0.882059 -0.001772
C48   C     C_R   0.546111 0.286506 0.655579 -0.143237
C49   C     C_R   0.551510 0.295417 0.706153 0.003096
C50   C     C_R   0.655488 0.311000 0.730114 0.029425
C51   C     C_R   0.451697 0.280747 0.732770 0.020553
C52   C     C_R   0.270533 0.878910 0.563170 0.539841
C53   C     C_R   0.454377 0.273850 0.783389 0.029866
C54   C     C_R   0.563095 0.303141 0.807646 0.013218
C55   C     C_R   0.662035 0.317253 0.781149 0.020758
C56   C     C_1   0.719660 0.439422 0.164813 -0.041039
C57   C     C_R   0.578011 0.328761 0.857897 -0.142517
C58   C     C_R   0.637354 0.285613 0.628399 0.006449
C59   C     C_1   0.218145 0.861523 0.609472 -0.006985
C60   C     C_R   0.055379 0.763103 0.718374 0.031372
C61   C     C_R   0.042593 0.755289 0.768577 -0.079875
C62   C     C_R   0.241944 0.916310 0.784654 -0.105098
C63   C     C_R   0.255489 0.925253 0.734874 -0.109997
C64   C     C_1   0.639773 0.282580 0.397951 0.011653
C65   C     C_R   0.163663 0.848171 0.701576 0.065812
C66   C     C_R   0.136144 0.830446 0.801501 0.025307
C67   C     C_1   0.662333 0.322591 0.359302 -0.016488
C68   C     C_1   0.122082 0.816936 0.852480 -0.046218
C69   C     C_1   0.187414 0.853359 0.650714 -0.041910
C70   C     C_1   0.100318 0.798581 0.894202 0.003219
C71   C     C_1   0.650156 0.857141 0.608033 0.015322
C72   C     C_R   0.796427 0.868366 0.719918 0.101933
C73   C     C_R   0.807060 0.851917 0.768674 -0.108374
C74   C     C_R   0.600292 0.702300 0.765951 0.107563
C75   C     C_R   0.589619 0.718615 0.717174 -0.110303
C76   C     C_R   0.790617 0.403336 0.291207 -0.141696
C77   C     C_R   0.686425 0.802765 0.694202 0.019648
C78   C     C_1   0.728477 0.461825 0.123194 0.003113
C79   C     C_R   0.708914 0.771152 0.792179 0.020813
C80   C     C_1   0.720283 0.763651 0.843488 -0.010917
C81   C     C_1   0.667821 0.829388 0.646431 -0.013366
C82   C     C_1   0.731932 0.759154 0.886428 0.017230
C83   C     C_R   0.010106 0.739419 0.084505 0.538343
C84   C     C_R   0.737593 0.492833 0.074395 0.540153
C85   C     C_R   0.716957 0.783205 0.080067 0.560262
C86   C     C_R   0.057276 0.766866 0.941323 0.550853
C87   C     C_R   0.709905 0.431077 0.929663 0.561708
C88   C     C_R   0.804515 0.430362 0.242984 -0.116492
C89   C     C_R   0.130121 0.725089 0.362996 0.001629
C90   C     C_R   0.750622 0.753863 0.937142 0.562623
C91   C     C_3   0.070558 0.067843 0.322192 -0.382823
C92   C     C_3   0.695987 0.133966 0.197521 -0.357456
C93   C     C_3   0.497781 0.591537 0.122054 -0.343274
C94   C     C_3   0.855079 0.341725 0.622583 -0.375665
C95   C     C_3   0.340743 0.229832 0.810829 -0.392769
C96   C     C_3   0.343701 0.273618 0.707225 -0.380306
C97   C     C_3   0.954780 0.680081 0.683522 -0.386844
C98   C     C_3   0.103881 0.620928 0.390474 -0.367033
Cr1   Cr    Cr6+3 0.416430 0.829200 0.492370 1.055255
Cr2   Cr    Cr6+3 0.674630 0.087020 0.504170 1.025299
Cr3   Cr    Cr6+3 0.408920 0.083740 0.503490 1.044763
Cr4   Cr    Cr6+3 0.914010 0.832750 0.013970 1.062639
Cr5   Cr    Cr6+3 0.922310 0.578600 0.003000 1.105805
Cr6   Cr    Cr6+3 0.656280 0.574630 0.003870 1.029720
H1    H     H_    0.865999 0.413130 0.312390 0.111426
H2    H     H_    0.932596 0.345914 0.709536 0.133367
H3    H     H_    0.508331 0.333345 0.877989 0.159092
H4    H     H_    0.464855 0.268424 0.636768 0.148341
H5    H     H_    0.519783 0.357944 0.212595 0.133753
H6    H     H_    0.960396 0.689573 0.782093 0.114252
H7    H     H_    0.314426 0.975096 0.809875 0.126181
H8    H     H_    0.338961 0.990846 0.722244 0.122016
H9    H     H_    0.891328 0.904444 0.788587 0.144198
H10   H     H_    0.504561 0.668082 0.697638 0.137717
H11   H     H_    0.147701 0.567999 0.302751 0.148440
H12   H     H_    0.035555 0.011952 0.225337 0.131660
H13   H     H_    0.023763 0.909701 0.147832 0.155091
H14   H     H_    0.003118 0.030013 0.349896 0.134435
H15   H     H_    0.156449 0.131908 0.340608 0.175328
H16   H     H_    0.042022 0.114938 0.298637 0.146489
H17   H     H_    0.645424 0.100796 0.162145 0.174589
H18   H     H_    0.645931 0.167216 0.220105 0.141837
H19   H     H_    0.786254 0.207436 0.193437 0.177381
H20   H     H_    0.415092 0.546907 0.141747 0.168619
H21   H     H_    0.468486 0.603501 0.086234 0.174385
H22   H     H_    0.538111 0.534220 0.118118 0.150799
H23   H     H_    0.181511 0.002819 0.384808 0.140887
H24   H     H_    0.933021 0.422826 0.638394 0.110159
H25   H     H_    0.874348 0.268464 0.622344 0.165304
H26   H     H_    0.843973 0.358277 0.584761 0.144057
H27   H     H_    0.264129 0.161195 0.788171 0.148964
H28   H     H_    0.344203 0.186539 0.843089 0.124630
H29   H     H_    0.323772 0.302638 0.822230 0.179085
H30   H     H_    0.281520 0.282916 0.732375 0.167839
H31   H     H_    0.372046 0.346543 0.683943 0.140943
H32   H     H_    0.294780 0.189388 0.684726 0.146815
H33   H     H_    0.876794 0.618409 0.702823 0.134560
H34   H     H_    0.717612 0.057118 0.366186 0.136977
H35   H     H_    0.926563 0.729507 0.661279 0.166575
H36   H     H_    0.984174 0.628981 0.659184 0.130313
H37   H     H_    0.020962 0.544012 0.375243 0.110500
H38   H     H_    0.177933 0.600840 0.387923 0.165821
H39   H     H_    0.088760 0.636379 0.429235 0.147874
H40   H     H_    0.735410 0.135570 0.291176 0.115442
H41   H     H_    0.511006 0.535990 0.209354 0.126341
H42   H     H_    0.520704 0.558825 0.295928 0.181986
H43   H     H_    0.890287 0.461027 0.227505 0.153569
H44   H     H_    0.945061 0.361190 0.795566 0.163502
I1    I     I_    0.818066 0.068249 0.109184 -0.301302
I2    I     I_    0.546216 0.618596 0.396754 -0.354340
I3    I     I_    0.923234 0.355349 0.895479 -0.285241
I4    I     I_    0.947602 0.997411 0.688001 -0.444206
I5    I     I_    0.448666 0.576118 0.798554 -0.407619
I6    I     I_    0.409073 0.278044 0.309913 -0.408560
I7    I     I_    0.011652 0.502076 0.124978 -0.254802
I8    I     I_    0.232597 0.549421 0.207130 -0.367484
O1    O     O_R   0.296680 0.802170 0.437540 -0.509734
O2    O     O_R   0.637200 0.461990 0.052510 -0.507944
O3    O     O_R   0.664790 0.681920 0.057970 -0.528708
O4    O     O_R   0.525380 0.838530 0.443500 -0.463313
O5    O     O_R   0.815840 0.852920 0.961840 -0.477629
O6    O     O_R   0.012100 0.822630 0.963670 -0.509869
O7    O     O_R   0.037010 0.668460 0.953040 -0.471874
O8    O     O_R   0.813390 0.478970 0.949660 -0.462553
O9    O     O_R   0.632250 0.456930 0.945520 -0.518089
O10   O     O_R   0.660200 0.677230 0.958780 -0.470733
O11   O     O_3   0.830870 0.661990 0.006950 -0.331222
O12   O     O_R   0.662610 0.183990 0.557860 -0.498369
O13   O     O_R   0.702130 0.995190 0.446810 -0.524949
O14   O     O_R   0.661770 0.181390 0.458760 -0.513085
O15   O     O_R   0.499820 0.198480 0.455280 -0.480269
O16   O     O_R   0.311660 0.976250 0.449080 -0.497895
O17   O     O_R   0.297580 0.804960 0.544440 -0.512651
O18   O     O_R   0.526220 0.841130 0.542590 -0.491319
O19   O     O_R   0.703030 0.997990 0.553710 -0.494953
O20   O     O_R   0.500730 0.201280 0.562180 -0.520326
O21   O     O_R   0.312500 0.978850 0.548170 -0.494264
O22   O     O_3   0.499990 0.999990 0.500010 -0.251225
O23   O     O_R   0.820790 0.857990 0.068830 -0.478154
O24   O     O_R   0.016700 0.827330 0.062850 -0.490966
O25   O     O_R   0.041970 0.673520 0.060040 -0.461692
O26   O     O_R   0.817980 0.483660 0.048840 -0.458577

loop_
_geom_bond_atom_site_label_1
_geom_bond_atom_site_label_2
_ccdc_geom_bond_type
C15   C18   A    
C66   C68   S    
C63   C65   A    
Cr5   O11   S    
Cr4   O11   S    
C4    O15   A    
C98   H39   S    
C53   C95   S    
C8    C83   S    
Cr4   O24   S    
C35   C36   A    
C93   H20   S    
Cr2   O22   S    
C56   C78   T    
C7    C8    A    
C39   C41   A    
C48   H4    S    
C53   C54   A    
C21   C31   A    
C12   C23   A    
Cr5   O8    S    
C94   H26   S    
C4    O14   A    
C83   O24   A    
C5    C6    A    
C35   C37   A    
C3    C7    A    
Cr4   O5    S    
C30   C31   A    
C14   H12   S    
C32   H42   S    
C61   H6    S    
Cr5   O26   S    
C95   H29   S    
C73   H9    S    
C83   O25   A    
Cr3   O16   S    
C42   C46   A    
C20   H34   S    
C63   H8    S    
C27   C85   S    
C93   H22   S    
Cr3   O22   S    
C72   C77   A    
Cr6   O9    S    
C46   C47   A    
C61   C66   A    
C9    C19   A    
C62   H7    S    
C45   C56   S    
C49   C51   A    
C29   C38   A    
C3    C17   A    
C43   H44   S    
C29   C30   A    
C9    C10   A    
C76   C88   A    
C97   H36   S    
C85   O23   A    
C51   C96   S    
C46   I3    S    
C29   I2    S    
Cr5   O25   S    
Cr1   O4    S    
C90   O10   A    
C95   H27   S    
Cr4   O23   S    
C2    C6    A    
C2    C11   A    
C24   C92   S    
C97   H33   S    
C12   H5    S    
C96   H31   S    
C26   I1    S    
C94   H25   S    
C40   C58   S    
C74   C75   A    
C62   C66   A    
C90   O5    A    
Cr2   O14   S    
C64   C67   T    
C45   C88   A    
C24   C25   A    
Cr1   O22   S    
C96   H32   S    
C60   C97   S    
C92   H19   S    
C40   O20   A    
C84   O2    A    
C72   C73   A    
C96   H30   S    
C72   I4    S    
C39   C58   A    
C8    C18   A    
C74   I5    S    
C60   C61   A    
C51   C53   A    
C47   C87   S    
C2    C89   A    
C43   C44   A    
C39   C94   S    
C62   C63   A    
C19   C89   A    
C52   C59   S    
C92   H18   S    
C42   C55   A    
C47   C57   A    
C20   C38   A    
C16   O16   A    
Cr1   O17   S    
C77   C81   S    
Cr4   O6    S    
C23   C34   A    
C87   O8    A    
Cr2   O19   S    
C14   C15   A    
C73   C79   A    
C91   H14   S    
C37   C93   S    
C75   H10   S    
C9    H23   S    
C75   C77   A    
C18   H13   S    
C33   H41   S    
C1    C38   S    
C59   C69   T    
C86   O6    A    
C80   C82   T    
C48   C49   A    
C57   H3    S    
C60   C65   A    
C44   H2    S    
C74   C79   A    
Cr1   O1    S    
C98   H37   S    
C26   C27   A    
C95   H28   S    
C41   C44   A    
C22   C24   A    
C25   H40   S    
C42   C43   A    
C16   O1    A    
Cr6   O3    S    
C70   C86   S    
C41   C50   A    
C15   C17   A    
C21   C25   A    
C54   C55   A    
C11   C17   A    
Cr2   O13   S    
C31   C36   A    
C1    O4    A    
Cr6   O2    S    
C12   C45   A    
C3    C5    A    
C10   C13   A    
C34   C67   S    
C28   O19   A    
C48   C58   A    
C52   O21   A    
C94   H24   S    
C5    I8    S    
C22   C36   A    
C4    C64   S    
Cr5   O7    S    
C50   C55   A    
C82   C90   S    
C89   C98   S    
Cr2   O12   S    
C32   C33   A    
C84   O26   A    
C92   H17   S    
Cr6   O11   S    
C30   C32   A    
C28   O18   A    
C87   O9    A    
Cr1   O18   S    
C27   C37   A    
C16   C19   S    
C65   C69   S    
C1    O13   A    
C33   C35   A    
C88   H43   S    
Cr3   O15   S    
C91   H15   S    
C93   H21   S    
C6    H11   S    
C40   O12   A    
Cr3   O21   S    
C10   C11   A    
Cr6   O10   S    
C79   C80   S    
C28   C71   S    
C78   C84   S    
C13   C91   S    
C7    I7    S    
C20   C21   A    
C68   C70   T    
C49   C50   A    
C22   C26   A    
C23   I6    S    
C91   H16   S    
Cr3   O20   S    
C86   O7    A    
C85   O3    A    
C13   C14   A    
C52   O17   A    
C97   H35   S    
C76   H1    S    
C98   H38   S    
C34   C76   A    
C71   C81   T    
C54   C57   A    
