data_mof_unit_45352.cif
_audit_creation_date              2012-12-11T15:18:06-0500
_audit_creation_method            fapswitch 2.2
_symmetry_space_group_name_H-M    P1
_symmetry_Int_Tables_number       1
_space_group_crystal_system       triclinic
_cell_length_a                    15.684823
_cell_length_b                    15.656005
_cell_length_c                    34.620616
_cell_angle_alpha                 90.18119
_cell_angle_beta                  90.198571
_cell_angle_gamma                 119.970972
_cell_volume                      7364.50255606

loop_
_atom_site_label
_atom_site_type_symbol
_atom_type_description
_atom_site_fract_x
_atom_site_fract_y
_atom_site_fract_z
_atom_type_partial_charge
C1    C     C_R   0.578249 0.442126 0.554619 0.610276
C2    C     C_R   0.549829 0.042755 0.204146 0.378022
C3    C     C_R   0.495342 0.517298 0.212773 0.396510
C4    C     C_R   0.011580 0.496535 0.211171 0.396645
C5    C     C_R   0.066762 0.486363 0.840270 0.245917
C6    C     C_R   0.545604 0.522093 0.856302 0.238147
C7    C     C_R   0.439224 0.009019 0.855967 0.224681
C8    C     C_R   0.489089 0.042378 0.342753 0.237441
C9    C     C_R   0.553650 0.571967 0.357638 0.229637
C10   C     C_R   0.008054 0.437184 0.355961 0.227001
C11   C     C_R   0.104608 0.482961 0.877084 0.232743
C12   C     C_R   0.558243 0.135947 0.554580 0.606355
C13   C     C_R   0.527202 0.526950 0.896306 0.221309
C14   C     C_R   0.439636 0.989803 0.896135 0.226317
C15   C     C_R   0.481195 0.077449 0.379823 0.239505
C16   C     C_R   0.560159 0.553929 0.397618 0.230091
C17   C     C_R   0.988487 0.436175 0.396184 0.221819
C18   C     C_R   0.182461 0.662928 0.880483 -0.179507
C19   C     C_R   0.391487 0.553439 0.878932 -0.147082
C20   C     C_R   0.481159 0.862752 0.880933 -0.184323
C21   C     C_R   0.659946 0.188710 0.379230 -0.175481
C22   C     C_R   0.504038 0.381435 0.382488 -0.160941
C23   C     C_R   0.865320 0.422648 0.554458 0.586380
C24   C     C_R   0.870027 0.489552 0.381781 -0.181037
C25   C     C_R   0.160372 0.665637 0.841836 -0.156224
C26   C     C_R   0.401008 0.536232 0.840639 -0.143979
C27   C     C_R   0.489945 0.887499 0.842364 -0.166972
C28   C     C_R   0.663235 0.166115 0.340776 -0.151129
C29   C     C_R   0.489758 0.396643 0.344414 -0.152042
C30   C     C_R   0.895377 0.499390 0.343259 -0.161462
C31   C     C_R   0.103292 0.578064 0.821623 -0.009416
C32   C     C_R   0.477324 0.520881 0.828724 -0.013366
C33   C     C_R   0.467686 0.958498 0.829389 -0.021249
C34   C     C_R   0.441957 0.578063 0.054771 0.607856
C35   C     C_R   0.578655 0.094150 0.322361 -0.009680
C36   C     C_R   0.516410 0.490918 0.331450 -0.019531
C37   C     C_R   0.961930 0.471688 0.329831 -0.019198
C38   C     C_R   0.155837 0.572991 0.898781 -0.042980
C39   C     C_R   0.452831 0.548102 0.906887 0.001503
C40   C     C_R   0.453486 0.911079 0.907801 -0.011886
C41   C     C_R   0.570410 0.147011 0.399211 -0.032295
C42   C     C_R   0.542051 0.459447 0.408980 -0.005134
C43   C     C_R   0.913245 0.454979 0.408184 -0.014684
C44   C     C_R   0.577288 0.442486 0.445866 0.613345
C45   C     C_R   0.136051 0.558307 0.054634 0.605215
C46   C     C_R   0.577728 0.181272 0.439717 0.539673
C47   C     C_R   0.864749 0.422357 0.445748 0.604033
C48   C     C_R   0.442287 0.577137 0.945872 0.618301
C49   C     C_R   0.184973 0.579300 0.939932 0.549563
C50   C     C_R   0.422178 0.864590 0.945726 0.606688
C51   C     C_R   0.927211 0.460447 0.589629 -0.030830
C52   C     C_R   0.548160 0.461406 0.592178 -0.018351
C53   C     C_R   0.538616 0.083341 0.591500 -0.025727
C54   C     C_R   0.462368 0.929239 0.089139 -0.033519
C55   C     C_R   0.461050 0.546664 0.092342 -0.019505
C56   C     C_R   0.422862 0.865561 0.054387 0.586514
C57   C     C_R   0.084250 0.539356 0.091712 -0.028246
C58   C     C_R   0.959098 0.403061 0.610291 0.223890
C59   C     C_R   0.448167 0.423467 0.602576 0.220998
C60   C     C_R   0.442033 0.013209 0.603260 0.231106
C61   C     C_R   0.410639 0.970205 0.107993 0.223586
C62   C     C_R   0.557723 0.580659 0.106659 0.227738
C63   C     C_R   0.012949 0.443185 0.103577 0.224887
C64   C     C_R   0.982801 0.423739 0.649860 0.237343
C65   C     C_R   0.424673 0.422148 0.642459 0.192574
C66   C     C_R   0.423361 0.991520 0.643320 0.249985
C67   C     C_R   0.040105 0.547517 0.704463 0.399301
C68   C     C_R   0.431149 0.997068 0.147470 0.188816
C69   C     C_R   0.572087 0.577916 0.147176 0.240391
C70   C     C_R   0.991052 0.425086 0.143670 0.246903
C71   C     C_R   0.002639 0.516352 0.664919 -0.003227
C72   C     C_R   0.502846 0.467983 0.669585 -0.020954
C73   C     C_R   0.504721 0.028626 0.669247 -0.013988
C74   C     C_R   0.519561 0.008673 0.164017 -0.021999
C75   C     C_R   0.488152 0.526822 0.171059 -0.007720
C76   C     C_R   0.029879 0.506834 0.169527 -0.007344
C77   C     C_R   0.984459 0.579264 0.642218 -0.140129
C78   C     C_R   0.487552 0.474807 0.710600 0.373413
C79   C     C_R   0.600470 0.511680 0.657932 -0.148272
C80   C     C_R   0.600456 0.088231 0.655837 -0.151889
C81   C     C_R   0.578336 0.982310 0.142538 -0.123885
C82   C     C_R   0.393608 0.483828 0.155321 -0.151587
C83   C     C_R   0.090868 0.602319 0.156012 -0.148558
C84   C     C_R   0.943070 0.549689 0.605676 -0.170821
C85   C     C_R   0.622919 0.507715 0.619834 -0.168398
C86   C     C_R   0.617109 0.116738 0.617654 -0.157543
C87   C     C_R   0.548042 0.939328 0.106322 -0.160401
C88   C     C_R   0.380110 0.494991 0.116654 -0.166249
C89   C     C_R   0.493762 0.009807 0.710848 0.392882
C90   C     C_R   0.119055 0.618279 0.117796 -0.162863
C91   C     C_R   0.091325 0.581221 0.779904 0.368925
C92   C     C_R   0.482156 0.504765 0.787166 0.387505
C93   C     C_R   0.475677 0.977114 0.787756 0.378770
C94   C     C_R   0.580530 0.084796 0.280444 0.369449
C95   C     C_R   0.508810 0.501043 0.289851 0.380140
C96   C     C_R   0.979950 0.479646 0.288155 0.381763
Cr1   Cr    Cr6+3 0.522350 0.263930 0.500020 1.189059
Cr2   Cr    Cr6+3 0.736070 0.258420 0.500020 1.157308
Cr3   Cr    Cr6+3 0.741580 0.477650 0.500020 1.083243
Cr4   Cr    Cr6+3 0.263930 0.522350 0.000020 1.142306
Cr5   Cr    Cr6+3 0.258420 0.736070 0.000020 1.143963
Cr6   Cr    Cr6+3 0.477650 0.741580 0.000020 1.116333
H1    H     H_    0.922196 0.596437 0.590125 0.166470
H2    H     H_    0.645542 0.989934 0.154727 0.194689
H3    H     H_    0.329441 0.444535 0.173498 0.178281
H4    H     H_    0.120410 0.664886 0.175634 0.177948
H5    H     H_    0.224586 0.732256 0.895786 0.162304
H6    H     H_    0.335722 0.571680 0.886847 0.131481
H7    H     H_    0.491887 0.802234 0.889548 0.151472
H8    H     H_    0.727618 0.243479 0.392987 0.145513
H9    H     H_    0.490732 0.309185 0.390732 0.174008
H10   H     H_    0.812547 0.504584 0.390623 0.158157
H11   H     H_    0.187982 0.736156 0.827657 0.169991
H12   H     H_    0.699604 0.537312 0.612301 0.155816
H13   H     H_    0.349335 0.537232 0.820023 0.177544
H14   H     H_    0.511398 0.848535 0.822226 0.168783
H15   H     H_    0.731970 0.205593 0.325206 0.166645
H16   H     H_    0.461971 0.334912 0.324417 0.180050
H17   H     H_    0.859974 0.525672 0.323449 0.174994
H18   H     H_    0.066199 0.243507 0.596915 0.401659
H19   H     H_    0.224647 0.391540 0.554478 0.395772
H20   H     H_    0.219285 0.805557 0.561225 0.377871
H21   H     H_    0.277709 0.102406 0.086642 0.388441
H22   H     H_    0.792671 0.614726 0.070609 0.382565
H23   H     H_    0.691558 0.169430 0.609038 0.191223
H24   H     H_    0.803099 0.222050 0.061656 0.381912
H25   H     H_    0.188692 0.326237 0.923481 0.382974
H26   H     H_    0.724175 0.584615 0.965660 0.395931
H27   H     H_    0.511290 0.128056 0.986265 0.401126
H28   H     H_    0.288181 0.968987 0.452426 0.391235
H29   H     H_    0.562789 0.644010 0.495654 0.382859
H30   H     H_    0.117570 0.485139 0.488505 0.396871
H31   H     H_    0.868701 0.267115 0.731814 0.390199
H32   H     H_    0.308887 0.269305 0.703892 0.363980
H33   H     H_    0.232683 0.924533 0.716652 0.387643
H34   H     H_    0.591166 0.912052 0.092050 0.182767
H35   H     H_    0.323582 0.876411 0.213569 0.344169
H36   H     H_    0.749765 0.711883 0.224689 0.395844
H37   H     H_    0.917785 0.233926 0.217387 0.390858
H38   H     H_    0.845762 0.240294 0.838440 0.378309
H39   H     H_    0.704909 0.426882 0.825302 0.397407
H40   H     H_    0.298613 0.139210 0.859246 0.388958
H41   H     H_    0.277730 0.791169 0.345944 0.389269
H42   H     H_    0.535029 0.787579 0.331127 0.400885
H43   H     H_    0.234418 0.446770 0.324145 0.385567
H44   H     H_    0.305558 0.467095 0.106211 0.170097
H45   H     H_    0.172506 0.692520 0.109080 0.178889
H46   H     H_    0.997986 0.649599 0.653532 0.183477
H47   H     H_    0.660008 0.547100 0.678789 0.172617
H48   H     H_    0.662734 0.116571 0.675519 0.183463
N1    N     N_R   0.028001 0.607675 0.764811 -0.144161
N2    N     N_R   0.591924 0.002263 0.226385 -0.184793
N3    N     N_R   0.445830 0.544629 0.237338 -0.174615
N4    N     N_R   0.088387 0.538397 0.236377 -0.184710
N5    N     N_R   0.107360 0.526253 0.719273 -0.092095
N6    N     N_R   0.510474 0.424276 0.736390 -0.178295
N7    N     N_R   0.442126 0.916568 0.724542 -0.133261
N8    N     N_R   0.529772 0.109663 0.220336 -0.093347
N9    N     N_R   0.549754 0.479503 0.227305 -0.122463
N10   N     N_R   0.918537 0.448060 0.225055 -0.118545
N11   N     N_R   0.131907 0.542025 0.756412 -0.147756
N12   N     N_R   0.458145 0.554312 0.761206 -0.199436
N13   N     N_R   0.506491 0.438021 0.774108 -0.098217
N14   N     N_R   0.433324 0.900524 0.762400 -0.205626
N15   N     N_R   0.543775 0.129487 0.257919 -0.157380
N16   N     N_R   0.556249 0.471411 0.265256 -0.190186
N17   N     N_R   0.903026 0.439851 0.262952 -0.200984
N18   N     N_R   0.529264 0.070137 0.774048 -0.125140
N19   N     N_R   0.607349 0.023158 0.263960 -0.137943
N20   N     N_R   0.452477 0.536715 0.275333 -0.127616
N21   N     N_R   0.072882 0.530124 0.274264 -0.119300
N22   N     N_R   0.002934 0.591232 0.727577 -0.183382
N23   N     N_R   0.461234 0.539972 0.723513 -0.135461
N24   N     N_R   0.538086 0.086178 0.736202 -0.178839
O1    O     O_R   0.498680 0.159540 0.541860 -0.445064
O2    O     O_R   0.358060 0.532760 0.040030 -0.510000
O3    O     O_R   0.174700 0.641940 0.040030 -0.496770
O4    O     O_R   0.467240 0.825300 0.040030 -0.512434
O5    O     O_R   0.498590 0.161190 0.456930 -0.410244
O6    O     O_R   0.838810 0.337400 0.456930 -0.472808
O7    O     O_R   0.662600 0.501410 0.456930 -0.477682
O8    O     O_R   0.161190 0.498590 0.956930 -0.394779
O9    O     O_R   0.337400 0.838810 0.956930 -0.480366
O10   O     O_R   0.501410 0.662600 0.956930 -0.480967
O11   O     O_R   0.532680 0.359580 0.461300 -0.492268
O12   O     O_R   0.840460 0.339140 0.541860 -0.425554
O13   O     O_R   0.640420 0.173100 0.461300 -0.468771
O14   O     O_R   0.826900 0.467320 0.461300 -0.505414
O15   O     O_R   0.359580 0.532680 0.961300 -0.483735
O16   O     O_R   0.173100 0.640420 0.961300 -0.477659
O17   O     O_R   0.467320 0.826900 0.961300 -0.503340
O18   O     O_3   0.666667 0.333333 0.499990 -0.339800
O19   O     O_3   0.333333 0.666667 0.999990 -0.339002
O20   O     O_2   0.886562 0.217970 0.583062 -0.234751
O21   O     O_2   0.020205 0.350850 0.546450 -0.249607
O22   O     O_3   0.064319 0.298150 0.610633 -0.386955
O23   O     O_R   0.660860 0.501320 0.541860 -0.507705
O24   O     O_2   0.401917 0.432221 0.527728 -0.237527
O25   O     O_2   0.308140 0.274304 0.560755 -0.206631
O26   O     O_3   0.271096 0.415085 0.576636 -0.420150
O27   O     O_2   0.293406 0.002061 0.560633 -0.201323
O28   O     O_2   0.396629 0.945087 0.530001 -0.232272
O29   O     O_3   0.271926 0.832507 0.581138 -0.434757
O30   O     O_2   0.368458 0.028293 0.040916 -0.223714
O31   O     O_2   0.229082 0.911129 0.079943 -0.222987
O32   O     O_3   0.326701 0.094624 0.102053 -0.427436
O33   O     O_2   0.617336 0.566031 0.035282 -0.227396
O34   O     O_R   0.159540 0.498680 0.041860 -0.458772
O35   O     O_2   0.705869 0.726900 0.067410 -0.215002
O36   O     O_3   0.738986 0.587425 0.089841 -0.421725
O37   O     O_2   0.945366 0.398078 0.030220 -0.228652
O38   O     O_2   0.998512 0.292274 0.061416 -0.208848
O39   O     O_3   0.830738 0.275155 0.081411 -0.428205
O40   O     O_2   0.015271 0.322471 0.922266 -0.166305
O41   O     O_2   0.074735 0.299159 0.860032 -0.180813
O42   O     O_3   0.202577 0.390767 0.913069 -0.526529
O43   O     O_2   0.521525 0.452889 0.966942 -0.230690
O44   O     O_2   0.621112 0.429601 0.918747 -0.155177
O45   O     O_R   0.339140 0.840460 0.041860 -0.432832
O46   O     O_3   0.688037 0.605343 0.948044 -0.441656
O47   O     O_2   0.475156 0.170938 0.918293 -0.166186
O48   O     O_2   0.327565 0.027299 0.943978 -0.171337
O49   O     O_3   0.498051 0.068344 0.971489 -0.499394
O50   O     O_2   0.358582 0.132559 0.411432 -0.274764
O51   O     O_2   0.278668 0.985541 0.372035 -0.160847
O52   O     O_3   0.345037 0.971733 0.438896 -0.411765
O53   O     O_2   0.694380 0.708673 0.438814 -0.218711
O54   O     O_2   0.540665 0.706956 0.423212 -0.154655
O55   O     O_3   0.536437 0.589753 0.476386 -0.472529
O56   O     O_R   0.501320 0.660860 0.041860 -0.449655
O57   O     O_2   0.017564 0.313034 0.440987 -0.175344
O58   O     O_2   0.165324 0.462070 0.418716 -0.172390
O59   O     O_3   0.062481 0.480687 0.472864 -0.501034
O60   O     O_2   0.897767 0.227231 0.663725 -0.243679
O61   O     O_2   0.059376 0.334681 0.693091 -0.104584
O62   O     O_3   0.906699 0.335177 0.721754 -0.472754
O63   O     O_2   0.262627 0.432144 0.657579 -0.127556
O64   O     O_2   0.235802 0.272431 0.634676 -0.178947
O65   O     O_3   0.292211 0.322510 0.705076 -0.452296
O66   O     O_2   0.230552 0.940886 0.636100 -0.178819
O67   O     O_R   0.532760 0.358060 0.540030 -0.456574
O68   O     O_2   0.267753 0.820777 0.665390 -0.229891
O69   O     O_3   0.297166 0.973343 0.705766 -0.477668
O70   O     O_2   0.359262 0.098865 0.184481 -0.143960
O71   O     O_2   0.237314 0.936481 0.159594 -0.196581
O72   O     O_3   0.335975 0.943304 0.220157 -0.431063
O73   O     O_2   0.732965 0.577791 0.173582 -0.200618
O74   O     O_2   0.760293 0.732091 0.144585 -0.173219
O75   O     O_3   0.684692 0.689223 0.212459 -0.474916
O76   O     O_2   0.818143 0.272566 0.165636 -0.220552
O77   O     O_2   0.934979 0.230398 0.136792 -0.181258
O78   O     O_R   0.641940 0.174700 0.540030 -0.496893
O79   O     O_3   0.968312 0.297555 0.206384 -0.479488
O80   O     O_2   0.901450 0.408577 0.796929 -0.240744
O81   O     O_2   0.004692 0.332352 0.791816 -0.186054
O82   O     O_3   0.896322 0.298224 0.852999 -0.423814
O83   O     O_2   0.689914 0.585456 0.802857 -0.260459
O84   O     O_2   0.739184 0.586103 0.869576 -0.180940
O85   O     O_3   0.640815 0.416916 0.834461 -0.412215
O86   O     O_2   0.478557 0.189608 0.834755 -0.174986
O87   O     O_2   0.345289 0.050877 0.799662 -0.238835
O88   O     O_3   0.309689 0.085798 0.868621 -0.431328
O89   O     O_R   0.825300 0.467240 0.540030 -0.519226
O90   O     O_2   0.322234 0.949717 0.300981 -0.166124
O91   O     O_2   0.432690 0.882183 0.296454 -0.256700
O92   O     O_3   0.332636 0.849195 0.358905 -0.417361
O93   O     O_2   0.681241 0.769229 0.364390 -0.175883
O94   O     O_2   0.636266 0.703825 0.299212 -0.236433
O95   O     O_3   0.505350 0.718306 0.339781 -0.421712
O96   O     O_2   0.075769 0.308583 0.364045 -0.171014
O97   O     O_2   0.044471 0.341631 0.298528 -0.242642
O98   O     O_3   0.198076 0.478647 0.334273 -0.435802
S1    S     S_3+6 0.981030 0.314866 0.586254 0.110619
S2    S     S_3+6 0.362310 0.041912 0.399764 0.121246
S3    S     S_3+6 0.584892 0.644417 0.434010 0.126196
S4    S     S_3+6 0.061089 0.420790 0.432206 0.129306
S5    S     S_3+6 0.962909 0.326505 0.681927 0.114243
S6    S     S_3+6 0.300501 0.361020 0.659222 0.143280
S7    S     S_3+6 0.300803 0.928600 0.661914 0.099546
S8    S     S_3+6 0.337815 0.995165 0.177522 0.117638
S9    S     S_3+6 0.691617 0.645526 0.168821 0.110810
S10   S     S_3+6 0.925055 0.302540 0.162393 0.099417
S11   S     S_3+6 0.965769 0.379681 0.818996 0.111605
S12   S     S_3+6 0.356539 0.384281 0.565493 0.108959
S13   S     S_3+6 0.658211 0.531160 0.840537 0.115759
S14   S     S_3+6 0.393744 0.086166 0.838508 0.109329
S15   S     S_3+6 0.392652 0.929353 0.323136 0.115694
S16   S     S_3+6 0.598491 0.694196 0.339723 0.116716
S17   S     S_3+6 0.080599 0.387082 0.337786 0.108684
S18   S     S_3+6 0.349751 0.948939 0.567287 0.113563
S19   S     S_3+6 0.330989 0.999484 0.081398 0.117087
S20   S     S_3+6 0.656336 0.617354 0.073375 0.115425
S21   S     S_3+6 0.947595 0.350900 0.067689 0.120877
S22   S     S_3+6 0.096100 0.369835 0.892967 0.108005
S23   S     S_3+6 0.589147 0.499770 0.933265 0.133262
S24   S     S_3+6 0.432995 0.066978 0.932497 0.132120

loop_
_geom_bond_atom_site_label_1
_geom_bond_atom_site_label_2
_ccdc_geom_bond_type
C25   C31   A    
C11   S22   S    
C6    C32   A    
C59   S12   S    
Cr6   O19   S    
C26   C32   A    
O27   S18   D    
Cr1   O1    S    
C22   C29   A    
C15   S2    S    
O76   S10   D    
O51   S2    D    
O58   S4    D    
O95   S16   S    
C60   S18   S    
Cr4   O15   S    
C24   H10   S    
O70   S8    D    
O33   S20   D    
H27   O49   S    
H36   O75   S    
O96   S17   D    
C21   H8    S    
Cr4   O34   S    
C38   C49   S    
C56   O4    A    
Cr4   O19   S    
N5    N11   A    
N18   N24   A    
C29   C36   A    
C45   C57   S    
H18   O22   S    
O75   S9    S    
O47   S24   D    
H43   O98   S    
O26   S12   S    
C89   N24   A    
H28   O52   S    
C85   H12   S    
H24   O39   S    
C9    C16   A    
C4    N4    A    
C5    C11   A    
C72   C79   A    
C28   H15   S    
C94   N19   A    
C54   C87   A    
O44   S23   D    
C82   C88   A    
H25   O42   S    
N10   N17   A    
O41   S22   D    
C30   H17   S    
Cr1   O11   S    
O54   S3    D    
C68   C74   A    
O65   S6    S    
C63   S21   S    
C76   C83   A    
C67   N5    A    
H32   O65   S    
C64   C71   A    
H33   O69   S    
C55   C88   A    
O85   S13   S    
C19   C26   A    
O53   S3    D    
C26   H13   S    
O43   S23   D    
C80   C86   A    
O38   S21   D    
C18   H5    S    
C8    S15   S    
O92   S15   S    
C7    C14   A    
C69   S9    S    
C50   O9    A    
C28   C35   A    
C96   N21   A    
O55   S3    S    
N3    N20   A    
Cr4   O2    S    
C9    C36   A    
C72   C78   S    
C41   C46   S    
C69   C75   A    
C53   C86   A    
H38   O82   S    
C46   O13   A    
Cr4   O8    S    
H30   O59   S    
H26   O46   S    
C12   C53   S    
C2    C74   S    
C45   O3    A    
C44   O11   A    
C79   H47   S    
C22   C42   A    
O39   S21   S    
C27   H14   S    
H29   O55   S    
O48   S24   D    
C58   S1    S    
C60   C66   A    
C34   C55   S    
O73   S9    D    
O60   S5    D    
O94   S16   D    
C86   H23   S    
C3    N9    A    
Cr1   O5    S    
C7    C33   A    
C34   O56   A    
C18   C25   A    
O36   S20   S    
O68   S7    D    
C93   N18   A    
C16   S3    S    
C46   O5    A    
C94   N15   A    
O74   S9    D    
C1    C52   S    
C53   C60   A    
Cr5   O19   S    
C57   C63   A    
C10   S17   S    
C62   C69   A    
Cr1   O18   S    
C58   C64   A    
C54   C56   S    
C13   S23   S    
C90   H45   S    
C4    C76   S    
C57   C90   A    
C14   S24   S    
O62   S5    S    
O61   S5    D    
C6    S13   S    
N2    N19   A    
N6    N13   A    
C3    N3    A    
Cr2   O18   S    
Cr5   O16   S    
C79   C85   A    
O69   S7    S    
N12   N23   A    
C49   O16   A    
C77   C84   A    
C70   S10   S    
C66   C73   A    
Cr1   O67   S    
C83   C90   A    
C27   C33   A    
N1    N22   A    
C49   O8    A    
C37   C96   S    
C93   N14   A    
C8    C35   A    
H20   O29   S    
O31   S19   D    
C11   C38   A    
C80   H48   S    
C17   C43   A    
H19   O26   S    
O21   S1    D    
C47   O6    A    
C52   C59   A    
C25   H11   S    
O98   S17   S    
C78   N23   A    
Cr5   O45   S    
C10   C17   A    
C23   C51   S    
O40   S22   D    
C63   C70   A    
C23   O89   A    
C64   S5    S    
C2    N8    A    
O49   S24   S    
Cr3   O23   S    
C2    N2    A    
O83   S13   D    
Cr6   O17   S    
H39   O85   S    
O66   S7    D    
C66   S7    S    
Cr3   O89   S    
C51   C58   A    
O46   S23   S    
O72   S8    S    
C50   O17   A    
O37   S21   D    
C77   H46   S    
C15   C41   A    
C48   O15   A    
C81   C87   A    
C19   C39   A    
C12   O1    A    
O24   S12   D    
C1    O67   A    
C92   N13   A    
C55   C62   A    
O88   S14   S    
C21   C28   A    
O93   S16   D    
C45   O34   A    
C31   C91   S    
O29   S18   S    
Cr2   O13   S    
C70   C76   A    
Cr6   O4    S    
O35   S20   D    
C21   C41   A    
C24   C30   A    
O77   S10   D    
C74   C81   A    
Cr2   O6    S    
N7    N14   A    
C95   N16   A    
C16   C42   A    
C71   C77   A    
C17   S4    S    
C3    C75   S    
O79   S10   S    
C48   O10   A    
O87   S14   D    
C35   C94   S    
C92   N12   A    
C24   C43   A    
C82   H3    S    
C61   C68   A    
C52   C85   A    
O20   S1    D    
O82   S11   S    
H37   O79   S    
C5    S11   S    
O90   S15   D    
C20   C40   A    
C87   H34   S    
C1    O23   A    
H21   O32   S    
O84   S13   D    
O64   S6    D    
C54   C61   A    
C33   C93   S    
C4    N10   A    
C23   O12   A    
O97   S17   D    
C83   H4    S    
C75   C82   A    
C89   N7    A    
C68   S8    S    
C20   C27   A    
C10   C37   A    
C67   N22   A    
C8    C15   A    
C65   C72   A    
O50   S2    D    
C29   H16   S    
O42   S22   S    
C12   O78   A    
N9    N16   A    
H41   O92   S    
Cr6   O10   S    
C91   N1    A    
C96   N17   A    
H42   O95   S    
C18   C38   A    
C42   C44   S    
C73   C89   S    
O32   S19   S    
C9    S16   S    
C7    S14   S    
C61   S19   S    
O80   S11   D    
C6    C13   A    
Cr2   O78   S    
H35   O72   S    
O59   S4    S    
C36   C95   S    
C78   N6    A    
C19   H6    S    
Cr3   O18   S    
H22   O36   S    
C40   C50   S    
O25   S12   D    
C44   O7    A    
Cr3   O14   S    
O52   S2    S    
N4    N21   A    
C73   C80   A    
C32   C92   S    
O57   S4    D    
O63   S6    D    
O71   S8    D    
C67   C71   S    
C56   O45   A    
C95   N20   A    
C62   S20   S    
C13   C39   A    
C34   O2    A    
O91   S15   D    
O86   S14   D    
C14   C40   A    
C20   H7    S    
Cr5   O9    S    
C30   C37   A    
Cr2   O12   S    
C22   H9    S    
O81   S11   D    
C65   S6    S    
O28   S18   D    
C84   H1    S    
C88   H44   S    
C91   N11   A    
Cr3   O7    S    
Cr6   O56   S    
H40   O88   S    
C5    C31   A    
C47   O14   A    
C43   C47   S    
C51   C84   A    
H31   O62   S    
Cr5   O3    S    
C59   C65   A    
O22   S1    S    
N8    N15   A    
C39   C48   S    
O30   S19   D    
C81   H2    S    
