data_mof_unit_64957.cif
_audit_creation_date              2012-12-10T19:31:17-0500
_audit_creation_method            fapswitch 2.2
_symmetry_space_group_name_H-M    P1
_symmetry_Int_Tables_number       1
_space_group_crystal_system       triclinic
_cell_length_a                    36.034978
_cell_length_b                    43.203098
_cell_length_c                    28.148841
_cell_angle_alpha                 90.001405
_cell_angle_beta                  129.87742
_cell_angle_gamma                 89.998931
_cell_volume                      33630.365353

loop_
_atom_site_label
_atom_site_type_symbol
_atom_type_description
_atom_site_fract_x
_atom_site_fract_y
_atom_site_fract_z
_atom_type_partial_charge
C1    C     C_R   0.599753 0.250016 0.999998 0.819911
C2    C     C_R   0.456471 0.016119 0.959860 -0.170483
C3    C     C_R   0.798191 0.747992 0.665276 -0.135112
C4    C     C_R   0.298203 0.752027 0.665261 -0.137734
C5    C     C_R   0.701806 0.248005 0.334728 -0.134890
C6    C     C_R   0.701794 0.752035 0.334741 -0.137766
C7    C     C_R   0.298186 0.248019 0.665277 -0.135590
C8    C     C_R   0.816055 0.249383 0.633469 0.057548
C9    C     C_R   0.183948 0.750582 0.366526 0.058416
C10   C     C_R   0.183936 0.249395 0.366531 0.057555
C11   C     C_R   0.816048 0.750585 0.633474 0.058405
C12   C     C_R   0.316062 0.749390 0.633468 0.057313
C13   C     C_R   0.456408 0.983880 0.960454 -0.170478
C14   C     C_R   0.683946 0.250586 0.366527 0.058508
C15   C     C_R   0.683934 0.749397 0.366532 0.057333
C16   C     C_R   0.316043 0.250602 0.633474 0.057971
C17   C     C_R   0.865881 0.245922 0.667096 -0.161415
C18   C     C_R   0.134121 0.754027 0.332907 -0.163365
C19   C     C_R   0.134110 0.245931 0.332900 -0.161364
C20   C     C_R   0.865875 0.754029 0.667092 -0.163390
C21   C     C_R   0.365885 0.745907 0.667098 -0.161416
C22   C     C_R   0.634116 0.254019 0.332906 -0.163014
C23   C     C_R   0.634110 0.745913 0.332900 -0.161526
C24   C     C_R   0.543529 0.016119 0.040139 -0.170453
C25   C     C_R   0.365872 0.254035 0.667091 -0.161404
C26   C     C_R   0.897474 0.245525 0.731524 -0.156536
C27   C     C_R   0.102524 0.754433 0.268479 -0.165715
C28   C     C_R   0.102520 0.245530 0.268473 -0.156421
C29   C     C_R   0.897473 0.754433 0.731520 -0.165623
C30   C     C_R   0.397475 0.745509 0.731526 -0.156761
C31   C     C_R   0.602520 0.254424 0.268478 -0.165340
C32   C     C_R   0.602522 0.745513 0.268473 -0.157120
C33   C     C_R   0.397471 0.254435 0.731519 -0.158673
C34   C     C_R   0.879986 0.248635 0.763710 -0.085788
C35   C     C_R   0.043529 0.483881 0.040140 -0.170748
C36   C     C_R   0.120012 0.751354 0.236288 -0.087999
C37   C     C_R   0.120012 0.248638 0.236290 -0.085869
C38   C     C_R   0.879986 0.751354 0.763712 -0.087999
C39   C     C_R   0.379987 0.748638 0.763709 -0.086691
C40   C     C_R   0.620011 0.251356 0.236288 -0.088093
C41   C     C_R   0.620011 0.748641 0.236291 -0.086900
C42   C     C_R   0.379984 0.251361 0.763713 -0.084371
C43   C     C_R   0.788092 0.228706 0.532249 -0.159979
C44   C     C_R   0.211930 0.771273 0.467740 -0.160021
C45   C     C_R   0.211897 0.228722 0.467751 -0.159986
C46   C     C_R   0.956408 0.516120 0.960454 -0.170721
C47   C     C_R   0.788064 0.771279 0.532263 -0.159999
C48   C     C_R   0.288083 0.728699 0.532250 -0.159766
C49   C     C_R   0.711909 0.271260 0.467743 -0.160356
C50   C     C_R   0.711910 0.728706 0.467748 -0.159927
C51   C     C_R   0.288074 0.271279 0.532258 -0.159298
C52   C     C_R   0.755957 0.228884 0.467710 -0.170397
C53   C     C_R   0.244069 0.771101 0.532278 -0.170806
C54   C     C_R   0.244030 0.228902 0.532289 -0.170917
C55   C     C_R   0.755925 0.771108 0.467725 -0.170763
C56   C     C_R   0.255947 0.728874 0.467711 -0.170926
C57   C     C_R   0.956471 0.483881 0.959861 -0.170687
C58   C     C_R   0.744045 0.271084 0.532281 -0.170330
C59   C     C_R   0.744047 0.728880 0.532287 -0.170972
C60   C     C_R   0.255939 0.271101 0.467720 -0.170642
C61   C     C_R   0.717594 0.250170 0.434887 0.105677
C62   C     C_R   0.282416 0.749803 0.565106 0.105722
C63   C     C_R   0.282392 0.250188 0.565114 0.105535
C64   C     C_R   0.717578 0.749810 0.434895 0.105755
C65   C     C_R   0.217598 0.750169 0.434886 0.105708
C66   C     C_R   0.782408 0.249796 0.565107 0.105646
C67   C     C_R   0.782397 0.750175 0.565115 0.105726
C68   C     C_R   0.043592 0.516120 0.039546 -0.171081
C69   C     C_R   0.217580 0.249812 0.434893 0.105583
C70   C     C_R   0.530149 0.615146 0.056442 -0.080745
C71   C     C_R   0.460529 0.384039 0.946594 -0.091040
C72   C     C_R   0.469373 0.615401 0.942722 -0.080565
C73   C     C_R   0.540144 0.384524 0.050910 -0.035425
C74   C     C_R   0.032328 0.115387 0.056542 -0.080008
C75   C     C_R   0.959820 0.884316 0.948275 -0.037292
C76   C     C_R   0.967671 0.115387 0.943454 -0.080011
C77   C     C_R   0.040175 0.884317 0.051726 -0.037146
C78   C     C_R   0.500223 0.334057 0.000201 0.748425
C79   C     C_R   0.500000 0.032662 1.000000 0.103300
C80   C     C_R   0.499976 0.665829 0.999972 0.749527
C81   C     C_R   1.000000 0.834057 0.000000 0.744836
C82   C     C_R   1.000000 0.165859 1.000000 0.749471
C83   C     C_R   0.530955 0.582395 0.056093 -0.038553
C84   C     C_R   0.460826 0.416790 0.945056 -0.010447
C85   C     C_R   0.468751 0.582650 0.942424 -0.050071
C86   C     C_R   0.539990 0.417294 0.050074 -0.050577
C87   C     C_R   0.033322 0.082643 0.056381 -0.038065
C88   C     C_R   0.961013 0.917059 0.947004 -0.009957
C89   C     C_R   0.966674 0.082643 0.943613 -0.038088
C90   C     C_R   0.500000 0.967337 1.000000 0.103505
C91   C     C_R   0.038978 0.917061 0.052996 -0.009932
C92   C     C_R   0.499966 0.566313 0.999082 -0.018719
C93   C     C_R   0.500872 0.433214 0.996697 -0.084824
C94   C     C_R   0.999997 0.066406 0.999997 -0.018104
C95   C     C_R   0.999995 0.933220 0.999999 -0.126507
C96   C     C_R   0.500000 0.165935 0.000000 0.785244
C97   C     C_R   0.500000 0.834065 1.000000 0.785600
C98   C     C_R   0.000000 0.665935 0.000000 0.784845
C99   C     C_R   1.000000 0.334065 1.000000 0.785462
C100  C     C_R   0.465167 0.884212 0.945333 -0.179499
C101  C     C_R   1.000000 0.532663 0.000000 0.103510
C102  C     C_R   0.539230 0.115786 0.013075 -0.179643
C103  C     C_R   0.534833 0.884213 0.054667 -0.179471
C104  C     C_R   0.460770 0.115787 0.986925 -0.179433
C105  C     C_R   0.960770 0.384213 0.986924 -0.179321
C106  C     C_R   0.034833 0.615788 0.054667 -0.180031
C107  C     C_R   0.039230 0.384213 0.013075 -0.179673
C108  C     C_R   0.965167 0.615787 0.945333 -0.179948
C109  C     C_R   0.465568 0.916460 0.945093 -0.167361
C110  C     C_R   0.538946 0.083539 0.012209 -0.167189
C111  C     C_R   0.534432 0.916460 0.054907 -0.167349
C112  C     C_R   0.400248 0.749986 0.000005 0.817596
C113  C     C_R   1.000000 0.467337 0.000000 0.103389
C114  C     C_R   0.461054 0.083540 0.987790 -0.167265
C115  C     C_R   0.961054 0.416461 0.987790 -0.167150
C116  C     C_R   0.034432 0.583540 0.054907 -0.167761
C117  C     C_R   0.038946 0.416460 0.012210 -0.167565
C118  C     C_R   0.965568 0.583540 0.945093 -0.167877
C119  C     C_R   0.500000 0.933012 1.000000 0.109754
C120  C     C_R   0.500000 0.066987 1.000000 0.110475
C121  C     C_R   1.000000 0.433013 0.000000 0.110520
C122  C     C_R   1.000000 0.566988 0.000000 0.109845
C123  C     C_R   0.500440 0.467375 0.997066 0.106491
C124  C     C_R   0.520986 0.516296 0.977145 -0.093625
C125  C     C_R   0.500290 0.532097 0.998632 0.205757
C126  C     C_R   0.999995 0.967399 0.999998 0.022580
C127  C     C_R   0.999996 0.032157 0.999996 0.215719
C128  C     C_R   0.500000 0.867937 1.000000 -0.000301
C129  C     C_R   0.500000 0.132062 0.000000 0.001819
C130  C     C_R   1.000000 0.367938 1.000000 0.001871
C131  C     C_R   1.000000 0.632063 0.000000 -0.000117
C132  C     C_2   0.563922 0.632808 0.115230 0.438555
C133  C     C_2   0.419694 0.365770 0.892640 0.398666
C134  C     C_2   0.435397 0.633310 0.884308 0.437022
C135  C     C_R   0.479809 0.483133 0.018631 -0.156968
C136  C     C_2   0.583424 0.366913 0.102860 0.490960
C137  C     C_2   0.067610 0.133256 0.114616 0.434308
C138  C     C_2   0.915895 0.866664 0.897625 0.494665
C139  C     C_2   0.932391 0.133256 0.885380 0.434444
C140  C     C_2   0.084102 0.866667 0.102376 0.494397
C141  C     C_2   0.566005 0.564986 0.115019 0.402606
C142  C     C_2   0.417582 0.433675 0.891286 0.509154
C143  C     C_2   0.433744 0.565465 0.883185 0.423784
C144  C     C_2   0.579173 0.435485 0.105637 0.502312
C145  C     C_2   0.070985 0.065420 0.114531 0.401783
C146  C     C_R   0.479817 0.515416 0.019533 -0.084678
C147  C     C_2   0.922411 0.934887 0.890428 0.503041
C148  C     C_2   0.929010 0.065420 0.885462 0.401873
C149  C     C_2   0.077578 0.934890 0.109572 0.502984
C150  C     C_2   0.732604 0.688176 0.013289 0.399486
C151  C     C_2   0.272593 0.312181 0.997072 0.394600
C152  C     C_2   0.269548 0.687984 0.990996 0.398751
C153  C     C_2   0.728739 0.312140 0.005598 0.405276
C154  C     C_2   0.227394 0.187831 0.002897 0.398727
C155  C     C_2   0.767374 0.811848 0.986656 0.405063
C156  C     C_2   0.771279 0.187882 0.994450 0.398945
C157  C     C_R   0.521258 0.484019 0.976632 -0.096597
C158  C     C_2   0.230473 0.812040 0.009058 0.404828
C159  C     C_2   0.808436 0.251603 0.761555 0.423264
C160  C     C_2   0.191557 0.748431 0.238430 0.429970
C161  C     C_2   0.191565 0.251610 0.238455 0.422903
C162  C     C_2   0.808443 0.748433 0.761574 0.430365
C163  C     C_2   0.308435 0.751653 0.761543 0.421774
C164  C     C_2   0.691557 0.248457 0.238431 0.430552
C165  C     C_2   0.691566 0.751660 0.238462 0.422046
C166  C     C_2   0.308443 0.248463 0.761579 0.426294
C167  C     C_R   0.015060 0.015889 0.971854 -0.089294
C168  C     C_R   0.984938 0.983607 0.028137 -0.168098
C169  C     C_R   0.984931 0.015891 0.028138 -0.089289
C170  C     C_R   0.015051 0.983605 0.971857 -0.168050
C171  C     C_R   0.499799 0.631534 0.999734 -0.141412
C172  C     C_R   0.400247 0.250016 0.000003 0.817339
C173  C     C_R   0.499857 0.368151 0.999797 -0.156380
C174  C     C_R   1.000000 0.131612 0.999998 -0.139581
C175  C     C_R   0.999998 0.868135 0.000000 -0.188858
C176  C     C_3   0.741236 0.721112 0.006197 0.051012
C177  C     C_3   0.261183 0.279065 0.998626 0.054469
C178  C     C_3   0.259769 0.721022 0.995805 0.051364
C179  C     C_3   0.739441 0.279049 0.002625 0.048217
C180  C     C_3   0.238804 0.220947 0.001346 0.052158
C181  C     C_3   0.758741 0.778913 0.993752 0.047863
C182  C     C_3   0.760578 0.220974 0.997418 0.051312
C183  C     C_R   0.599752 0.749986 0.999994 0.817852
C184  C     C_3   0.240253 0.779003 0.004244 0.048089
C185  C     C_3   0.288505 0.235986 0.051632 -0.246618
C186  C     C_3   0.710390 0.761820 0.946163 -0.242876
C187  C     C_3   0.711203 0.236546 0.947788 -0.246077
C188  C     C_3   0.289184 0.762745 0.052988 -0.243053
C189  C     C_3   0.789587 0.738205 0.053787 -0.245894
C190  C     C_3   0.211481 0.264026 0.948340 -0.246209
C191  C     C_3   0.210839 0.737280 0.947062 -0.246216
C192  C     C_3   0.788817 0.263477 0.052255 -0.243697
C193  C     C_1   0.360546 0.250029 0.999934 -0.108018
C194  C     C_R   0.099754 0.750016 0.999999 0.822611
C195  C     C_1   0.639448 0.749978 0.000052 -0.104210
C196  C     C_1   0.639456 0.250030 0.000072 -0.103006
C197  C     C_1   0.360552 0.749979 0.999947 -0.104272
C198  C     C_1   0.860542 0.750033 0.999925 -0.103303
C199  C     C_1   0.139448 0.249977 0.000053 -0.105837
C200  C     C_1   0.139458 0.750032 0.000075 -0.103312
C201  C     C_1   0.860553 0.249980 0.999948 -0.105448
C202  C     C_3   0.237397 0.234803 0.949665 -0.238252
C203  C     C_3   0.761221 0.767269 0.047573 -0.238519
C204  C     C_3   0.762277 0.234274 0.049681 -0.236849
C205  C     C_R   0.900248 0.249986 0.000006 0.816246
C206  C     C_3   0.238194 0.766435 0.951261 -0.238555
C207  C     C_3   0.738756 0.732756 0.952376 -0.236287
C208  C     C_3   0.262590 0.265209 0.050307 -0.239146
C209  C     C_3   0.261829 0.733590 0.048789 -0.236341
C210  C     C_3   0.737742 0.265749 0.950362 -0.238481
C211  C     C_3   0.286639 0.250230 0.999933 0.168666
C212  C     C_3   0.713362 0.749789 0.000067 0.167775
C213  C     C_3   0.713369 0.250234 0.000086 0.167924
C214  C     C_3   0.286646 0.749789 0.999948 0.167795
C215  C     C_3   0.786615 0.750235 0.999883 0.167727
C216  C     C_R   0.900246 0.750017 0.000002 0.822906
C217  C     C_3   0.213347 0.249782 0.000039 0.168534
C218  C     C_3   0.213377 0.750235 0.000101 0.167805
C219  C     C_3   0.786650 0.249788 0.999957 0.168009
C220  C     C_1   0.327176 0.250091 0.999914 0.009587
C221  C     C_1   0.672818 0.749922 0.000071 0.011191
C222  C     C_1   0.672829 0.250094 0.000097 0.010684
C223  C     C_1   0.327185 0.749923 0.999933 0.011109
C224  C     C_1   0.827164 0.750097 0.999890 0.011395
C225  C     C_1   0.172814 0.249918 0.000064 0.009689
C226  C     C_1   0.172833 0.750096 0.000105 0.011327
C227  C     C_R   0.099752 0.249985 0.999994 0.815972
C228  C     C_1   0.827186 0.249923 0.999935 0.010126
C229  C     C_R   0.415228 0.250507 0.831776 0.759632
C230  C     C_R   0.584772 0.749493 0.168226 0.756760
C231  C     C_R   0.584771 0.250506 0.168225 0.759939
C232  C     C_R   0.415228 0.749492 0.831774 0.756759
C233  C     C_R   0.915229 0.750506 0.831776 0.757433
C234  C     C_R   0.084772 0.249492 0.168225 0.758456
C235  C     C_R   0.084771 0.750506 0.168225 0.757485
C236  C     C_R   0.915227 0.249492 0.831774 0.758327
C237  C     C_R   0.829487 0.251310 0.730219 -0.022628
C238  C     C_R   0.543592 0.983880 0.039546 -0.170484
C239  C     C_R   0.170512 0.748692 0.269773 -0.025234
C240  C     C_R   0.170511 0.251318 0.269786 -0.022436
C241  C     C_R   0.829487 0.748694 0.730229 -0.025457
C242  C     C_R   0.329490 0.751337 0.730214 -0.023260
C243  C     C_R   0.670512 0.248707 0.269775 -0.024571
C244  C     C_R   0.670508 0.751343 0.269789 -0.023505
C245  C     C_R   0.329483 0.248715 0.730230 -0.021579
C246  C     C_R   0.798196 0.251998 0.665265 -0.136917
C247  C     C_R   0.201806 0.747988 0.334726 -0.135161
C248  C     C_R   0.201798 0.252010 0.334739 -0.136894
H1    H     H_    0.880512 0.244054 0.643532 0.142056
H2    H     H_    0.064076 0.756561 0.243588 0.157826
H3    H     H_    0.772020 0.221197 0.090253 0.158699
H4    H     H_    0.272605 0.277852 0.091426 0.157961
H5    H     H_    0.729872 0.718439 0.913515 0.158921
H6    H     H_    0.727999 0.278826 0.909790 0.158449
H7    H     H_    0.271197 0.719952 0.088615 0.158989
H8    H     H_    0.829775 0.244721 0.809574 0.078168
H9    H     H_    0.170208 0.755320 0.190414 0.081563
H10   H     H_    0.170230 0.244726 0.190437 0.078046
H11   H     H_    0.829793 0.755322 0.809592 0.081754
H12   H     H_    0.329757 0.744760 0.809554 0.078825
H13   H     H_    0.064073 0.243387 0.243574 0.159001
H14   H     H_    0.670201 0.255339 0.190409 0.081067
H15   H     H_    0.670246 0.744765 0.190452 0.079056
H16   H     H_    0.329802 0.255342 0.809604 0.078393
H17   H     H_    0.759505 0.253582 0.639100 0.176213
H18   H     H_    0.240498 0.746413 0.360889 0.176789
H19   H     H_    0.240489 0.253597 0.360907 0.176244
H20   H     H_    0.759499 0.746417 0.639114 0.176795
H21   H     H_    0.259513 0.753628 0.639094 0.176229
H22   H     H_    0.740499 0.246439 0.360892 0.176542
H23   H     H_    0.740484 0.753637 0.360910 0.176226
H24   H     H_    0.935921 0.756559 0.756410 0.157910
H25   H     H_    0.259494 0.246454 0.639116 0.176368
H26   H     H_    0.435921 0.743350 0.756423 0.159260
H27   H     H_    0.564071 0.256542 0.243584 0.158003
H28   H     H_    0.564076 0.743352 0.243574 0.159347
H29   H     H_    0.435920 0.256552 0.756409 0.158053
H30   H     H_    0.760715 0.212106 0.443413 0.145133
H31   H     H_    0.239326 0.787892 0.556570 0.144724
H32   H     H_    0.239274 0.212123 0.556586 0.145099
H33   H     H_    0.119494 0.755879 0.356479 0.141362
H34   H     H_    0.760669 0.787900 0.443435 0.144744
H35   H     H_    0.260691 0.712085 0.443415 0.144795
H36   H     H_    0.739288 0.287865 0.556575 0.145036
H37   H     H_    0.739303 0.712090 0.556581 0.144728
H38   H     H_    0.260695 0.287882 0.443426 0.145335
H39   H     H_    0.438274 0.871972 0.902516 0.155884
H40   H     H_    0.569636 0.128026 0.022667 0.153507
H41   H     H_    0.561726 0.871973 0.097484 0.155900
H42   H     H_    0.430364 0.128027 0.977333 0.153624
H43   H     H_    0.930364 0.371974 0.977333 0.153741
H44   H     H_    0.119476 0.244063 0.356461 0.142080
H45   H     H_    0.061726 0.628028 0.097484 0.155716
H46   H     H_    0.069636 0.371972 0.022667 0.153391
H47   H     H_    0.938274 0.628027 0.902516 0.155697
H48   H     H_    0.439247 0.928329 0.901644 0.134610
H49   H     H_    0.569002 0.071669 0.020326 0.133761
H50   H     H_    0.560753 0.928330 0.098356 0.134626
H51   H     H_    0.430998 0.071670 0.979674 0.133777
H52   H     H_    0.930998 0.428331 0.979674 0.133878
H53   H     H_    0.060753 0.571671 0.098356 0.134495
H54   H     H_    0.069002 0.428329 0.020326 0.133365
H55   H     H_    0.880500 0.755880 0.643518 0.141378
H56   H     H_    0.939247 0.571670 0.901644 0.134420
H57   H     H_    0.536980 0.529006 0.961064 0.133511
H58   H     H_    0.463858 0.470397 0.034742 0.142717
H59   H     H_    0.463752 0.527443 0.036192 0.133189
H60   H     H_    0.537451 0.471967 0.960169 0.150195
H61   H     H_    0.026840 0.028242 0.950105 0.133489
H62   H     H_    0.973231 0.971217 0.049939 0.157280
H63   H     H_    0.973151 0.028247 0.049888 0.133461
H64   H     H_    0.026758 0.971213 0.950056 0.157332
H65   H     H_    0.816926 0.211749 0.556470 0.143480
H66   H     H_    0.380517 0.744022 0.643536 0.142369
H67   H     H_    0.183105 0.788237 0.443515 0.142405
H68   H     H_    0.183064 0.211763 0.443529 0.143466
H69   H     H_    0.816890 0.788243 0.556491 0.142440
H70   H     H_    0.316906 0.711733 0.556472 0.143572
H71   H     H_    0.683072 0.288216 0.443520 0.142229
H72   H     H_    0.683088 0.711740 0.443523 0.143401
H73   H     H_    0.316910 0.288236 0.556481 0.143768
H74   H     H_    0.583667 0.652408 0.117089 0.057140
H75   H     H_    0.408928 0.344066 0.900085 0.056073
H76   H     H_    0.415724 0.652779 0.883020 0.056546
H77   H     H_    0.619487 0.255860 0.356476 0.141473
H78   H     H_    0.579279 0.345070 0.117972 0.053050
H79   H     H_    0.086030 0.153063 0.114392 0.055513
H80   H     H_    0.919171 0.843969 0.884200 0.051616
H81   H     H_    0.913970 0.153064 0.885603 0.055609
H82   H     H_    0.080828 0.843970 0.115795 0.051569
H83   H     H_    0.572277 0.571565 0.156739 0.142022
H84   H     H_    0.381655 0.424329 0.867594 0.087594
H85   H     H_    0.427366 0.572385 0.841545 0.138690
H86   H     H_    0.590432 0.457581 0.100282 0.079855
H87   H     H_    0.080549 0.072185 0.158171 0.141698
H88   H     H_    0.619478 0.744028 0.356461 0.142380
H89   H     H_    0.911868 0.957620 0.894477 0.092626
H90   H     H_    0.919446 0.072185 0.841822 0.141710
H91   H     H_    0.088119 0.957624 0.105523 0.092630
H92   H     H_    0.577976 0.972001 0.069864 0.134258
H93   H     H_    0.422304 0.027998 0.927479 0.134340
H94   H     H_    0.422024 0.972001 0.930135 0.134252
H95   H     H_    0.577696 0.027998 0.072520 0.134363
H96   H     H_    0.077696 0.472002 0.072521 0.134218
H97   H     H_    0.922024 0.527999 0.930136 0.134243
H98   H     H_    0.922304 0.472002 0.927480 0.134366
H99   H     H_    0.380498 0.255879 0.643518 0.141664
H100  H     H_    0.077976 0.527999 0.069865 0.134035
H101  H     H_    0.320263 0.224309 0.093854 0.152593
H102  H     H_    0.677726 0.771687 0.902132 0.154409
H103  H     H_    0.679201 0.225323 0.905076 0.152766
H104  H     H_    0.321491 0.773369 0.096308 0.154328
H105  H     H_    0.822250 0.728338 0.097817 0.152961
H106  H     H_    0.179724 0.275703 0.906118 0.152592
H107  H     H_    0.178532 0.726656 0.903742 0.152788
H108  H     H_    0.820820 0.274699 0.094967 0.153813
H109  H     H_    0.755206 0.670028 0.017167 0.060067
H110  H     H_    0.935922 0.243385 0.756419 0.158931
H111  H     H_    0.251526 0.330430 0.996254 0.058544
H112  H     H_    0.247578 0.669778 0.988377 0.059829
H113  H     H_    0.750194 0.330377 0.007193 0.058862
H114  H     H_    0.248465 0.169583 0.003721 0.059193
H115  H     H_    0.744779 0.829998 0.982788 0.060306
H116  H     H_    0.749818 0.169647 0.992846 0.059060
H117  H     H_    0.252436 0.830247 0.011667 0.060375
H118  H     H_    0.770105 0.781586 0.086434 0.158358
H119  H     H_    0.227382 0.222161 0.908546 0.158443
H120  H     H_    0.228825 0.780072 0.911435 0.158486
O1    O     O_3   0.500000 0.250020 0.000000 -0.485430
O2    O     O_R   0.899640 0.268150 0.963690 -0.645871
O3    O     O_R   0.899640 0.731850 0.963690 -0.642628
O4    O     O_R   0.100360 0.268150 0.036310 -0.646151
O5    O     O_R   0.452240 0.268200 0.861400 -0.624732
O6    O     O_R   0.547760 0.731800 0.138600 -0.623780
O7    O     O_R   0.547760 0.268200 0.138600 -0.632341
O8    O     O_R   0.452240 0.731800 0.861400 -0.623486
O9    O     O_R   0.952240 0.768200 0.861400 -0.632006
O10   O     O_R   0.047760 0.231800 0.138600 -0.623845
O11   O     O_R   0.047760 0.768200 0.138600 -0.632107
O12   O     O_3   0.500000 0.749980 0.000000 -0.487515
O13   O     O_R   0.952240 0.231800 0.861400 -0.623810
O14   O     O_R   0.503360 0.319320 0.963650 -0.612417
O15   O     O_R   0.496640 0.680680 0.036350 -0.624638
O16   O     O_R   0.496640 0.319320 0.036350 -0.645821
O17   O     O_R   0.503360 0.680680 0.963650 -0.623864
O18   O     O_R   0.003360 0.819320 0.963650 -0.632291
O19   O     O_R   0.996640 0.180680 0.036350 -0.623870
O20   O     O_R   0.996640 0.819320 0.036350 -0.632425
O21   O     O_R   0.003360 0.180680 0.963650 -0.623835
O22   O     O_R   0.539730 0.180720 0.036330 -0.638229
O23   O     O_3   1.000000 0.750020 0.000000 -0.483967
O24   O     O_R   0.460270 0.819280 0.963670 -0.638127
O25   O     O_R   0.460270 0.180720 0.963670 -0.638082
O26   O     O_R   0.539730 0.819280 0.036330 -0.638146
O27   O     O_R   0.039730 0.680720 0.036330 -0.638486
O28   O     O_R   0.960270 0.319280 0.963670 -0.638010
O29   O     O_R   0.960270 0.680720 0.963670 -0.638435
O30   O     O_R   0.039730 0.319280 0.036330 -0.638041
O31   O     O_R   0.409160 0.231870 0.861420 -0.651381
O32   O     O_R   0.590840 0.768130 0.138580 -0.653051
O33   O     O_R   0.590840 0.231870 0.138580 -0.648768
O34   O     O_3   0.000000 0.249980 0.000000 -0.487658
O35   O     O_R   0.409160 0.768130 0.861420 -0.653171
O36   O     O_R   0.909160 0.731870 0.861420 -0.651804
O37   O     O_R   0.090840 0.268130 0.138580 -0.650639
O38   O     O_R   0.090840 0.731870 0.138580 -0.651770
O39   O     O_R   0.909160 0.268130 0.861420 -0.650673
O40   O     O_R   0.564010 0.268190 0.963640 -0.619215
O41   O     O_R   0.435990 0.731810 0.036360 -0.620017
O42   O     O_R   0.435990 0.268190 0.036360 -0.621816
O43   O     O_R   0.564010 0.731810 0.963640 -0.620435
O44   O     O_R   0.064010 0.768190 0.963640 -0.620497
O45   O     O_R   0.600360 0.231850 0.036310 -0.646136
O46   O     O_R   0.935990 0.231810 0.036360 -0.619530
O47   O     O_R   0.935990 0.768190 0.036360 -0.621024
O48   O     O_R   0.064010 0.231810 0.963640 -0.619232
O49   O     O_2   0.568094 0.626762 0.160797 -0.573544
O50   O     O_2   0.399132 0.373999 0.839515 -0.553536
O51   O     O_2   0.430994 0.627638 0.838452 -0.572976
O52   O     O_2   0.624263 0.375975 0.127506 -0.520000
O53   O     O_2   0.074453 0.127159 0.162019 -0.573712
O54   O     O_2   0.875407 0.876726 0.872212 -0.520646
O55   O     O_2   0.925551 0.127158 0.837978 -0.573630
O56   O     O_R   0.399640 0.768150 0.963690 -0.643200
O57   O     O_2   0.124589 0.876733 0.127797 -0.520952
O58   O     O_2   0.588883 0.543203 0.117706 -0.563310
O59   O     O_2   0.421498 0.457750 0.872129 -0.519436
O60   O     O_2   0.411043 0.543461 0.880172 -0.527250
O61   O     O_2   0.597666 0.426683 0.157815 -0.517593
O62   O     O_2   0.092402 0.043579 0.114340 -0.559200
O63   O     O_2   0.903584 0.924991 0.838797 -0.521594
O64   O     O_2   0.907592 0.043581 0.885652 -0.559157
O65   O     O_2   0.096403 0.924996 0.161202 -0.521675
O66   O     O_2   0.700434 0.681562 0.014746 -0.545590
O67   O     O_R   0.399640 0.231850 0.963690 -0.645020
O68   O     O_2   0.305317 0.318829 0.996716 -0.550280
O69   O     O_2   0.301949 0.681350 0.989996 -0.545689
O70   O     O_2   0.696160 0.318783 0.006244 -0.536119
O71   O     O_2   0.194665 0.181182 0.003242 -0.544841
O72   O     O_2   0.799538 0.818459 0.985182 -0.537432
O73   O     O_2   0.803864 0.181236 0.993819 -0.544969
O74   O     O_2   0.198080 0.818671 0.010075 -0.537547
O75   O     O_2   0.766390 0.259125 0.733615 -0.562057
O76   O     O_2   0.233608 0.740926 0.266361 -0.559701
O77   O     O_2   0.233610 0.259135 0.266396 -0.562367
O78   O     O_R   0.600360 0.768150 0.036310 -0.643018
O79   O     O_2   0.766391 0.740930 0.733644 -0.559440
O80   O     O_2   0.266401 0.759206 0.733606 -0.562329
O81   O     O_2   0.733617 0.240972 0.266367 -0.559926
O82   O     O_2   0.733599 0.759216 0.266401 -0.562047
O83   O     O_2   0.266383 0.240979 0.733646 -0.562316
O84   O     O_R   0.100360 0.731850 0.036310 -0.642908
Zn1   Zn    Zn3+2 0.443260 0.224070 0.948090 0.974777
Zn2   Zn    Zn3+2 0.495180 0.724020 0.051930 1.001457
Zn3   Zn    Zn3+2 0.495180 0.275980 0.051930 0.983711
Zn4   Zn    Zn3+2 0.504820 0.724020 0.948070 1.001791
Zn5   Zn    Zn3+2 0.004820 0.775980 0.948070 0.992346
Zn6   Zn    Zn3+2 0.995180 0.224020 0.051930 1.001582
Zn7   Zn    Zn3+2 0.995180 0.775980 0.051930 0.991964
Zn8   Zn    Zn3+2 0.004820 0.224020 0.948070 1.001676
Zn9   Zn    Zn3+2 0.556740 0.775930 0.051910 0.974572
Zn10  Zn    Zn3+2 0.556740 0.224070 0.051910 0.976628
Zn11  Zn    Zn3+2 0.443260 0.775930 0.948090 0.974364
Zn12  Zn    Zn3+2 0.943260 0.724070 0.948090 0.976830
Zn13  Zn    Zn3+2 0.056740 0.275930 0.051910 0.974050
Zn14  Zn    Zn3+2 0.056740 0.724070 0.051910 0.976602
Zn15  Zn    Zn3+2 0.943260 0.275930 0.948090 0.974316
Zn16  Zn    Zn3+2 0.504820 0.275980 0.948070 1.006730

loop_
_geom_bond_atom_site_label_1
_geom_bond_atom_site_label_2
_ccdc_geom_bond_type
C193  C220  T    
C187  C213  S    
C42   C245  A    
C89   C148  S    
C48   H70   S    
C205  O46   A    
C198  C216  S    
C154  O71   D    
C186  H102  S    
C163  O80   D    
C234  O37   A    
C189  C203  S    
C36   C235  S    
C132  H74   S    
C211  C220  S    
C100  H39   S    
O39   Zn15  S    
C156  H116  S    
O7    Zn3   S    
C50   C59   A    
C52   H30   S    
O37   Zn13  S    
C144  H86   S    
C125  C146  A    
C54   C63   A    
C78   O14   A    
C87   C94   A    
C227  O4    A    
C163  C242  S    
C3    C241  A    
C4    C242  A    
C89   C94   A    
C152  H112  S    
C108  C131  A    
C80   O17   A    
C247  H18   S    
C44   C53   A    
C85   C92   A    
C82   C174  S    
C11   C67   S    
C164  H14   S    
C98   C131  S    
C165  H15   S    
C208  C217  S    
C166  H16   S    
C4    C12   A    
C246  H17   S    
C98   O27   A    
C212  C221  S    
C39   C242  A    
C206  C214  S    
C184  C218  S    
C88   C95   A    
C153  H113  S    
C21   H66   S    
C159  H8    S    
C141  O58   D    
O27   Zn14  S    
C74   C137  S    
C11   C20   A    
C90   C238  A    
C41   C244  A    
C45   C69   A    
C145  O62   D    
C91   C149  S    
C191  H107  S    
O67   Zn1   S    
C151  H111  S    
C176  C212  S    
C142  O59   D    
C191  C206  S    
C70   C171  A    
C45   H68   S    
C34   C236  S    
C32   H28   S    
C50   H72   S    
C213  C222  S    
O78   Zn9   S    
O47   Zn7   S    
C84   C142  S    
C135  C146  A    
C79   C120  S    
C137  O53   D    
C192  C204  S    
C5    C243  A    
C162  C241  S    
C194  O44   A    
O18   Zn5   S    
C168  C169  A    
C146  H59   S    
C19   H44   S    
C114  H51   S    
C190  C217  S    
C81   C175  S    
C16   C25   A    
C77   C91   A    
C188  C214  S    
C3    H20   S    
O45   Zn10  S    
C93   C123  S    
C75   C138  S    
C142  H84   S    
C57   C113  A    
O21   Zn8   S    
C23   H88   S    
C180  C202  S    
C101  C122  S    
C52   C61   A    
O1    Zn10  S    
C234  O10   A    
C82   O19   A    
O14   Zn16  S    
C209  H7    S    
C8    C17   A    
C176  C189  S    
C43   C66   A    
C12   C21   A    
C162  O79   D    
O8    Zn4   S    
C35   C113  A    
C84   C93   A    
C9    C65   S    
C25   H99   S    
O17   Zn4   S    
C3    C11   A    
O36   Zn12  S    
C10   C69   S    
C184  C188  S    
C166  O83   D    
O1    Zn1   S    
C164  O81   D    
C34   C237  A    
C164  C243  S    
C218  C226  S    
O23   Zn12  S    
C183  O78   A    
C115  C121  A    
C35   H96   S    
C77   C140  S    
C202  C211  S    
C92   C125  S    
C38   C233  S    
C149  O65   D    
C72   C85   A    
C107  H46   S    
C161  C240  S    
C94   C127  S    
C59   H37   S    
C232  O35   A    
C5    H22   S    
C56   H35   S    
C126  C170  A    
C33   C42   A    
C239  C247  A    
C74   C174  A    
C43   C52   A    
C151  C177  S    
C28   H13   S    
C111  C119  A    
C208  H4    S    
C102  H40   S    
C160  H9    S    
C99   O30   A    
C59   C67   A    
C147  H89   S    
C194  C200  S    
C165  O82   D    
C138  H80   S    
C117  H54   S    
C47   H69   S    
C206  H120  S    
C32   C41   A    
C185  C211  S    
C140  H82   S    
C74   C87   A    
C76   C89   A    
O84   Zn14  S    
C36   C239  A    
C1    O45   A    
C182  C219  S    
C55   C64   A    
C233  O36   A    
C6    C244  A    
C81   O18   A    
C181  C203  S    
C97   C128  S    
C151  O68   D    
C108  H47   S    
O31   Zn1   S    
C46   C101  A    
C83   C141  S    
C156  C182  S    
C190  C202  S    
O23   Zn7   S    
C123  C157  A    
C210  C219  S    
C123  C135  A    
C105  H43   S    
O4    Zn13  S    
C49   H71   S    
C86   C93   A    
C24   C79   A    
C48   C62   A    
C111  H50   S    
C70   C132  S    
O1    Zn3   S    
C200  C226  T    
C156  O73   D    
O35   Zn11  S    
C19   C28   A    
C229  O31   A    
C16   C63   S    
O25   Zn1   S    
C148  H90   S    
O46   Zn6   S    
C112  O56   A    
C106  H45   S    
O32   Zn9   S    
C139  H81   S    
C76   C139  S    
C4    H21   S    
C38   C241  A    
C132  O49   D    
C71   C173  A    
C177  C190  S    
C6    H23   S    
C100  C128  A    
C105  C115  A    
O1    Zn16  S    
C197  C223  T    
C13   H94   S    
C143  O60   D    
O24   Zn11  S    
C181  C186  S    
C155  C181  S    
C105  C130  A    
C127  C169  A    
C7    C245  A    
O30   Zn13  S    
C177  C208  S    
O11   Zn7   S    
C150  O66   D    
C14   C22   A    
C76   C174  A    
O9    Zn5   S    
C39   C232  S    
O12   Zn11  S    
C183  O43   A    
C95   C126  S    
C18   H33   S    
C199  C227  S    
C60   C69   A    
C188  H104  S    
C17   H1    S    
C30   C39   A    
C168  H62   S    
C231  O7    A    
C214  C223  S    
C91   C95   A    
C205  O2    A    
C9    C18   A    
C100  C109  A    
O23   Zn14  S    
C113  C121  S    
C41   C230  S    
C161  O77   D    
C96   O25   A    
C201  C205  S    
C96   C129  S    
C203  H118  S    
C51   C60   A    
C192  C219  S    
C189  H105  S    
O43   Zn4   S    
C135  H58   S    
C25   C33   A    
C161  H10   S    
C153  C179  S    
C160  C239  S    
C186  C212  S    
C13   C90   A    
C136  H78   S    
C31   H27   S    
C215  C224  S    
C85   C143  S    
O34   Zn15  S    
C86   C144  S    
O23   Zn5   S    
C248  H19   S    
C227  O48   A    
C139  O55   D    
C179  C210  S    
C143  H85   S    
C116  C122  A    
C182  C204  S    
O38   Zn14  S    
C172  O67   A    
C180  C217  S    
C126  C168  A    
C112  O41   A    
C98   O29   A    
C99   O28   A    
C160  O76   D    
C204  C213  S    
C97   O26   A    
C184  C206  S    
C31   C40   A    
C103  C111  A    
O33   Zn10  S    
O34   Zn8   S    
C2    C79   A    
C189  C215  S    
C204  H3    S    
C232  O8    A    
C78   C173  S    
C183  C195  S    
C15   C64   S    
C80   O15   A    
C235  O11   A    
C154  H114  S    
C8    C246  A    
O3    Zn12  S    
C26   H110  S    
C29   H24   S    
C185  C208  S    
C172  C193  S    
C150  H109  S    
C216  O3    A    
C107  C130  A    
C191  C218  S    
C68   H100  S    
O26   Zn9   S    
C106  C131  A    
C24   H95   S    
C49   C61   A    
C178  C214  S    
C75   C175  A    
C72   C171  A    
C51   C63   A    
C169  H63   S    
C37   C240  A    
O41   Zn2   S    
C97   O24   A    
C170  H64   S    
C154  C180  S    
C190  H106  S    
C106  C116  A    
C115  H52   S    
O2    Zn15  S    
C144  O61   D    
C194  O84   A    
C71   C133  S    
C140  O57   D    
C188  C209  S    
C72   C134  S    
C230  O6    A    
C73   C136  S    
C10   C19   A    
C172  O42   A    
C124  C157  A    
C179  C213  S    
C207  C215  S    
C181  C215  S    
C68   C101  A    
C40   C231  S    
C70   C83   A    
C5    C14   A    
C148  O64   D    
C7    C16   A    
C162  H11   S    
C30   H26   S    
C102  C110  A    
C17   C26   A    
C44   H67   S    
O15   Zn2   S    
C112  C197  S    
O34   Zn13  S    
C109  C119  A    
C1    O40   A    
C195  C221  T    
C202  H119  S    
C53   H31   S    
O20   Zn7   S    
C87   C145  S    
C99   C130  S    
O5    Zn16  S    
C238  H92   S    
C155  H115  S    
C27   C36   A    
C21   C30   A    
C22   H77   S    
C23   C32   A    
O16   Zn3   S    
C233  O9    A    
O34   Zn6   S    
O10   Zn6   S    
C116  H53   S    
C44   C65   A    
C88   C147  S    
C237  C246  A    
C9    C247  A    
C40   C243  A    
C103  H41   S    
C57   H98   S    
C81   O20   A    
C141  H83   S    
C240  C248  A    
C80   C171  S    
C235  O38   A    
C158  C184  S    
C107  C117  A    
C114  C120  A    
C137  H79   S    
O28   Zn15  S    
C201  C228  T    
C150  C176  S    
C155  O72   D    
O13   Zn8   S    
C8    C66   S    
O42   Zn3   S    
O12   Zn9   S    
C50   C64   A    
C198  C224  T    
C102  C129  A    
C229  O5    A    
C37   C234  S    
C33   H29   S    
C83   C92   A    
C167  H61   S    
C230  O32   A    
C186  C207  S    
C209  C218  S    
C28   C37   A    
C176  C207  S    
C27   H2    S    
C118  C122  A    
O22   Zn10  S    
C56   C65   A    
C110  H49   S    
O12   Zn2   S    
C192  H108  S    
C12   C62   S    
C136  O52   D    
C2    C13   A    
O19   Zn6   S    
C117  C121  A    
C210  H6    S    
O29   Zn12  S    
C6    C15   A    
C58   C66   A    
C179  C192  S    
C157  H60   S    
C55   H34   S    
C236  O39   A    
C138  O54   D    
C15   C23   A    
O40   Zn16  S    
C77   C175  A    
C152  C178  S    
C124  H57   S    
O44   Zn5   S    
C47   C67   A    
C26   C34   A    
C167  C170  A    
C20   C29   A    
C104  H42   S    
C20   H55   S    
C22   C31   A    
C43   H65   S    
C108  C118  A    
C145  H87   S    
C1    C196  S    
C153  O70   D    
C231  O33   A    
C110  C120  A    
C152  O69   D    
C14   C61   S    
C163  H12   S    
C49   C58   A    
C149  H91   S    
C178  C209  S    
C29   C38   A    
C236  O13   A    
C53   C62   A    
C187  C210  S    
C78   O16   A    
C133  O50   D    
C134  H76   S    
C159  C237  S    
O56   Zn11  S    
C118  H56   S    
C165  C244  S    
C185  H101  S    
C103  C128  A    
C199  C225  T    
C187  H103  S    
C104  C114  A    
C45   C54   A    
C46   C57   A    
C219  C228  S    
C147  O63   D    
C203  C212  S    
C10   C248  A    
C158  H117  S    
O6    Zn2   S    
C24   C238  A    
C134  O51   D    
C2    H93   S    
C47   C55   A    
C71   C84   A    
C51   H73   S    
C159  O75   D    
C48   C56   A    
C54   H32   S    
C166  C245  S    
C18   C27   A    
C7    H25   S    
O48   Zn8   S    
C109  H48   S    
O12   Zn4   S    
C133  H75   S    
C104  C129  A    
C90   C119  S    
C177  C211  S    
C207  H5    S    
C42   C229  S    
C178  C191  S    
C58   H36   S    
C35   C68   A    
C82   O21   A    
C158  O74   D    
C60   H38   S    
C182  C187  S    
C73   C173  A    
C73   C86   A    
C180  C185  S    
C75   C88   A    
C127  C167  A    
C216  O47   A    
C217  C225  S    
C96   O22   A    
C46   H97   S    
C196  C222  T    
C124  C125  A    
