data_mof_unit_56977.cif
_audit_creation_date              2012-10-26T20:36:07-0400
_audit_creation_method            fapswitch 2.2
_symmetry_space_group_name_H-M    P1
_symmetry_Int_Tables_number       1
_space_group_crystal_system       triclinic
_cell_length_a                    10.835188
_cell_length_b                    15.7539
_cell_length_c                    17.062287
_cell_angle_alpha                 96.25039
_cell_angle_beta                  89.021112
_cell_angle_gamma                 92.461316
_cell_volume                      2892.26250391

loop_
_atom_site_label
_atom_site_type_symbol
_atom_type_description
_atom_site_fract_x
_atom_site_fract_y
_atom_site_fract_z
_atom_type_partial_charge
C1    C     C_R   0.496912 0.489802 0.348561 0.657618
C2    C     C_R   0.554678 0.498994 0.898679 0.148286
C3    C     C_R   0.586900 0.473670 0.134062 -0.092220
C4    C     C_R   0.623794 0.558118 0.859763 -0.093049
C5    C     C_R   0.591732 0.466346 0.214375 0.180183
C6    C     C_R   0.607594 0.564237 0.779770 0.190055
C7    C     C_R   0.424301 0.749454 0.472722 0.031772
C8    C     C_R   0.569388 0.251017 0.532823 0.051530
C9    C     C_R   0.428548 0.837812 0.465801 0.235536
C10   C     C_R   0.564431 0.162477 0.538578 0.241372
C11   C     C_R   0.528916 0.889315 0.499829 0.218470
C12   C     C_R   0.503241 0.510182 0.651860 0.651249
C13   C     C_R   0.470341 0.110658 0.497978 0.223294
C14   C     C_R   0.621746 0.848638 0.536268 -0.145919
C15   C     C_R   0.384201 0.150800 0.455363 -0.139099
C16   C     C_R   0.261938 0.500798 0.509405 0.641050
C17   C     C_R   0.737800 0.498978 0.489971 0.596665
C18   C     C_R   0.613467 0.760168 0.540547 0.028163
C19   C     C_R   0.393344 0.239400 0.451751 0.009499
C20   C     C_R   0.102572 0.345917 0.533430 -0.073397
C21   C     C_R   0.897770 0.651878 0.462027 -0.039120
C22   C     C_R   0.040358 0.267365 0.514780 -0.085694
C23   C     C_R   0.487529 0.485853 0.262458 -0.058532
C24   C     C_R   0.959363 0.730613 0.481446 -0.079993
C25   C     C_R   0.930152 0.263434 0.474257 -0.090719
C26   C     C_R   0.067761 0.734895 0.524154 -0.074401
C27   C     C_R   0.877450 0.338609 0.458274 -0.064216
C28   C     C_R   0.120206 0.659878 0.541050 -0.072333
C29   C     C_R   0.934171 0.419731 0.483063 0.033288
C30   C     C_R   0.064846 0.578806 0.514879 0.036016
C31   C     C_R   0.055655 0.422540 0.511480 0.016830
C32   C     C_R   0.944154 0.575788 0.485315 0.056259
C33   C     C_R   0.873806 0.497441 0.479805 0.031496
C34   C     C_R   0.512882 0.513423 0.738651 -0.046881
C35   C     C_R   0.125601 0.501342 0.518074 0.009487
C36   C     C_R   0.377470 0.510305 0.228703 0.121837
C37   C     C_R   0.436235 0.457012 0.779902 0.174323
C38   C     C_R   0.379887 0.528319 0.149010 0.241304
C39   C     C_R   0.466647 0.443184 0.857694 0.258245
C40   C     C_R   0.483042 0.505920 0.100975 0.150060
Cu1   Cu    Cu3+1 0.493970 0.415220 0.496180 1.066849
Cu2   Cu    Cu3+1 0.506030 0.584780 0.503820 1.071390
H1    H     H_    0.079054 0.209382 0.530502 0.159014
H2    H     H_    0.309330 0.113457 0.425438 0.162152
H3    H     H_    0.687540 0.729863 0.566928 0.191845
H4    H     H_    0.325625 0.269546 0.419372 0.152324
H5    H     H_    0.185824 0.345659 0.566955 0.202433
H6    H     H_    0.815059 0.651219 0.427379 0.164732
H7    H     H_    0.793733 0.331729 0.424606 0.192811
H8    H     H_    0.202269 0.666461 0.576670 0.150305
H9    H     H_    0.147279 0.474644 0.684594 0.364720
H10   H     H_    0.239831 0.374742 0.301579 0.338336
H11   H     H_    0.465412 0.281462 0.995802 0.377192
H12   H     H_    0.921241 0.788482 0.465037 0.140788
H13   H     H_    0.242441 0.661507 0.012918 0.383433
H14   H     H_    0.905527 0.388037 0.206628 0.400717
H15   H     H_    0.873956 0.713244 0.766367 0.378791
H16   H     H_    0.638952 0.291520 0.564674 0.172523
H17   H     H_    0.350223 0.709451 0.445424 0.198513
H18   H     H_    0.665763 0.455461 0.097318 0.233181
H19   H     H_    0.691991 0.599049 0.892701 0.217726
H20   H     H_    0.112585 0.796246 0.543033 0.176373
H21   H     H_    0.884095 0.202211 0.456424 0.167654
H22   H     H_    0.661459 0.024003 0.681552 0.379666
H23   H     H_    0.157595 0.958023 0.433470 0.370522
H24   H     H_    0.701531 0.885464 0.560589 0.161895
N1    N     N_2   0.475347 0.510969 0.018547 -0.091615
N2    N     N_2   0.573071 0.498204 0.980291 -0.179407
N3    N     N_R   0.515100 0.712130 0.509560 -0.276070
N4    N     N_R   0.484900 0.287870 0.490440 -0.264619
N5    N     N_2   0.546809 0.979004 0.493172 -0.129888
N6    N     N_2   0.451633 0.021063 0.504260 -0.097565
O1    O     O_R   0.494360 0.420530 0.382500 -0.455306
O2    O     O_2   0.730606 0.192613 0.655074 -0.243588
O3    O     O_3   0.595401 0.052567 0.656284 -0.458170
O4    O     O_2   0.374105 0.935074 0.352466 -0.236634
O5    O     O_2   0.242332 0.806268 0.362359 -0.231895
O6    O     O_3   0.216098 0.935019 0.468989 -0.530017
O7    O     O_2   0.319337 0.330947 0.687261 -0.238932
O8    O     O_2   0.200659 0.396480 0.799803 -0.174873
O9    O     O_3   0.238219 0.483327 0.681280 -0.584240
O10   O     O_2   0.229791 0.590642 0.338307 -0.214940
O11   O     O_2   0.124548 0.497554 0.233896 -0.174876
O12   O     O_R   0.505640 0.579470 0.617500 -0.436974
O13   O     O_3   0.234551 0.426385 0.339972 -0.537025
O14   O     O_2   0.291225 0.375790 0.948337 -0.189057
O15   O     O_2   0.377939 0.278724 0.841059 -0.161356
O16   O     O_3   0.511424 0.321818 0.964230 -0.487780
O17   O     O_2   0.163193 0.519405 0.074351 -0.179621
O18   O     O_2   0.202177 0.644569 0.171173 -0.160933
O19   O     O_3   0.316085 0.640059 0.036800 -0.480966
O20   O     O_2   0.782074 0.501822 0.311224 -0.295625
O21   O     O_2   0.701166 0.353160 0.292536 -0.296049
O22   O     O_3   0.834724 0.410139 0.180246 -0.454874
O23   O     O_R   0.504550 0.563720 0.388950 -0.485532
O24   O     O_2   0.765271 0.591908 0.661418 -0.305188
O25   O     O_2   0.636181 0.709960 0.714080 -0.267530
O26   O     O_3   0.822277 0.674399 0.796489 -0.493073
O27   O     O_R   0.495450 0.436280 0.611050 -0.470671
O28   O     O_R   0.314560 0.428400 0.496770 -0.489120
O29   O     O_R   0.685440 0.571600 0.503230 -0.504713
O30   O     O_R   0.324750 0.571590 0.503220 -0.515113
O31   O     O_R   0.675250 0.428410 0.496780 -0.532881
O32   O     O_2   0.767965 0.075609 0.551837 -0.301062
S1    S     S_3+6 0.670179 0.121393 0.601378 0.042492
S2    S     S_3+6 0.313934 0.878243 0.408625 0.032902
S3    S     S_3+6 0.295293 0.413239 0.737297 0.074911
S4    S     S_3+6 0.236894 0.508592 0.284939 0.078296
S5    S     S_3+6 0.406777 0.352501 0.902383 0.137848
S6    S     S_3+6 0.259823 0.583513 0.108614 0.143134
S7    S     S_3+6 0.729737 0.432190 0.252566 0.037122
S8    S     S_3+6 0.708552 0.636447 0.734724 0.026876

loop_
_geom_bond_atom_site_label_1
_geom_bond_atom_site_label_2
_ccdc_geom_bond_type
C30   C32   A    
O9    S3    S    
C27   C29   A    
C34   C37   A    
Cu1   Cu2   S    
C14   C18   A    
Cu1   O31   S    
C10   S1    S    
C19   H4    S    
C26   C28   A    
H14   O22   S    
O24   S8    D    
O8    S3    D    
C30   C35   A    
O19   S6    S    
O5    S2    D    
C24   C26   A    
C15   H2    S    
C37   S3    S    
C2    N2    S    
C16   C35   S    
C11   C14   A    
C11   N5    S    
C36   S4    S    
C24   H12   S    
C29   C33   A    
O22   S7    S    
O11   S4    D    
C12   O12   A    
C25   H21   S    
C17   O29   A    
C12   O27   A    
H13   O19   S    
C8    H16   S    
C15   C19   A    
C28   H8    S    
C2    C39   A    
C22   C25   A    
Cu1   O27   S    
O10   S4    D    
C38   S6    S    
O13   S4    S    
H9    O9    S    
C21   H6    S    
C3    H18   S    
C18   N3    A    
C17   C33   S    
Cu2   O29   S    
Cu2   O30   S    
C7    H17   S    
O32   S1    D    
C21   C32   A    
O26   S8    S    
N1    N2    D    
O14   S5    D    
Cu2   O12   S    
C4    C6    A    
O25   S8    D    
C16   O28   A    
C5    S7    S    
C9    S2    S    
O17   S6    D    
C40   N1    S    
Cu2   N3    S    
Cu2   O23   S    
C2    C4    A    
C22   H1    S    
C5    C23   A    
C1    O23   A    
C14   H24   S    
Cu1   O28   S    
O7    S3    D    
C9    C11   A    
O21   S7    D    
O16   S5    S    
C16   O30   A    
C20   C22   A    
C3    C40   A    
C1    C23   S    
C13   C15   A    
C31   C35   A    
O18   S6    D    
C12   C34   S    
C18   H3    S    
C7    C9    A    
H10   O13   S    
O4    S2    D    
H23   O6    S    
C6    S8    S    
C8    C10   A    
C3    C5    A    
C10   C13   A    
C7    N3    A    
O20   S7    D    
O3    S1    S    
O15   S5    D    
C13   N6    S    
C25   C27   A    
C8    N4    A    
O6    S2    S    
C1    O1    A    
C32   C33   A    
C36   C38   A    
C17   O31   A    
N5    N6    D    
C37   C39   A    
O2    S1    D    
C38   C40   A    
H15   O26   S    
C4    H19   S    
C28   C30   A    
H22   O3    S    
H11   O16   S    
C26   H20   S    
C20   H5    S    
Cu1   O1    S    
C6    C34   A    
C39   S5    S    
C29   C31   A    
C23   C36   A    
C21   C24   A    
C19   N4    A    
C27   H7    S    
Cu1   N4    S    
C20   C31   A    
