data_mof_unit_17042.cif
_audit_creation_date              2012-12-11T17:23:11-0500
_audit_creation_method            fapswitch 2.2
_symmetry_space_group_name_H-M    P1
_symmetry_Int_Tables_number       1
_space_group_crystal_system       triclinic
_cell_length_a                    22.403299
_cell_length_b                    7.096954
_cell_length_c                    19.386842
_cell_angle_alpha                 90.000558
_cell_angle_beta                  99.64657
_cell_angle_gamma                 89.999952
_cell_volume                      3038.82963871

loop_
_atom_site_label
_atom_site_type_symbol
_atom_type_description
_atom_site_fract_x
_atom_site_fract_y
_atom_site_fract_z
_atom_type_partial_charge
O1    O     O_R   0.443980 0.494320 0.557430 -0.536724
O2    O     O_R   0.556020 0.994320 0.442570 -0.536749
O3    O     O_R   0.441210 0.822520 0.414610 -0.531979
O4    O     O_R   0.558790 0.322520 0.585390 -0.532188
C1    C     C_R   0.426735 0.655621 0.388625 0.705933
C2    C     C_R   0.573275 0.155623 0.611367 0.705758
O5    O     O_R   0.436920 0.823940 0.555180 -0.534093
O6    O     O_R   0.563080 0.323940 0.444820 -0.534129
O7    O     O_R   0.551700 0.995760 0.584140 -0.539562
O8    O     O_R   0.448300 0.495760 0.415860 -0.539719
C3    C     C_R   0.421629 0.655406 0.574877 0.725936
C4    C     C_R   0.578372 0.155405 0.425124 0.725761
O9    O     O_3   0.537660 0.661290 0.509340 -0.369988
O10   O     O_3   0.462340 0.161290 0.490660 -0.369897
V1    V     V_3+5 0.493010 0.935560 0.498270 1.466604
V2    V     V_3+5 0.506990 0.435560 0.501730 1.466171
H1    H     H_    0.687921 0.825901 0.271830 0.127420
H2    H     H_    0.312133 0.325959 0.728238 0.127595
C5    C     C_R   0.757376 0.929663 0.216766 0.223623
C6    C     C_R   0.242665 0.429705 0.783285 0.221225
C7    C     C_R   0.792644 0.088266 0.203964 0.085416
C8    C     C_R   0.207375 0.588283 0.796061 0.084588
C9    C     C_R   0.783684 0.259993 0.236882 -0.173230
C10   C     C_R   0.216314 0.759987 0.763118 -0.171865
H3    H     H_    0.810188 0.382565 0.227988 0.160115
H4    H     H_    0.189796 0.882544 0.771993 0.160265
C11   C     C_R   0.740728 0.275744 0.281649 -0.125828
C12   C     C_R   0.259269 0.775736 0.718348 -0.125917
H5    H     H_    0.734758 0.410019 0.306201 0.146020
H6    H     H_    0.265221 0.909992 0.693775 0.146036
C13   C     C_R   0.705922 0.119629 0.294657 0.073796
C14   C     C_R   0.294093 0.619643 0.705363 0.073770
C15   C     C_R   0.714556 0.947553 0.262055 -0.145327
C16   C     C_R   0.285482 0.447593 0.737993 -0.145652
C17   C     C_1   0.837964 0.078995 0.157905 -0.051579
C18   C     C_1   0.162050 0.579004 0.842114 -0.052069
C19   C     C_1   0.661332 0.135160 0.341222 -0.018385
C20   C     C_1   0.338678 0.635169 0.658790 -0.018388
C21   C     C_1   0.623790 0.145832 0.379744 -0.154275
C22   C     C_1   0.376215 0.645837 0.620262 -0.154123
C23   C     C_1   0.875950 0.071115 0.119878 -0.185886
C24   C     C_1   0.124059 0.571117 0.880133 -0.185345
C25   C     C_R   0.633800 0.211740 0.803127 -0.135320
C26   C     C_R   0.366106 0.712500 0.196912 -0.138748
H7    H     H_    0.547049 0.239157 0.737913 0.110136
H8    H     H_    0.452733 0.742103 0.262224 0.110316
H9    H     H_    0.614893 0.246140 0.849417 0.149575
H10   H     H_    0.384826 0.749053 0.150693 0.151520
C27   C     C_R   0.615408 0.151550 0.678708 -0.060385
C28   C     C_R   0.384606 0.651504 0.321282 -0.059863
C29   C     C_R   0.910370 0.052714 0.760387 -0.235767
C30   C     C_R   0.089600 0.553090 0.239620 -0.235864
C31   C     C_R   0.875430 0.081304 0.695083 -0.109388
C32   C     C_R   0.124585 0.581284 0.304922 -0.109482
C33   C     C_R   0.813728 0.122446 0.688088 0.386912
C34   C     C_R   0.186339 0.621662 0.311913 0.387316
C35   C     C_R   0.784142 0.119273 0.747945 -0.012314
C36   C     C_R   0.215908 0.618179 0.252041 -0.011337
C37   C     C_R   0.821825 0.106621 0.815351 -0.008655
C38   C     C_R   0.178191 0.605925 0.184640 -0.007425
C39   C     C_R   0.719696 0.137206 0.744397 0.048390
C40   C     C_R   0.280366 0.635718 0.255562 0.048778
C41   C     C_R   0.696197 0.175929 0.806864 0.115190
C42   C     C_R   0.303862 0.674150 0.193085 0.115985
C43   C     C_R   0.734820 0.175107 0.872275 0.183924
C44   C     C_R   0.265315 0.672103 0.127643 0.186565
C45   C     C_R   0.796245 0.133458 0.875914 -0.200932
C46   C     C_R   0.203799 0.632014 0.124056 -0.200282
C47   C     C_R   0.677178 0.110535 0.681775 -0.131914
C48   C     C_R   0.322905 0.609367 0.318178 -0.132137
C49   C     C_R   0.594436 0.205448 0.739496 -0.189122
C50   C     C_R   0.405455 0.706789 0.260566 -0.189256
C51   C     C_R   0.885093 0.072383 0.820969 -0.065672
C52   C     C_R   0.114892 0.572345 0.179036 -0.065350
H11   H     H_    0.690441 0.053116 0.635249 0.171195
H12   H     H_    0.309698 0.551560 0.364677 0.171226
H13   H     H_    0.958417 0.025976 0.763857 0.131544
H14   H     H_    0.041525 0.526863 0.236158 0.131477
H15   H     H_    0.897489 0.081021 0.649449 0.170405
H16   H     H_    0.102537 0.581240 0.350563 0.170423
H17   H     H_    0.824503 0.127687 0.926979 0.102277
H18   H     H_    0.175633 0.624965 0.072957 0.101999
O11   O     O_R   0.051730 0.724670 0.084120 -0.532768
O12   O     O_R   0.948270 0.224670 0.915880 -0.533340
O13   O     O_R   0.063080 0.393540 0.944820 -0.536707
O14   O     O_R   0.936920 0.893540 0.055180 -0.536852
C53   C     C_R   0.078272 0.562092 0.925014 0.716695
C54   C     C_R   0.921730 0.062092 0.074988 0.716472
O15   O     O_R   0.058800 0.395030 0.085390 -0.536217
O16   O     O_R   0.941200 0.895030 0.914610 -0.536341
O17   O     O_R   0.943980 0.223310 0.057440 -0.534336
O18   O     O_R   0.056020 0.723310 0.942560 -0.533936
C55   C     C_R   0.073016 0.563565 0.111286 0.697045
C56   C     C_R   0.926973 0.063568 0.888719 0.696578
O19   O     O_3   0.962360 0.556290 0.990650 -0.370488
O20   O     O_3   0.037640 0.056290 0.009350 -0.369479
V3    V     V_3+5 0.006980 0.281990 0.001730 1.437235
V4    V     V_3+5 0.993020 0.781990 0.998270 1.437160
Cl1   Cl    Cl    0.781784 0.216101 0.605747 -0.665884
Cl2   Cl    Cl    0.218415 0.714673 0.394314 -0.665336
N1    N     N_3   0.763844 0.748628 0.185529 -0.687297
H19   H     H_    0.799207 0.747101 0.156698 0.235735
H20   H     H_    0.724046 0.721961 0.150314 0.226395
N2    N     N_3   0.236222 0.248697 0.814552 -0.686766
H21   H     H_    0.200855 0.247159 0.843379 0.236183
H22   H     H_    0.276022 0.222126 0.849777 0.225948
N3    N     N_3   0.711080 0.211544 0.935528 -0.676531
H23   H     H_    0.743584 0.183450 0.979685 0.231488
H24   H     H_    0.701720 0.355730 0.936672 0.226098
N4    N     N_3   0.289221 0.705406 0.064291 -0.677033
H25   H     H_    0.254240 0.720113 0.021551 0.232402
H26   H     H_    0.313686 0.585495 0.054713 0.224804

loop_
_geom_bond_atom_site_label_1
_geom_bond_atom_site_label_2
_ccdc_geom_bond_type
C36   C40   A    
C44   C46   A    
C41   C43   A    
N1    H19   S    
C11   H5    S    
C18   C24   T    
O1    C3    A    
O2    C4    A    
C2    O7    A    
N2    H22   S    
O19   V4    S    
O18   V4    S    
C26   C42   A    
O5    C3    A    
O12   V3    S    
C31   H15   S    
C10   H4    S    
C30   C52   A    
O14   C54   A    
C35   C37   A    
H7    C49   S    
C36   C38   A    
O11   C55   A    
C40   C48   A    
C38   C52   A    
C39   C41   A    
C28   C50   A    
N4    H25   S    
C40   C42   A    
C37   C45   A    
C43   C45   A    
O11   V4    S    
O20   V4    S    
N3    H23   S    
C13   C15   A    
C26   C50   A    
C9    C11   A    
C37   C51   A    
H8    C50   S    
C6    C16   A    
O5    V1    S    
N1    H20   S    
C27   C47   A    
C53   O18   A    
O15   C55   A    
N3    H24   S    
C52   C55   S    
H1    C15   S    
C51   C56   S    
C30   H14   S    
N2    H21   S    
C30   C32   A    
O16   C56   A    
O14   V4    S    
C32   H16   S    
C31   C33   A    
C43   N3    S    
C32   C34   A    
O13   C53   A    
C25   C41   A    
C29   C51   A    
C12   C14   A    
O4    C2    A    
C5    C15   A    
C11   C13   A    
O17   V3    S    
C13   C19   S    
O15   V3    S    
C29   C31   A    
C14   C16   A    
O4    V2    S    
C29   H13   S    
C54   O17   A    
O6    C4    A    
O20   V3    S    
O1    V2    S    
O12   C56   A    
C44   N4    S    
O2    V1    S    
H2    C16   S    
C6    N2    S    
C6    C8    A    
C45   H17   S    
C14   C20   S    
C33   C35   A    
C48   H12   S    
C8    C10   A    
C1    C28   S    
C34   Cl2   S    
O3    V1    S    
C39   C47   A    
C23   C54   S    
C25   C49   A    
C5    C7    A    
C10   C12   A    
O3    C1    A    
O19   V3    S    
C35   C39   A    
C7    C17   S    
C8    C18   S    
C46   H18   S    
C4    C21   S    
C7    C9    A    
O7    V1    S    
C1    O8    A    
C19   C21   T    
O8    V2    S    
C20   C22   T    
C5    N1    S    
C12   H6    S    
C34   C36   A    
C47   H11   S    
C9    H3    S    
C2    C27   S    
C28   C48   A    
C3    C22   S    
C17   C23   T    
N4    H26   S    
O13   V3    S    
C38   C46   A    
O6    V2    S    
C27   C49   A    
O9    V2    S    
C33   Cl1   S    
O10   V1    S    
C24   C53   S    
C25   H9    S    
O16   V4    S    
C26   H10   S    
C42   C44   A    
