data_mof_unit_43450.cif
_audit_creation_date              2012-12-11T14:35:58-0500
_audit_creation_method            fapswitch 2.2
_symmetry_space_group_name_H-M    P1
_symmetry_Int_Tables_number       1
_space_group_crystal_system       triclinic
_cell_length_a                    14.520946
_cell_length_b                    16.161484
_cell_length_c                    6.998853
_cell_angle_alpha                 90.400102
_cell_angle_beta                  81.258433
_cell_angle_gamma                 90.156048
_cell_volume                      1623.36984225

loop_
_atom_site_label
_atom_site_type_symbol
_atom_type_description
_atom_site_fract_x
_atom_site_fract_y
_atom_site_fract_z
_atom_type_partial_charge
O1    O     O_R   0.337460 0.413110 0.524760 -0.543177
O2    O     O_R   0.662540 0.913110 0.475240 -0.539923
O3    O     O_R   0.348690 0.587910 0.191230 -0.543859
O4    O     O_R   0.651310 0.087910 0.808770 -0.545756
O5    O     O_R   0.166530 0.586890 0.082470 -0.545140
O6    O     O_R   0.833470 0.086890 0.917530 -0.549057
C1    C     C_R   0.370346 0.616846 0.353643 0.659219
C2    C     C_R   0.633085 0.119401 0.645926 0.644803
O7    O     O_R   0.348700 0.413830 0.191250 -0.535648
O8    O     O_R   0.651300 0.913830 0.808750 -0.537900
O9    O     O_R   0.166530 0.411570 0.082490 -0.547234
O10   O     O_R   0.833470 0.911570 0.917510 -0.539754
C3    C     C_R   0.372766 0.386947 0.352811 0.757355
C4    C     C_R   0.624160 0.890218 0.646964 0.758843
O11   O     O_R   0.337460 0.588430 0.524740 -0.540551
O12   O     O_R   0.662540 0.088430 0.475260 -0.541518
O13   O     O_3   0.192230 0.499460 0.407330 -0.383871
O14   O     O_3   0.807770 0.999460 0.592670 -0.387102
V1    V     V_3+5 0.263080 0.500100 0.108540 1.395733
V2    V     V_3+5 0.736920 0.000100 0.891460 1.398054
O15   O     O_R   0.155290 0.412090 0.756570 -0.555797
O16   O     O_R   0.844710 0.912090 0.243430 -0.554853
C5    C     C_R   0.132593 0.383191 0.931073 0.660004
C6    C     C_R   0.862349 0.879522 0.070736 0.666177
O17   O     O_R   0.155290 0.586170 0.756550 -0.535110
O18   O     O_R   0.844710 0.086170 0.243450 -0.541863
C7    C     C_R   0.126142 0.609433 0.937264 0.695324
C8    C     C_R   0.869815 0.113068 0.065634 0.710997
V3    V     V_3+5 0.240910 0.499900 0.616030 1.373671
V4    V     V_3+5 0.759090 0.999900 0.383970 1.380535
O19   O     O_3   0.311760 0.500540 0.867100 -0.364600
O20   O     O_3   0.688240 0.000540 0.132900 -0.366371
C9    C     C_3   0.077223 0.741117 0.130634 -0.277278
C10   C     C_3   0.926152 0.236128 0.848588 -0.285232
H1    H     H_    0.076451 0.714927 0.275252 0.111406
H2    H     H_    0.929709 0.200967 0.712888 0.113056
H3    H     H_    0.150183 0.762335 0.085192 0.175901
H4    H     H_    0.853844 0.260831 0.874026 0.181843
C11   C     C_3   0.012270 0.817405 0.153750 -0.344384
C12   C     C_3   0.995033 0.309622 0.811414 -0.358792
H5    H     H_    0.051833 0.873028 0.094703 0.145609
H6    H     H_    0.955710 0.368720 0.826668 0.148920
H7    H     H_    0.989084 0.829781 0.310088 0.140222
H8    H     H_    0.031699 0.306531 0.660118 0.143323
C13   C     C_3   0.945054 0.640688 0.062304 0.130305
C14   C     C_3   0.049627 0.147071 0.987116 0.122735
C15   C     C_3   0.045320 0.726900 0.793525 0.207317
C16   C     C_3   0.932421 0.243233 0.200711 0.200109
C17   C     C_3   0.048874 0.676074 0.981136 0.026623
C18   C     C_3   0.944124 0.181761 0.026062 0.031754
H9    H     H_    0.031555 0.685240 0.675502 0.058483
H10   H     H_    0.941704 0.210211 0.335517 0.064624
C19   C     C_3   0.927576 0.803282 0.047053 0.012930
C20   C     C_3   0.064977 0.308982 0.956895 0.019078
C21   C     C_3   0.877724 0.719636 0.123639 -0.033432
C22   C     C_3   0.119054 0.224711 0.933403 -0.018450
C23   C     C_3   0.966986 0.792204 0.830012 -0.407673
C24   C     C_3   0.005776 0.313278 0.162538 -0.417666
H11   H     H_    0.996456 0.851584 0.779505 0.180840
H12   H     H_    0.968477 0.373183 0.176461 0.169944
H13   H     H_    0.910342 0.777590 0.744678 0.107440
H14   H     H_    0.052127 0.310206 0.274926 0.107049
H15   H     H_    0.816596 0.716530 0.045414 0.111241
H16   H     H_    0.162392 0.232641 0.049780 0.124376
H17   H     H_    0.553558 0.818579 0.356629 0.197923
H18   H     H_    0.472165 0.336926 0.624594 0.190867
H19   H     H_    0.417656 0.708366 0.644657 0.122760
H20   H     H_    0.568816 0.195715 0.352273 0.117541
C25   C     C_2   0.438556 0.686724 0.342022 0.167333
C26   C     C_2   0.573470 0.195569 0.654001 0.160360
C27   C     C_2   0.453917 0.727059 0.504148 -0.135945
C28   C     C_2   0.547832 0.226752 0.490178 -0.112328
H21   H     H_    0.517659 0.805206 0.799073 0.169295
H22   H     H_    0.459306 0.285388 0.206439 0.164838
C29   C     C_2   0.548482 0.828012 0.658023 -0.376614
C30   C     C_2   0.443809 0.320331 0.340509 -0.377876
C31   C     C_2   0.521651 0.796050 0.497122 -0.090027
C32   C     C_2   0.486430 0.300469 0.492476 -0.101990
C33   C     C_3   0.902678 0.594737 0.894504 -0.432413
C34   C     C_3   0.809318 0.545957 0.947851 -0.311220
C35   C     C_3   0.783795 0.494559 0.778785 -0.762722
H23   H     H_    0.802650 0.525915 0.638241 0.237219
H24   H     H_    0.819938 0.434040 0.770902 0.218586
H25   H     H_    0.707665 0.482149 0.801920 0.228017
H26   H     H_    0.811437 0.500059 0.063265 0.199154
H27   H     H_    0.751761 0.589743 0.997219 0.189266
H28   H     H_    0.889114 0.640152 0.786203 0.161184
H29   H     H_    0.955334 0.550911 0.826550 0.173922
C36   C     C_3   0.079110 0.112666 0.177975 -0.422066
C37   C     C_3   0.175763 0.067835 0.148392 -0.304099
C38   C     C_3   0.234968 0.084665 0.305866 -0.804454
H30   H     H_    0.241378 0.152385 0.328304 0.225648
H31   H     H_    0.205858 0.053822 0.441889 0.252432
H32   H     H_    0.305979 0.059270 0.260254 0.223836
H33   H     H_    0.166495 0.000078 0.131491 0.180621
H34   H     H_    0.219283 0.088814 0.015342 0.222384
H35   H     H_    0.082801 0.164090 0.281423 0.162633
H36   H     H_    0.023266 0.070797 0.243694 0.169196
O21   O     O_3   0.486989 0.711941 0.165902 -0.663500
H37   H     H_    0.472486 0.674420 0.062154 0.291326
O22   O     O_3   0.543549 0.235787 0.827659 -0.658491
H38   H     H_    0.568900 0.207208 0.932842 0.292084
C39   C     C_3   0.946494 0.568352 0.215003 -0.331790
C40   C     C_3   0.995602 0.569127 0.393371 -0.338253
C41   C     C_3   0.999629 0.481052 0.470242 -0.743910
H39   H     H_    0.930358 0.450933 0.492389 0.200237
H40   H     H_    0.046235 0.443740 0.366426 0.245471
H41   H     H_    0.029920 0.480017 0.604969 0.230816
H42   H     H_    0.066224 0.593964 0.370089 0.232402
H43   H     H_    0.955024 0.604608 0.507617 0.170492
H44   H     H_    0.874519 0.553184 0.277740 0.178643
H45   H     H_    0.975137 0.513218 0.130482 0.159107
C42   C     C_3   0.058420 0.067155 0.849639 -0.354054
C43   C     C_3   0.024155 0.063382 0.653340 -0.321278
C44   C     C_3   0.041558 0.976560 0.562681 -0.785689
H46   H     H_    0.093914 0.941299 0.629064 0.224433
H47   H     H_    0.974802 0.942408 0.573583 0.231959
H48   H     H_    0.069245 0.976989 0.408795 0.220131
H49   H     H_    0.949631 0.074345 0.662389 0.230698
H50   H     H_    0.058863 0.111243 0.559791 0.184105
H51   H     H_    0.132095 0.047965 0.816623 0.178227
H52   H     H_    0.022142 0.015110 0.933759 0.163109
C45   C     C_3   0.834655 0.724643 0.341529 -0.373964
C46   C     C_3   0.739968 0.680745 0.389284 -0.328727
C47   C     C_3   0.704435 0.685437 0.605435 -0.760167
H53   H     H_    0.750057 0.650814 0.686123 0.234870
H54   H     H_    0.706348 0.749565 0.659193 0.221971
H55   H     H_    0.632795 0.659820 0.637482 0.234079
H56   H     H_    0.688810 0.711680 0.310705 0.211686
H57   H     H_    0.743283 0.615090 0.344073 0.190621
H58   H     H_    0.884296 0.705089 0.434497 0.172909
H59   H     H_    0.820767 0.788712 0.389331 0.195856
C48   C     C_3   0.191585 0.216894 0.744476 -0.406633
C49   C     C_3   0.294115 0.210915 0.781548 -0.283640
C50   C     C_3   0.345070 0.136011 0.681146 -0.752394
H60   H     H_    0.301257 0.079476 0.699890 0.212309
H61   H     H_    0.365633 0.148335 0.524904 0.235252
H62   H     H_    0.408394 0.123074 0.746093 0.229750
H63   H     H_    0.330905 0.268302 0.729905 0.210650
H64   H     H_    0.301150 0.207602 0.936900 0.187548
H65   H     H_    0.176038 0.164128 0.657776 0.202343
H66   H     H_    0.186605 0.269469 0.646100 0.167563
O23   O     O_3   0.131787 0.765741 0.732922 -0.646776
H67   H     H_    0.132646 0.782442 0.596324 0.277452
O24   O     O_3   0.841880 0.276848 0.230231 -0.648315
H68   H     H_    0.832716 0.303577 0.359978 0.282369

loop_
_geom_bond_atom_site_label_1
_geom_bond_atom_site_label_2
_ccdc_geom_bond_type
C24   H14   S    
C50   H62   S    
V4    O20   S    
O22   H38   S    
C45   H59   S    
O13   V3    S    
C27   C31   S    
O4    C2    A    
V1    O19   S    
C33   H28   S    
C35   H23   S    
C26   O22   S    
C45   C46   S    
C11   H5    S    
C14   C36   S    
C11   C19   S    
O18   C8    A    
C41   H40   S    
O9    V1    S    
C48   H66   S    
C9    C11   S    
H22   C30   S    
C10   C12   S    
C30   C32   D    
C16   H10   S    
O3    C1    A    
O24   H68   S    
C40   H42   S    
C23   H11   S    
C15   C23   S    
C24   H12   S    
O23   H67   S    
C15   O23   S    
C39   H44   S    
C23   H13   S    
C25   C27   D    
O7    C3    A    
C33   H29   S    
C28   C32   S    
C13   C39   S    
O13   V1    S    
O5    C7    A    
C8    C18   S    
O7    V1    S    
O6    C8    A    
C42   H52   S    
O8    V2    S    
C44   H47   S    
C21   H15   S    
C47   H55   S    
C34   H27   S    
C22   H16   S    
O3    V1    S    
O14   V4    S    
O14   V2    S    
C43   H49   S    
C16   C18   S    
C2    O12   A    
H21   C29   S    
C22   C48   S    
C40   C41   S    
C35   H24   S    
V2    O20   S    
O11   V3    S    
C21   C45   S    
C19   C21   S    
O17   V3    S    
H18   C32   S    
C41   H41   S    
C20   C22   S    
C10   C18   S    
H17   C31   S    
C50   H60   S    
C15   C17   S    
O8    C4    A    
C49   H63   S    
C19   C23   S    
C15   H9    S    
C1    O11   A    
C6    C19   S    
O15   V3    S    
C9    H3    S    
C36   H35   S    
C39   H45   S    
C34   H26   S    
C38   H31   S    
C12   H6    S    
O21   H37   S    
C3    C30   S    
C13   C17   S    
H20   C28   S    
C44   H48   S    
C16   O24   S    
O10   V2    S    
O1    V3    S    
C46   H57   S    
C13   C33   S    
C37   H34   S    
C29   C31   D    
C25   O21   S    
O18   V4    S    
C12   C20   S    
O15   C5    A    
C47   H53   S    
O16   C6    A    
O1    C3    A    
C38   H30   S    
C35   H25   S    
C5    C20   S    
C42   C43   S    
C20   C24   S    
C50   H61   S    
C14   C18   S    
O16   V4    S    
C14   C42   S    
C45   H58   S    
C10   H4    S    
C48   H65   S    
C34   C35   S    
C37   H33   S    
C1    C25   S    
C11   H7    S    
C16   C24   S    
C43   C44   S    
C49   C50   S    
O5    V1    S    
C49   H64   S    
O17   C7    A    
O6    V2    S    
C41   H39   S    
O10   C6    A    
C2    C26   S    
C36   H36   S    
O2    V4    S    
C4    C29   S    
V3    O19   S    
C38   H32   S    
C40   H43   S    
C37   C38   S    
C48   C49   S    
O9    C5    A    
C9    H1    S    
C10   H2    S    
C46   H56   S    
H19   C27   S    
O2    C4    A    
C33   C34   S    
O4    V2    S    
C12   H8    S    
C42   H51   S    
C13   C21   S    
C9    C17   S    
C14   C22   S    
C39   C40   S    
C47   H54   S    
C26   C28   D    
C44   H46   S    
C36   C37   S    
O12   V4    S    
C43   H50   S    
C7    C17   S    
C46   C47   S    
