data_mof_unit_12441.cif
_audit_creation_date              2012-12-10T17:22:43-0500
_audit_creation_method            fapswitch 2.2
_symmetry_space_group_name_H-M    P1
_symmetry_Int_Tables_number       1
_space_group_crystal_system       triclinic
_cell_length_a                    10.625072
_cell_length_b                    10.862883
_cell_length_c                    9.585592
_cell_angle_alpha                 90.416505
_cell_angle_beta                  90.252378
_cell_angle_gamma                 92.558169
_cell_volume                      1105.21445861

loop_
_atom_site_label
_atom_site_type_symbol
_atom_type_description
_atom_site_fract_x
_atom_site_fract_y
_atom_site_fract_z
_atom_type_partial_charge
C1    C     C_R   0.510103 0.263143 0.500317 0.797619
C2    C     C_3   0.962249 0.601002 0.433109 -0.172871
C3    C     C_3   0.039677 0.498572 0.367199 -0.128080
C4    C     C_3   0.122312 0.500395 0.498904 0.021718
C5    C     C_R   0.584871 0.123124 0.753880 -0.162146
C6    C     C_R   0.571567 0.065505 0.882612 -0.160044
C7    C     C_R   0.509358 0.950732 0.890511 -0.141238
C8    C     C_R   0.472379 0.888292 0.768497 -0.167759
C9    C     C_R   0.498366 0.939877 0.635391 0.093234
C10   C     C_R   0.536094 0.065712 0.630473 0.096594
C11   C     C_R   0.521697 0.129380 0.502911 -0.123458
C12   C     C_R   0.259347 0.499858 0.499628 0.787889
C13   C     C_R   0.501058 0.062931 0.378725 -0.218608
C14   C     C_R   0.490375 0.935736 0.380346 -0.219287
C15   C     C_R   0.488679 0.872382 0.507152 -0.116718
C16   C     C_R   0.667911 0.663820 0.146016 -0.151953
C17   C     C_R   0.750166 0.743370 0.074580 -0.227628
C18   C     C_R   0.750420 0.742888 0.930852 -0.199236
C19   C     C_R   0.668167 0.663097 0.857706 -0.149300
C20   C     C_R   0.582566 0.580355 0.926118 0.190855
C21   C     C_R   0.582476 0.580494 0.075786 0.209570
C22   C     C_R   0.421842 0.423178 0.072918 -0.076434
C23   C     C_R   0.493301 0.737623 0.501583 0.777615
C24   C     C_R   0.421867 0.423219 0.924934 -0.066888
C25   C     C_R   0.740613 0.500624 0.500392 0.758261
C26   C     C_3   0.037496 0.400373 0.566995 -0.174046
C27   C     C_3   0.952670 0.398515 0.435409 -0.166254
C28   C     C_3   0.877539 0.500911 0.501182 0.030977
C29   C     C_3   0.960100 0.502822 0.632900 -0.140157
C30   C     C_3   0.047161 0.602867 0.564692 -0.171318
Cu1   Cu    Cu3+1 0.499990 0.499990 0.640660 0.915352
Cu2   Cu    Cu3+1 0.500010 0.500010 0.359340 0.924680
H1    H     H_    0.910782 0.314963 0.382667 0.126471
H2    H     H_    0.492080 0.908696 0.991108 0.137786
H3    H     H_    0.419485 0.802228 0.781838 0.167635
H4    H     H_    0.481152 0.887068 0.281510 0.164388
H5    H     H_    0.357810 0.360215 0.127404 0.134676
H6    H     H_    0.675956 0.672031 0.256016 0.198954
H7    H     H_    0.814204 0.805950 0.131517 0.145352
H8    H     H_    0.814394 0.805301 0.875260 0.149852
H9    H     H_    0.357891 0.360228 0.868749 0.142229
H10   H     H_    0.071384 0.318315 0.621674 0.125945
H11   H     H_    0.924818 0.504765 0.741738 0.141932
H12   H     H_    0.088979 0.686426 0.617489 0.125237
H13   H     H_    0.928149 0.682959 0.378379 0.118596
H14   H     H_    0.074743 0.496815 0.258286 0.136589
H15   H     H_    0.492946 0.109193 0.279542 0.161954
H16   H     H_    0.635744 0.211485 0.752381 0.161205
H17   H     H_    0.606140 0.111609 0.976645 0.134927
N1    N     N_R   0.501210 0.501210 0.147910 -0.197647
N2    N     N_R   0.501250 0.501290 0.852040 -0.203334
O1    O     O_R   0.499990 0.319640 0.618810 -0.587003
O2    O     O_R   0.500000 0.319660 0.381240 -0.580782
O3    O     O_R   0.316850 0.499960 0.618770 -0.580634
O4    O     O_R   0.316860 0.499980 0.381190 -0.583006
O5    O     O_R   0.500000 0.680340 0.618760 -0.612475
O6    O     O_R   0.500010 0.680360 0.381190 -0.599181
O7    O     O_R   0.683140 0.500020 0.618810 -0.608162
O8    O     O_R   0.683150 0.500040 0.381230 -0.595515
H18   H     H_    0.675410 0.671242 0.747846 0.203072

loop_
_geom_bond_atom_site_label_1
_geom_bond_atom_site_label_2
_ccdc_geom_bond_type
C4    C26   S    
C16   C21   A    
Cu1   O5    S    
C4    C12   S    
C2    C28   S    
C9    C10   A    
Cu2   O4    S    
C19   C20   A    
C1    C11   S    
C2    C30   S    
Cu1   O1    S    
C22   N1    A    
C30   H12   S    
C20   C21   A    
C24   N2    A    
C15   C23   S    
C17   C18   A    
C9    C15   A    
C4    C30   S    
C23   O5    A    
C2    H13   S    
C12   O3    A    
C13   C14   A    
C27   H1    S    
C25   C28   S    
C25   O7    A    
C24   H9    S    
C11   C13   A    
C3    H14   S    
Cu2   N1    S    
C26   C27   S    
C29   C30   S    
Cu2   O6    S    
Cu1   O7    S    
C3    C27   S    
C21   N1    A    
C1    O1    A    
C2    C3    S    
C6    C7    A    
Cu1   O3    S    
C14   H4    S    
C5    C6    A    
C19   H18   S    
C5    H16   S    
C22   C24   A    
C12   O4    A    
C16   C17   A    
C10   C11   A    
C5    C10   A    
C3    C4    S    
Cu2   O2    S    
C7    C8    A    
C7    H2    S    
C26   H10   S    
C26   C29   S    
C13   H15   S    
C18   C19   A    
C17   H7    S    
C16   H6    S    
C27   C28   S    
C23   O6    A    
C1    O2    A    
C20   N2    A    
C28   C29   S    
C18   H8    S    
C25   O8    A    
Cu2   O8    S    
C14   C15   A    
C22   H5    S    
C29   H11   S    
C6    H17   S    
Cu1   Cu2   S    
Cu1   N2    S    
C8    C9    A    
C8    H3    S    
