data_mof_unit_58561.cif
_audit_creation_date              2012-12-11T15:55:57-0500
_audit_creation_method            fapswitch 2.2
_symmetry_space_group_name_H-M    P1
_symmetry_Int_Tables_number       1
_space_group_crystal_system       triclinic
_cell_length_a                    11.207541
_cell_length_b                    11.15319
_cell_length_c                    18.711882
_cell_angle_alpha                 91.437675
_cell_angle_beta                  91.10193
_cell_angle_gamma                 58.531012
_cell_volume                      1994.29171488

loop_
_atom_site_label
_atom_site_type_symbol
_atom_type_description
_atom_site_fract_x
_atom_site_fract_y
_atom_site_fract_z
_atom_type_partial_charge
C1    C     C_R   0.360448 0.765176 0.395257 0.537004
C2    C     C_R   0.256872 0.446773 0.197538 -0.178952
C3    C     C_R   0.264540 0.459783 0.271172 -0.048266
C4    C     C_R   0.417047 0.378730 0.383017 0.536662
C5    C     C_R   0.872870 0.695871 0.381728 -0.106622
C6    C     C_R   0.905641 0.579830 0.338024 -0.102509
C7    C     C_R   0.034228 0.502995 0.304619 -0.117706
C8    C     C_R   0.128288 0.547771 0.308874 0.038312
C9    C     C_R   0.395328 0.371424 0.306110 -0.006706
C10   C     C_R   0.861417 0.338869 0.182942 0.009270
C11   C     C_R   0.954897 0.269524 0.239035 -0.050589
C12   C     C_R   0.616096 0.116959 0.162043 0.001909
C13   C     C_R   0.908601 0.286236 0.308568 0.045757
C14   C     C_R   0.672650 0.440639 0.267033 -0.202190
C15   C     C_R   0.719001 0.424923 0.196896 -0.178119
C16   C     C_R   0.718716 0.410511 0.395007 0.534654
C17   C     C_3   0.061761 0.117608 0.247255 -0.224262
C18   C     C_3   0.005978 0.132868 0.322619 0.018436
C19   C     C_R   0.766746 0.371561 0.322818 -0.013510
C20   C     C_R   0.379302 0.821256 0.171433 0.005146
C21   C     C_R   0.443405 0.869300 0.220663 -0.014809
C22   C     C_R   0.420268 0.869759 0.295102 0.031322
C23   C     C_R   0.367981 0.337698 0.159380 0.001360
C24   C     C_R   0.331770 0.721002 0.269584 -0.183401
C25   C     C_R   0.342433 0.730143 0.196399 -0.155442
C26   C     C_3   0.599399 0.789024 0.239531 -0.306940
C27   C     C_3   0.565837 0.817822 0.315925 -0.278674
C28   C     C_R   0.342243 0.771684 0.603251 0.547870
C29   C     C_R   0.353136 0.803225 0.319823 0.048563
C30   C     C_R   0.278844 0.276097 0.802680 0.019425
C31   C     C_R   0.393898 0.172289 0.764328 0.024213
C32   C     C_R   0.413272 0.189871 0.694002 0.025642
C33   C     C_R   0.192936 0.409996 0.692562 -0.170794
C34   C     C_R   0.512691 0.274695 0.266211 -0.155994
C35   C     C_R   0.172778 0.391168 0.764672 -0.162190
C36   C     C_3   0.547197 0.101909 0.781239 -0.267052
C37   C     C_3   0.568641 0.118440 0.703747 -0.268621
C38   C     C_R   0.320151 0.314348 0.658691 0.014259
C39   C     C_R   0.809646 0.331464 0.837113 0.017600
C40   C     C_R   0.369630 0.349421 0.595231 0.550882
C41   C     C_R   0.744383 0.463471 0.805079 0.023461
C42   C     C_R   0.737059 0.473132 0.732019 0.041652
C43   C     C_R   0.830268 0.225354 0.718613 -0.174834
C44   C     C_R   0.840882 0.213495 0.793398 -0.165512
C45   C     C_R   0.501142 0.251863 0.193853 -0.021303
C46   C     C_3   0.764155 0.586741 0.812440 -0.273446
C47   C     C_3   0.761808 0.591894 0.731726 -0.269771
C48   C     C_R   0.788697 0.354924 0.687292 0.019088
C49   C     C_R   0.290903 0.865321 0.821152 0.019422
C50   C     C_R   0.183911 0.865051 0.782729 0.022274
C51   C     C_R   0.190818 0.851424 0.709473 0.023540
C52   C     C_R   0.759819 0.378946 0.611264 0.554214
C53   C     C_R   0.393253 0.873468 0.708842 -0.161697
C54   C     C_R   0.390487 0.879579 0.783178 -0.156361
C55   C     C_3   0.127014 0.771612 0.790430 -0.282459
C56   C     C_R   0.081613 0.680227 0.341633 -0.053082
C57   C     C_3   0.135641 0.754538 0.709921 -0.261216
C58   C     C_R   0.303028 0.842747 0.672107 0.020004
C59   C     C_R   0.913208 0.315960 0.111617 0.546777
C60   C     C_R   0.330394 0.295736 0.091455 0.550340
C61   C     C_R   0.311081 0.898066 0.105070 0.530923
C62   C     C_R   0.880481 0.310350 0.905801 0.542333
C63   C     C_R   0.271444 0.255824 0.879227 0.559816
C64   C     C_R   0.793654 0.881876 0.076675 -0.121914
C65   C     C_R   0.272860 0.898904 0.896795 0.536641
C66   C     C_R   0.843287 0.962116 0.109145 0.159199
C67   C     C_R   0.959518 0.749451 0.381507 -0.117403
C68   C     C_R   0.749713 0.088510 0.146161 -0.063975
C69   C     C_3   0.169246 0.189092 0.389076 -0.266479
C70   C     C_3   0.000835 0.821697 0.197163 -0.323104
C71   C     C_R   0.589756 0.009931 0.148838 -0.064045
C72   C     C_R   0.668868 0.901221 0.099935 -0.107847
Cr1   Cr    Cr6+3 0.601740 0.606840 0.505840 0.985097
Cr2   Cr    Cr6+3 0.291500 0.601560 0.495070 1.000238
Cr3   Cr    Cr6+3 0.606780 0.291630 0.499130 0.990553
Cr4   Cr    Cr6+3 0.062440 0.063060 0.008240 1.012684
Cr5   Cr    Cr6+3 0.062950 0.375000 0.998920 0.991534
Cr6   Cr    Cr6+3 0.374550 0.061770 0.992470 0.994781
H1    H     H_    0.612175 0.207800 0.292918 0.131255
H2    H     H_    0.323829 0.636690 0.287706 0.113098
H3    H     H_    0.637746 0.827761 0.083520 0.134215
H4    H     H_    0.316919 0.670702 0.159224 0.125402
H5    H     H_    0.670178 0.826028 0.228567 0.143715
H6    H     H_    0.650616 0.676940 0.224462 0.155579
H7    H     H_    0.618387 0.719035 0.345083 0.175886
H8    H     H_    0.577705 0.903958 0.339091 0.138661
H9    H     H_    0.115242 0.504561 0.665845 0.120819
H10   H     H_    0.080286 0.471294 0.791736 0.120859
H11   H     H_    0.596567 0.990209 0.796274 0.121549
H12   H     H_    0.776877 0.749858 0.411789 0.115337
H13   H     H_    0.572545 0.166096 0.817666 0.162209
H14   H     H_    0.608203 0.190066 0.696461 0.166977
H15   H     H_    0.928399 0.848481 0.408467 0.101176
H16   H     H_    0.625871 0.016723 0.673716 0.129077
H17   H     H_    0.860174 0.132847 0.685598 0.126403
H18   H     H_    0.887109 0.109946 0.815987 0.141697
H19   H     H_    0.865734 0.563842 0.834839 0.160694
H20   H     H_    0.672532 0.679160 0.837769 0.128384
H21   H     H_    0.672500 0.688886 0.710039 0.144755
H22   H     H_    0.864703 0.561056 0.708437 0.134778
H23   H     H_    0.830429 0.552043 0.327092 0.148790
H24   H     H_    0.472818 0.880514 0.680797 0.121316
H25   H     H_    0.467322 0.893963 0.810920 0.133204
H26   H     H_    0.017806 0.829730 0.810448 0.133342
H27   H     H_    0.863046 0.787315 0.046146 0.093443
H28   H     H_    0.199983 0.672993 0.818986 0.146340
H29   H     H_    0.215217 0.646075 0.692354 0.167246
H30   H     H_    0.031586 0.800546 0.683358 0.129151
H31   H     H_    0.785591 0.153303 0.169341 0.129006
H32   H     H_    0.127573 0.739627 0.331708 0.136483
H33   H     H_    0.490749 0.028847 0.165951 0.159941
H34   H     H_    0.060071 0.411357 0.272728 0.123502
H35   H     H_    0.156031 0.510911 0.171680 0.136676
H36   H     H_    0.079988 0.080608 0.427273 0.264941
H37   H     H_    0.254988 0.140585 0.429317 0.152823
H38   H     H_    0.089134 0.295519 0.409032 0.174857
H39   H     H_    0.214969 0.196754 0.338673 0.152291
H40   H     H_    0.047887 0.814801 0.091071 0.259914
H41   H     H_    0.110827 0.745634 0.207263 0.142303
H42   H     H_    0.946957 0.761389 0.196918 0.145430
H43   H     H_    0.958171 0.901658 0.241077 0.138453
H44   H     H_    0.563936 0.505547 0.278436 0.119143
H45   H     H_    0.644433 0.478081 0.154039 0.124270
H46   H     H_    0.169038 0.097969 0.243711 0.144716
H47   H     H_    0.041601 0.049583 0.211574 0.174854
H48   H     H_    0.950024 0.075736 0.329449 0.116796
N1    N     N_2   0.108443 0.102472 0.379495 -0.511846
N2    N     N_2   0.984916 0.887924 0.129390 -0.479425
O1    O     O_R   0.748670 0.497520 0.427970 -0.529879
O2    O     O_R   0.417470 0.174910 0.067830 -0.512537
O3    O     O_R   0.375160 0.946380 0.070880 -0.523073
O4    O     O_R   0.476470 0.723930 0.429450 -0.531034
O5    O     O_R   0.160500 0.919670 0.926690 -0.515961
O6    O     O_R   0.933140 0.190380 0.936050 -0.504662
O7    O     O_R   0.909010 0.403210 0.925030 -0.537894
O8    O     O_R   0.179590 0.361290 0.918480 -0.509156
O9    O     O_R   0.391360 0.170840 0.907510 -0.520539
O10   O     O_R   0.350950 0.942600 0.922260 -0.528395
O11   O     O_3   0.166650 0.166610 0.999880 -0.267082
O12   O     O_R   0.300170 0.471020 0.567120 -0.502510
O13   O     O_R   0.264730 0.744140 0.416740 -0.543401
O14   O     O_R   0.309440 0.472410 0.418220 -0.488086
O15   O     O_R   0.501630 0.260530 0.414310 -0.528582
O16   O     O_R   0.727920 0.305730 0.428950 -0.515128
O17   O     O_R   0.738670 0.496020 0.588600 -0.509817
O18   O     O_R   0.467190 0.722540 0.578350 -0.501528
O19   O     O_R   0.254720 0.742640 0.577370 -0.522003
O20   O     O_R   0.491630 0.259030 0.574940 -0.520416
O21   O     O_R   0.718640 0.304340 0.577850 -0.506847
O22   O     O_3   0.500010 0.500010 0.500020 -0.286173
O23   O     O_R   0.186620 0.923750 0.087000 -0.499134
O24   O     O_R   0.957350 0.194160 0.084660 -0.492594
O25   O     O_R   0.935120 0.407280 0.085350 -0.523466
O26   O     O_R   0.203800 0.365060 0.067090 -0.505654

loop_
_geom_bond_atom_site_label_1
_geom_bond_atom_site_label_2
_ccdc_geom_bond_type
C36   H11   S    
C66   C68   A    
C21   C26   S    
C69   H38   S    
C52   O17   A    
C23   C45   A    
C22   C29   A    
Cr1   O22   S    
C41   C42   A    
C5    C67   A    
C1    O4    A    
Cr6   O11   S    
C8    C56   A    
C4    O15   A    
C59   O25   A    
C7    C8    A    
C39   C41   A    
C53   C54   A    
C12   C68   A    
C26   C27   S    
C26   H5    S    
C15   H45   S    
C13   C18   S    
C3    C9    A    
C36   C37   S    
C16   O16   A    
C10   C15   A    
C4    O14   A    
C30   C31   A    
C18   N1    S    
C2    H35   S    
C20   C25   A    
Cr4   O24   S    
Cr3   O22   S    
C49   C54   A    
C25   H4    S    
C47   H21   S    
C7    H34   S    
C6    H23   S    
C20   C61   S    
C27   H7    S    
C24   C29   A    
Cr5   O25   S    
C24   H2    S    
C11   C17   S    
C70   H42   S    
C52   O21   A    
C71   H33   S    
C43   H17   S    
C41   C46   S    
C51   C57   S    
Cr5   O8    S    
C32   C38   A    
C43   C48   A    
C53   H24   S    
C72   H3    S    
C68   H31   S    
C46   H20   S    
Cr1   O4    S    
C38   C40   S    
C21   C22   A    
C63   O9    A    
H40   N2    S    
Cr6   O10   S    
C56   H32   S    
C50   C51   A    
C23   C60   S    
Cr1   O1    S    
C40   O20   A    
C55   H28   S    
Cr5   O11   S    
Cr2   O19   S    
C64   H27   S    
C46   H19   S    
C24   C25   A    
C3    C8    S    
Cr3   O16   S    
C60   O2    A    
C51   C58   A    
C13   C19   A    
Cr4   O23   S    
C59   O24   A    
Cr2   O12   S    
C55   H26   S    
C47   H22   S    
Cr1   O17   S    
C64   C66   A    
C62   O7    A    
C27   H8    S    
Cr6   O3    S    
C44   H18   S    
C34   H1    S    
C35   H10   S    
C54   H25   S    
C17   H46   S    
C31   C32   A    
C48   C52   S    
C70   H41   S    
C53   C58   A    
C1    C29   S    
C17   C18   S    
C34   C45   A    
C42   C48   A    
C32   C37   S    
C16   O1    A    
C61   O23   A    
C6    C7    A    
C49   C65   S    
C14   H44   S    
C65   O10   A    
C30   C35   A    
C36   H13   S    
C57   H29   S    
Cr2   O13   S    
C22   C27   S    
C55   C57   S    
C43   C44   A    
C9    C34   A    
Cr6   O9    S    
Cr4   O11   S    
C70   N2    S    
C39   C62   S    
C46   C47   S    
C69   H37   S    
C28   O19   A    
Cr4   O6    S    
C37   H14   S    
C31   C36   S    
C14   C19   A    
C12   C71   A    
C5    H12   S    
C12   C45   S    
Cr4   O5    S    
Cr3   O15   S    
C39   C44   A    
C28   C58   S    
Cr3   O20   S    
C56   C67   A    
C28   O18   A    
C50   C55   S    
Cr1   O18   S    
C63   O8    A    
C62   O6    A    
C2    C3    A    
C33   H9    S    
C71   C72   A    
C18   H48   S    
C26   H6    S    
H36   N1    S    
C11   C13   A    
C70   H43   S    
C17   H47   S    
C5    C6    A    
Cr3   O21   S    
C16   C19   S    
C40   O12   A    
C69   H39   S    
C33   C35   A    
C66   N2    S    
C37   H16   S    
C10   C59   S    
C42   C47   S    
C64   C72   A    
Cr6   O2    S    
C60   O26   A    
C1    O13   A    
C10   C11   A    
C61   O3    A    
Cr2   O14   S    
C57   H30   S    
C20   C21   A    
C69   N1    S    
C49   C50   A    
C2    C23   A    
C67   H15   S    
Cr5   O26   S    
C14   C15   A    
Cr2   O22   S    
C33   C38   A    
Cr5   O7    S    
C4    C9    S    
C30   C63   S    
C65   O5    A    
