data_mof_unit_40969.cif
_audit_creation_date              2012-12-10T17:48:19-0500
_audit_creation_method            fapswitch 2.2
_symmetry_space_group_name_H-M    P1
_symmetry_Int_Tables_number       1
_space_group_crystal_system       triclinic
_cell_length_a                    13.885371
_cell_length_b                    14.725537
_cell_length_c                    14.622324
_cell_angle_alpha                 115.057531
_cell_angle_beta                  106.608728
_cell_angle_gamma                 72.410384
_cell_volume                      2538.29702805

loop_
_atom_site_label
_atom_site_type_symbol
_atom_type_description
_atom_site_fract_x
_atom_site_fract_y
_atom_site_fract_z
_atom_type_partial_charge
C1    C     C_R   0.523674 0.117689 0.689130 0.805443
C2    C     C_R   0.479822 0.881782 0.310818 0.812186
C3    C     C_R   0.548723 0.354888 0.928148 0.055506
C4    C     C_R   0.494533 0.637971 0.078886 0.034564
C5    C     C_R   0.599500 0.314249 0.004861 0.025684
C6    C     C_R   0.441815 0.672676 0.997725 0.103540
C7    C     C_R   0.526107 0.462491 0.953082 0.043395
C8    C     C_R   0.528880 0.530135 0.058205 0.000083
C9    C     C_R   0.564090 0.485307 0.135495 0.151967
C10   C     C_R   0.505073 0.505166 0.876511 0.114039
C11   C     C_R   0.607506 0.380488 0.107439 -0.241809
C12   C     C_R   0.450738 0.606066 0.897091 -0.232237
C13   C     C_R   0.308758 0.311187 0.350324 -0.321322
C14   C     C_R   0.696178 0.682103 0.638493 -0.329658
C15   C     C_R   0.343853 0.222517 0.372598 0.066814
C16   C     C_R   0.659631 0.773134 0.620873 0.069249
C17   C     C_R   0.493672 0.280797 0.481271 -0.001814
C18   C     C_R   0.504741 0.720553 0.519922 -0.004643
C19   C     C_R   0.463005 0.372412 0.460202 -0.023766
C20   C     C_R   0.538531 0.624724 0.533166 -0.019613
C21   C     C_R   0.367076 0.387165 0.395162 0.169025
C22   C     C_R   0.637002 0.606959 0.593547 0.166606
C23   C     C_R   0.687046 0.986894 0.504124 0.811903
C24   C     C_R   0.312976 0.013198 0.496034 0.813193
C25   C     C_R   0.522225 0.450369 0.502987 0.069618
C26   C     C_R   0.480641 0.545210 0.486487 0.081502
C27   C     C_R   0.383638 0.556345 0.422520 -0.249585
C28   C     C_R   0.622421 0.435647 0.559905 -0.252313
C29   C     C_R   0.329140 0.478111 0.376531 -0.203586
C30   C     C_R   0.677757 0.512987 0.605541 -0.198975
C31   C     C_1   0.207434 0.020341 0.492863 -0.182181
C32   C     C_1   0.792544 0.979568 0.506931 -0.182183
C33   C     C_2   0.012732 0.032716 0.487169 -0.162258
C34   C     C_2   0.987166 0.966914 0.512010 -0.163286
C35   C     C_1   0.881413 0.973364 0.509382 0.000344
C36   C     C_1   0.118519 0.026405 0.490073 0.004204
C37   C     C_R   0.552301 0.181324 0.799406 -0.148567
C38   C     C_R   0.463274 0.815044 0.200430 -0.113121
C39   C     C_R   0.637131 0.207303 0.977585 0.134042
C40   C     C_R   0.388995 0.775665 0.018391 0.126205
C41   C     C_R   0.619541 0.140983 0.873751 0.152662
C42   C     C_R   0.393940 0.846939 0.121404 0.122784
C43   C     C_R   0.515319 0.287267 0.829632 -0.272999
C44   C     C_R   0.516617 0.713141 0.175564 -0.307352
Cu1   Cu    Cu3+1 0.526370 0.916390 0.524860 0.924532
Cu2   Cu    Cu3+1 0.473630 0.083610 0.475140 0.931875
H1    H     H_    0.045449 0.908005 0.534522 0.155602
H2    H     H_    0.954461 0.091651 0.464689 0.154493
H3    H     H_    0.235540 0.321038 0.299671 0.136588
H4    H     H_    0.771817 0.669253 0.684463 0.139591
H5    H     H_    0.347841 0.624516 0.405307 0.135438
H6    H     H_    0.661050 0.363905 0.569160 0.138092
H7    H     H_    0.640042 0.349903 0.167781 0.155173
H8    H     H_    0.425004 0.635333 0.835568 0.176502
H9    H     H_    0.577984 0.694036 0.232756 0.197389
H10   H     H_    0.457083 0.317043 0.776421 0.167064
H11   H     H_    0.255416 0.489729 0.327103 0.141763
H12   H     H_    0.754222 0.498371 0.649487 0.141547
H13   H     H_    0.432535 0.739284 0.472748 0.128805
H14   H     H_    0.562510 0.266204 0.534536 0.125548
H15   H     H_    0.707769 0.828653 0.651797 0.129700
H16   H     H_    0.297664 0.165034 0.339612 0.136401
N1    N     N_R   0.433980 0.209250 0.437830 -0.173737
N2    N     N_R   0.566020 0.790750 0.562170 -0.176130
O1    O     O_R   0.534760 0.019630 0.662610 -0.575108
O2    O     O_R   0.465240 0.980370 0.337390 -0.578638
O3    O     O_R   0.490220 0.160840 0.620610 -0.580039
O4    O     O_R   0.509780 0.839160 0.379390 -0.581028
O5    O     O_R   0.663260 0.919400 0.523940 -0.587972
O6    O     O_R   0.336740 0.080600 0.476060 -0.577746
O7    O     O_R   0.618720 0.060610 0.481950 -0.576755
O8    O     O_R   0.381280 0.939390 0.518050 -0.577256
C45   C     C_3   0.324643 0.953480 0.145071 -0.407488
C46   C     C_3   0.238332 0.963531 0.196396 -0.820724
H17   H     H_    0.269380 0.951896 0.270253 0.246819
H18   H     H_    0.188205 0.041134 0.211502 0.228846
H19   H     H_    0.190859 0.905903 0.145015 0.247083
H20   H     H_    0.369455 0.013880 0.192036 0.219850
H21   H     H_    0.287643 0.971836 0.075463 0.190229
C47   C     C_3   0.675797 0.029608 0.846260 -0.357402
C48   C     C_3   0.615707 0.965161 0.858541 -0.767004
H22   H     H_    0.604182 0.995069 0.939098 0.252618
H23   H     H_    0.539431 0.966016 0.807245 0.262656
H24   H     H_    0.659492 0.884744 0.839360 0.225329
H25   H     H_    0.694476 0.997038 0.768471 0.186108
H26   H     H_    0.752561 0.023775 0.896588 0.208988
N3    N     N_3   0.694848 0.164477 0.053985 -0.614709
H27   H     H_    0.758006 0.198994 0.093786 0.213966
H28   H     H_    0.647728 0.178836 0.105064 0.217594
N4    N     N_3   0.328717 0.805257 0.933790 -0.624873
H29   H     H_    0.251581 0.829747 0.941701 0.226705
H30   H     H_    0.355180 0.864496 0.933561 0.214843
C49   C     C_3   0.551554 0.538966 0.247243 -0.403869
C50   C     C_3   0.655380 0.555111 0.318200 -0.815382
H31   H     H_    0.697185 0.484719 0.334417 0.242930
H32   H     H_    0.704549 0.573583 0.283124 0.244285
H33   H     H_    0.643701 0.619200 0.391761 0.261597
H34   H     H_    0.492148 0.610594 0.262065 0.206858
H35   H     H_    0.520668 0.490199 0.268057 0.208228
C51   C     C_3   0.557910 0.455333 0.783341 -0.384154
C52   C     C_3   0.674722 0.428666 0.815641 -0.810589
H36   H     H_    0.703434 0.498142 0.872603 0.252346
H37   H     H_    0.697536 0.368908 0.849470 0.253774
H38   H     H_    0.712190 0.398391 0.748057 0.229218
H39   H     H_    0.530115 0.387066 0.724032 0.199392
H40   H     H_    0.541503 0.509342 0.743312 0.210948

loop_
_geom_bond_atom_site_label_1
_geom_bond_atom_site_label_2
_ccdc_geom_bond_type
C7    C10   A    
N3    H27   S    
C49   C50   S    
C27   C29   A    
C45   C46   S    
C23   O5    A    
C43   H10   S    
C39   N3    S    
C4    C8    A    
C41   C47   S    
C48   H22   S    
C24   O6    A    
C7    C8    A    
C39   C41   A    
Cu1   Cu2   S    
C25   C28   A    
C3    C43   A    
C26   C27   A    
C52   H36   S    
C46   H18   S    
C19   C21   A    
Cu2   O2    S    
C2    O4    A    
C6    C12   A    
C33   C36   S    
C34   C35   S    
C47   H26   S    
C1    O3    A    
C8    C9    A    
C46   H19   S    
C1    O1    A    
C45   H20   S    
C49   H35   S    
C18   C20   A    
C11   H7    S    
C1    C37   S    
C40   C42   A    
C52   H37   S    
Cu1   O8    S    
C48   H23   S    
C27   H5    S    
C46   H17   S    
Cu1   O5    S    
C32   C35   T    
C23   O7    A    
C4    C6    A    
C4    C44   A    
C50   H33   S    
C3    C5    A    
C25   C26   A    
C21   C29   A    
C37   C43   A    
C10   C51   S    
C38   C44   A    
C47   H25   S    
C2    C38   S    
N4    H30   S    
Cu1   O4    S    
C33   C34   D    
C45   H21   S    
C13   C21   A    
C50   H32   S    
C9    C11   A    
Cu2   O7    S    
C10   C12   A    
C13   H3    S    
C20   C22   A    
C52   H38   S    
C13   C15   A    
Cu1   O1    S    
C14   C16   A    
C16   H15   S    
C9    C49   S    
C48   H24   S    
C24   O8    A    
C5    C39   A    
C42   C45   S    
C22   C30   A    
C51   H40   S    
C51   H39   S    
C29   H11   S    
C47   C48   S    
C2    O2    A    
C5    C11   A    
Cu1   N2    S    
C3    C7    A    
Cu2   N1    S    
C23   C32   S    
C14   C22   A    
N3    H28   S    
C24   C31   S    
Cu2   O3    S    
C17   N1    A    
C28   H6    S    
C44   H9    S    
C18   N2    A    
N4    H29   S    
C14   H4    S    
C20   C26   A    
C30   H12   S    
C28   C30   A    
C51   C52   S    
C17   C19   A    
C15   H16   S    
C6    C40   A    
C37   C41   A    
C50   H31   S    
C19   C25   A    
Cu2   O6    S    
C17   H14   S    
C38   C42   A    
C18   H13   S    
C33   H2    S    
C15   N1    A    
C31   C36   T    
C34   H1    S    
C16   N2    A    
C40   N4    S    
C49   H34   S    
C12   H8    S    
