data_mof_unit_65956.cif
_audit_creation_date              2012-12-10T19:48:18-0500
_audit_creation_method            fapswitch 2.2
_symmetry_space_group_name_H-M    P1
_symmetry_Int_Tables_number       1
_space_group_crystal_system       triclinic
_cell_length_a                    18.25942
_cell_length_b                    18.25942
_cell_length_c                    30.238917
_cell_angle_alpha                 89.999906
_cell_angle_beta                  89.999906
_cell_angle_gamma                 89.999977
_cell_volume                      10081.8490234

loop_
_atom_site_label
_atom_site_type_symbol
_atom_type_description
_atom_site_fract_x
_atom_site_fract_y
_atom_site_fract_z
_atom_type_partial_charge
C1    C     C_R   0.141272 0.500000 0.000000 0.951236
C2    C     C_1   0.500000 0.217794 0.000000 -0.130795
C3    C     C_R   0.095602 0.592786 0.772846 -0.163451
C4    C     C_R   0.407214 0.904398 0.227154 -0.163451
C5    C     C_R   0.904397 0.592785 0.227154 -0.163451
C6    C     C_R   0.592784 0.095603 0.227154 -0.163451
C7    C     C_R   0.095603 0.407215 0.227154 -0.163451
C8    C     C_1   0.782206 0.500000 1.000000 -0.130795
C9    C     C_1   0.500000 0.782206 1.000000 -0.130795
C10   C     C_1   0.717794 1.000000 0.500000 -0.130795
C11   C     C_1   1.000000 0.717794 0.500000 -0.130795
C12   C     C_1   0.282206 0.000000 0.500000 -0.130795
C13   C     C_1   0.000000 0.282206 0.500000 -0.130795
C14   C     C_R   1.000000 0.500000 0.086862 0.952951
C15   C     C_R   0.500000 1.000000 0.086862 0.952950
C16   C     C_R   1.000000 0.500000 0.913138 0.952950
C17   C     C_R   0.500000 0.141272 0.000000 0.951236
C18   C     C_R   0.500000 1.000000 0.913138 0.952951
C19   C     C_R   0.500000 1.000000 0.586862 0.952951
C20   C     C_R   1.000000 0.500000 0.586862 0.952950
C21   C     C_R   0.500000 1.000000 0.413138 0.952950
C22   C     C_R   1.000000 0.500000 0.413138 0.952951
C23   C     C_1   0.282618 0.500000 0.000000 -0.140719
C24   C     C_1   0.500000 0.282618 0.000000 -0.140719
C25   C     C_1   0.717382 0.500000 1.000000 -0.140719
C26   C     C_1   0.500000 0.717382 1.000000 -0.140719
C27   C     C_1   0.782618 1.000000 0.500000 -0.140719
C28   C     C_R   0.858728 0.500000 1.000000 0.951237
C29   C     C_1   0.000000 0.782618 0.500000 -0.140719
C30   C     C_1   0.217382 0.000000 0.500000 -0.140719
C31   C     C_1   0.000000 0.217382 0.500000 -0.140719
C32   C     C_R   0.500000 0.359155 0.000000 0.913811
C33   C     C_R   0.640845 0.500000 1.000000 0.913810
C34   C     C_R   0.500000 0.640845 1.000000 0.913810
C35   C     C_R   0.359155 0.500000 0.000000 0.913811
C36   C     C_R   0.000000 0.859155 0.500000 0.913811
C37   C     C_R   0.140845 0.000000 0.500000 0.913810
C38   C     C_R   0.000000 0.140845 0.500000 0.913810
C39   C     C_R   0.500000 0.858728 1.000000 0.951236
C40   C     C_R   0.859155 1.000000 0.500000 0.913811
C41   C     C_R   0.042287 0.447662 0.342756 0.065049
C42   C     C_R   0.552338 0.042287 0.342756 0.065050
C43   C     C_R   0.957714 0.552338 0.342756 0.065050
C44   C     C_R   0.447662 0.957714 0.342756 0.065050
C45   C     C_R   0.042286 0.552338 0.657244 0.065050
C46   C     C_R   0.552338 0.957713 0.657244 0.065049
C47   C     C_R   0.957713 0.447662 0.657244 0.065050
C48   C     C_R   0.447662 0.042286 0.657244 0.065050
C49   C     C_R   0.542287 0.947662 0.842756 0.065049
C50   C     C_R   0.641272 1.000000 0.500000 0.951236
C51   C     C_R   0.052338 0.542287 0.842756 0.065050
C52   C     C_R   0.457714 0.052338 0.842756 0.065050
C53   C     C_R   0.947662 0.457714 0.842756 0.065050
C54   C     C_R   0.542286 0.052338 0.157244 0.065050
C55   C     C_R   0.052338 0.457713 0.157244 0.065049
C56   C     C_R   0.457713 0.947662 0.157244 0.065050
C57   C     C_R   0.947662 0.542286 0.157244 0.065050
C58   C     C_R   0.000000 0.500000 0.365418 -0.164958
C59   C     C_R   0.500000 0.000000 0.365418 -0.164959
C60   C     C_R   1.000000 0.500000 0.634582 -0.164959
C61   C     C_R   0.000000 0.641272 0.500000 0.951236
C62   C     C_R   0.500000 1.000000 0.634582 -0.164958
C63   C     C_R   0.500000 0.000000 0.865418 -0.164958
C64   C     C_R   1.000000 0.500000 0.865418 -0.164959
C65   C     C_R   0.500000 0.000000 0.134582 -0.164959
C66   C     C_R   1.000000 0.500000 0.134582 -0.164958
C67   C     C_R   0.954527 0.549608 0.296520 0.072582
C68   C     C_R   0.450392 0.954528 0.296520 0.072582
C69   C     C_R   0.045473 0.450392 0.296520 0.072583
C70   C     C_R   0.549607 0.045473 0.296519 0.072582
C71   C     C_R   0.954527 0.450393 0.703480 0.072582
C72   C     C_R   0.358728 0.000000 0.500000 0.951237
C73   C     C_R   0.450392 0.045472 0.703480 0.072582
C74   C     C_R   0.045472 0.549608 0.703480 0.072582
C75   C     C_R   0.549608 0.954527 0.703480 0.072582
C76   C     C_R   0.454527 0.049608 0.796520 0.072582
C77   C     C_R   0.950392 0.454528 0.796520 0.072582
C78   C     C_R   0.545473 0.950392 0.796520 0.072582
C79   C     C_R   0.049607 0.545473 0.796520 0.072582
C80   C     C_R   0.454527 0.950393 0.203480 0.072582
C81   C     C_R   0.950392 0.545472 0.203480 0.072582
C82   C     C_R   0.545472 0.049608 0.203480 0.072582
C83   C     C_R   1.000000 0.358728 0.500000 0.951236
C84   C     C_R   0.049607 0.454527 0.203480 0.072583
C85   C     C_R   0.000000 0.500000 0.273312 0.025973
C86   C     C_R   0.499999 0.000001 0.273312 0.025973
C87   C     C_R   0.999999 0.500000 0.726688 0.025973
C88   C     C_R   0.500000 1.000000 0.726688 0.025973
C89   C     C_R   0.500000 1.000000 0.773312 0.025973
C90   C     C_R   0.999999 0.500000 0.773312 0.025973
C91   C     C_R   0.499999 0.000000 0.226688 0.025973
C92   C     C_R   1.000000 0.500000 0.226688 0.025973
C93   C     C_R   0.907215 0.595603 0.272846 -0.163451
C94   C     C_1   0.217794 0.500000 0.000000 -0.130795
C95   C     C_R   0.404396 0.907216 0.272846 -0.163451
C96   C     C_R   0.092785 0.404397 0.272846 -0.163451
C97   C     C_R   0.595602 0.092786 0.272846 -0.163451
C98   C     C_R   0.907214 0.404398 0.727154 -0.163451
C99   C     C_R   0.404397 0.092785 0.727154 -0.163451
C100  C     C_R   0.092784 0.595603 0.727154 -0.163451
C101  C     C_R   0.595603 0.907215 0.727154 -0.163451
C102  C     C_R   0.407215 0.095603 0.772846 -0.163451
C103  C     C_R   0.904396 0.407216 0.772846 -0.163451
C104  C     C_R   0.592785 0.904397 0.772846 -0.163451
H1    H     H_    0.870521 0.633352 0.289084 0.188360
H2    H     H_    0.866647 0.370521 0.789084 0.188360
H3    H     H_    0.629479 0.866648 0.789084 0.188360
H4    H     H_    0.133351 0.629480 0.789084 0.188360
H5    H     H_    0.370520 0.866649 0.210916 0.188360
H6    H     H_    0.866648 0.629479 0.210916 0.188360
H7    H     H_    0.629478 0.133353 0.210916 0.188360
H8    H     H_    0.133352 0.370521 0.210916 0.188360
H9    H     H_    0.366647 0.870521 0.289084 0.188360
H10   H     H_    0.129479 0.366648 0.289084 0.188360
H11   H     H_    0.633351 0.129480 0.289083 0.188360
H12   H     H_    0.870520 0.366649 0.710916 0.188360
H13   H     H_    0.366648 0.129479 0.710916 0.188360
H14   H     H_    0.129478 0.633353 0.710916 0.188360
H15   H     H_    0.633352 0.870521 0.710916 0.188360
H16   H     H_    0.370521 0.133352 0.789084 0.188360
I1    I     I_    0.095828 0.360746 0.378642 -0.332707
I2    I     I_    0.139253 0.595829 0.878642 -0.332705
I3    I     I_    0.404173 0.139255 0.878642 -0.332706
I4    I     I_    0.860746 0.404172 0.878643 -0.332705
I5    I     I_    0.595828 0.139254 0.121357 -0.332706
I6    I     I_    0.139254 0.404172 0.121358 -0.332707
I7    I     I_    0.404171 0.860747 0.121358 -0.332705
I8    I     I_    0.860745 0.595827 0.121358 -0.332706
I9    I     I_    0.639253 0.095829 0.378642 -0.332706
I10   I     I_    0.904173 0.639254 0.378642 -0.332706
I11   I     I_    0.360746 0.904172 0.378643 -0.332705
I12   I     I_    0.095828 0.639254 0.621357 -0.332706
I13   I     I_    0.639254 0.904172 0.621358 -0.332707
I14   I     I_    0.904171 0.360747 0.621358 -0.332705
I15   I     I_    0.360745 0.095826 0.621358 -0.332706
I16   I     I_    0.595828 0.860746 0.878642 -0.332707
O1    O     O_R   0.107310 0.560570 0.000010 -0.607546
O2    O     O_R   0.939430 0.607310 0.500010 -0.607546
O3    O     O_R   0.392690 0.939430 0.500010 -0.607546
O4    O     O_R   0.060570 0.392690 0.500010 -0.607546
O5    O     O_R   0.607310 0.939430 0.499990 -0.607546
O6    O     O_R   0.939430 0.392690 0.499990 -0.607546
O7    O     O_R   0.392690 0.060570 0.499990 -0.607546
O8    O     O_R   0.060570 0.607310 0.499990 -0.607546
O9    O     O_R   0.999950 0.560580 0.066080 -0.601189
O10   O     O_R   0.439420 0.999950 0.066080 -0.601188
O11   O     O_R   0.000050 0.439420 0.066080 -0.601188
O12   O     O_R   0.439430 0.107310 0.000010 -0.607546
O13   O     O_R   0.560580 0.000050 0.066080 -0.601188
O14   O     O_R   0.999950 0.439420 0.933920 -0.601188
O15   O     O_R   0.439420 0.000050 0.933920 -0.601188
O16   O     O_R   0.000050 0.560580 0.933920 -0.601188
O17   O     O_R   0.560580 0.999950 0.933920 -0.601188
O18   O     O_R   0.499950 0.060580 0.566080 -0.601189
O19   O     O_R   0.939420 0.499950 0.566080 -0.601188
O20   O     O_R   0.500050 0.939420 0.566080 -0.601188
O21   O     O_R   0.060580 0.500050 0.566080 -0.601188
O22   O     O_R   0.499950 0.939420 0.433920 -0.601188
O23   O     O_R   0.892690 0.439430 0.000010 -0.607546
O24   O     O_R   0.939420 0.500050 0.433920 -0.601188
O25   O     O_R   0.500050 0.060580 0.433920 -0.601188
O26   O     O_R   0.060580 0.499950 0.433920 -0.601188
O27   O     O_R   0.499980 0.392670 0.037330 -0.609832
O28   O     O_R   0.607330 0.499980 0.037330 -0.609831
O29   O     O_R   0.500020 0.607330 0.037330 -0.609831
O30   O     O_R   0.392670 0.500020 0.037330 -0.609832
O31   O     O_R   0.499980 0.607330 0.962670 -0.609832
O32   O     O_R   0.607330 0.500020 0.962670 -0.609832
O33   O     O_R   0.500020 0.392670 0.962670 -0.609831
O34   O     O_R   0.560570 0.892690 0.000010 -0.607546
O35   O     O_R   0.392670 0.499980 0.962670 -0.609831
O36   O     O_R   0.999980 0.892670 0.537330 -0.609832
O37   O     O_R   0.107330 0.999980 0.537330 -0.609831
O38   O     O_R   0.000020 0.107330 0.537330 -0.609831
O39   O     O_R   0.892670 0.000020 0.537330 -0.609832
O40   O     O_R   0.999980 0.107330 0.462670 -0.609832
O41   O     O_R   0.107330 0.000020 0.462670 -0.609832
O42   O     O_R   0.000020 0.892670 0.462670 -0.609831
O43   O     O_R   0.892670 0.999980 0.462670 -0.609831
O44   O     O_R   0.107310 0.439430 0.999990 -0.607546
O45   O     O_R   0.439430 0.892690 0.999990 -0.607546
O46   O     O_R   0.892690 0.560570 0.999990 -0.607546
O47   O     O_R   0.560570 0.107310 0.999990 -0.607546
O48   O     O_R   0.607310 0.060570 0.500010 -0.607546
Zn1   Zn    Zn3+2 1.000000 0.580890 0.000000 1.054164
Zn2   Zn    Zn3+2 0.500000 0.500000 0.950170 1.031597
Zn3   Zn    Zn3+2 1.000000 0.000000 0.549830 1.031597
Zn4   Zn    Zn3+2 0.000000 0.000000 0.450170 1.031597
Zn5   Zn    Zn3+2 0.419110 0.000000 0.000000 1.054164
Zn6   Zn    Zn3+2 1.000000 0.419110 0.000000 1.054164
Zn7   Zn    Zn3+2 0.580890 0.000000 0.000000 1.054164
Zn8   Zn    Zn3+2 0.500000 0.080890 0.500000 1.054164
Zn9   Zn    Zn3+2 0.919110 0.500000 0.500000 1.054164
Zn10  Zn    Zn3+2 0.500000 0.919110 0.500000 1.054164
Zn11  Zn    Zn3+2 0.080890 0.500000 0.500000 1.054164
Zn12  Zn    Zn3+2 0.500000 0.500000 0.049830 1.031597

loop_
_geom_bond_atom_site_label_1
_geom_bond_atom_site_label_2
_ccdc_geom_bond_type
C10   C27   T    
C72   O7    A    
C4    H5    S    
C45   C60   A    
C38   O40   A    
C49   C63   A    
C20   O19   A    
C68   C86   A    
C21   O22   A    
C48   I15   S    
O20   Zn10  S    
C42   C70   A    
C57   C66   A    
C32   O33   A    
C69   C96   A    
C3    C79   A    
C57   I8    S    
C1    O1    A    
C54   C65   A    
C49   C78   A    
C44   I11   S    
C7    C96   A    
C29   C36   S    
O22   Zn10  S    
O41   Zn4   S    
C46   C62   A    
C6    C82   A    
C15   O13   A    
O30   Zn12  S    
O33   Zn2   S    
C21   C59   S    
C39   O34   A    
C86   C91   A    
C22   O26   A    
C1    O44   A    
C61   O2    A    
C38   O38   A    
C99   H13   S    
C5    H6    S    
O36   Zn3   S    
C56   C65   A    
C15   C65   S    
C32   O27   A    
C9    C39   S    
C35   O30   A    
C35   O35   A    
C7    H8    S    
C6    H7    S    
C56   I7    S    
C41   I1    S    
C28   O46   A    
C83   O4    A    
C79   C90   A    
C43   C58   A    
C93   H1    S    
C47   C60   A    
C81   C92   A    
O45   Zn5   S    
C3    C100  A    
C26   C34   S    
C72   O3    A    
C1    C94   S    
O26   Zn11  S    
O7    Zn8   S    
O48   Zn8   S    
O10   Zn5   S    
C74   C87   A    
C97   H11   S    
C34   O29   A    
C52   C63   A    
O3    Zn10  S    
C76   C89   A    
O42   Zn4   S    
C50   O5    A    
C7    C84   A    
C12   C72   S    
C2    C17   S    
C8    C25   T    
O23   Zn6   S    
C96   H10   S    
O25   Zn8   S    
C46   C75   A    
C54   I5    S    
C85   C92   A    
C9    C26   T    
O40   Zn4   S    
O1    Zn1   S    
C78   C89   A    
C76   C102  A    
C71   C98   A    
C77   C90   A    
C67   C85   A    
C68   C95   A    
O32   Zn2   S    
C78   C104  A    
C101  H15   S    
C6    C97   A    
C33   O28   A    
C36   O42   A    
O8    Zn11  S    
C74   C100  A    
O43   Zn4   S    
C52   C76   A    
O31   Zn2   S    
C37   O37   A    
O34   Zn7   S    
C53   I4    S    
C28   O23   A    
C82   C91   A    
C30   C37   S    
O9    Zn1   S    
C45   C74   A    
O13   Zn7   S    
O46   Zn1   S    
C103  H2    S    
C53   C77   A    
C24   C32   S    
C73   C88   A    
C22   C58   S    
O19   Zn9   S    
C16   C64   S    
O38   Zn3   S    
O14   Zn6   S    
C4    C95   A    
C5    C81   A    
C19   O20   A    
C17   O47   A    
C61   O8    A    
C98   H12   S    
C14   O9    A    
C55   I6    S    
C27   C40   S    
C17   O12   A    
O28   Zn12  S    
C14   C66   S    
C36   O36   A    
C52   I3    S    
C16   O16   A    
C84   C92   A    
C47   C71   A    
C39   O45   A    
C18   O17   A    
C71   C87   A    
C49   I16   S    
C101  C104  A    
C23   C35   S    
C20   O21   A    
C47   I14   S    
C2    C24   T    
C8    C28   S    
C57   C81   A    
C44   C68   A    
C33   O32   A    
C100  H14   S    
C40   O43   A    
C18   O15   A    
C10   C50   S    
O29   Zn12  S    
C48   C62   A    
C54   C82   A    
C55   C66   A    
C69   C85   A    
C41   C69   A    
O17   Zn7   S    
O2    Zn9   S    
O12   Zn5   S    
C73   C99   A    
O18   Zn8   S    
O37   Zn3   S    
C75   C101  A    
O35   Zn2   S    
C12   C30   T    
O21   Zn11  S    
C48   C73   A    
C13   C31   T    
C43   I10   S    
C50   O48   A    
C51   C64   A    
O16   Zn1   S    
C11   C61   S    
C40   O39   A    
O47   Zn7   S    
C42   C59   A    
C41   C58   A    
C15   O10   A    
C5    C93   A    
C70   C97   A    
C4    C80   A    
C3    H4    S    
C37   O41   A    
C13   C83   S    
C56   C80   A    
C31   C38   S    
C102  H16   S    
C80   C91   A    
C55   C84   A    
O11   Zn6   S    
C44   C59   A    
C98   C103  A    
O44   Zn6   S    
C51   I2    S    
C46   I13   S    
C22   O24   A    
O27   Zn12  S    
C95   H9    S    
C14   O11   A    
C53   C64   A    
O6    Zn9   S    
C42   I9    S    
O5    Zn10  S    
C83   O6    A    
C18   C63   S    
O4    Zn11  S    
C51   C79   A    
C77   C103  A    
O39   Zn3   S    
C23   C94   T    
C75   C88   A    
O15   Zn5   S    
C99   C102  A    
C88   C89   A    
C11   C29   T    
C45   I12   S    
C43   C67   A    
C87   C90   A    
C67   C93   A    
C19   O18   A    
C16   O14   A    
C19   C62   S    
C20   C60   S    
C104  H3    S    
C34   O31   A    
C25   C33   S    
O24   Zn9   S    
C21   O25   A    
C70   C86   A    
