data_mof_unit_21028.cif
_audit_creation_date              2012-12-10T18:09:38-0500
_audit_creation_method            fapswitch 2.2
_symmetry_space_group_name_H-M    P1
_symmetry_Int_Tables_number       1
_space_group_crystal_system       triclinic
_cell_length_a                    15.213459
_cell_length_b                    15.152381
_cell_length_c                    9.410419
_cell_angle_alpha                 89.923213
_cell_angle_beta                  89.885881
_cell_angle_gamma                 89.965442
_cell_volume                      2169.28434181

loop_
_atom_site_label
_atom_site_type_symbol
_atom_type_description
_atom_site_fract_x
_atom_site_fract_y
_atom_site_fract_z
_atom_type_partial_charge
C1    C     C_R   0.121781 0.381577 0.500143 0.803687
C2    C     C_R   0.121229 0.619026 0.500100 0.764664
C3    C     C_R   0.621779 0.881575 0.500143 0.803698
C4    C     C_R   0.621227 0.119029 0.500099 0.764652
C5    C     C_3   0.091632 0.507726 0.083572 -0.188195
C6    C     C_3   0.091637 0.507759 0.915857 -0.195056
C7    C     C_3   0.591635 0.007706 0.083572 -0.188205
C8    C     C_3   0.591639 0.007740 0.915857 -0.195041
C9    C     C_R   0.881820 0.378203 0.500356 0.844112
C10   C     C_R   0.883797 0.623545 0.500108 0.754127
C11   C     C_R   0.381823 0.878200 0.500355 0.844149
C12   C     C_R   0.383800 0.123548 0.500108 0.754123
C13   C     C_3   0.800471 0.269695 0.655243 0.033331
C14   C     C_3   0.837764 0.232750 0.392837 0.032734
C15   C     C_3   0.813294 0.743433 0.649497 0.032125
C16   C     C_3   0.831926 0.763329 0.375378 0.026860
C17   C     C_3   0.300498 0.769668 0.655238 0.033327
C18   C     C_3   0.337733 0.732773 0.392768 0.032657
C19   C     C_3   0.313330 0.243468 0.649465 0.032118
C20   C     C_3   0.331903 0.263304 0.375332 0.026854
C21   C     C_3   0.227002 0.699693 0.654375 -0.420391
C22   C     C_3   0.269430 0.656989 0.404921 -0.427314
C23   C     C_3   0.236974 0.310735 0.649854 -0.381809
C24   C     C_3   0.264765 0.339456 0.389545 -0.378363
C25   C     C_3   0.726985 0.199713 0.654374 -0.420456
C26   C     C_3   0.769432 0.156983 0.404945 -0.427147
C27   C     C_3   0.736928 0.810687 0.649891 -0.381797
C28   C     C_3   0.764794 0.839485 0.389613 -0.378364
C29   C     C_3   0.725643 0.348003 0.453589 -0.527107
C30   C     C_3   0.726735 0.652155 0.475823 -0.496017
C31   C     C_3   0.225635 0.848012 0.453657 -0.527105
C32   C     C_3   0.226737 0.152156 0.475901 -0.496004
C33   C     C_3   0.814651 0.307436 0.501510 0.159398
C34   C     C_3   0.818095 0.695780 0.500736 0.091034
C35   C     C_3   0.314654 0.807435 0.501509 0.159350
C36   C     C_3   0.318100 0.195784 0.500734 0.091046
C37   C     C_3   0.191607 0.686448 0.501043 0.130046
C38   C     C_3   0.193082 0.315113 0.500972 0.083947
C39   C     C_3   0.691603 0.186451 0.501040 0.130017
C40   C     C_3   0.693078 0.815109 0.500973 0.083956
C41   C     C_3   0.154489 0.775587 0.446541 -0.404273
C42   C     C_3   0.154428 0.223271 0.465840 -0.394177
C43   C     C_3   0.654493 0.275581 0.446500 -0.404298
C44   C     C_3   0.654431 0.723275 0.465744 -0.394141
C45   C     C_3   0.949496 0.574595 0.083676 -0.184486
C46   C     C_3   0.949479 0.574568 0.916370 -0.181151
C47   C     C_3   0.963114 0.417542 0.083985 -0.194686
C48   C     C_3   0.963189 0.417550 0.916611 -0.185532
C49   C     C_3   0.449512 0.074608 0.083676 -0.184489
C50   C     C_3   0.449494 0.074580 0.916369 -0.181137
C51   C     C_3   0.463096 0.917550 0.083985 -0.194649
C52   C     C_3   0.463172 0.917558 0.916611 -0.185592
Cu1   Cu    Cu3+1 0.000100 0.500000 0.642410 0.894507
Cu2   Cu    Cu3+1 0.000100 0.500000 0.357590 0.888368
Cu3   Cu    Cu3+1 0.500100 0.000000 0.642410 0.894495
Cu4   Cu    Cu3+1 0.500100 0.000000 0.357590 0.888407
H1    H     H_    0.777258 0.325181 0.723664 0.121579
H2    H     H_    0.830778 0.261723 0.284251 0.128113
H3    H     H_    0.796897 0.692744 0.731175 0.149575
H4    H     H_    0.816664 0.728235 0.274340 0.154222
H5    H     H_    0.277293 0.825148 0.723684 0.121553
H6    H     H_    0.330695 0.761764 0.284204 0.128270
H7    H     H_    0.296940 0.192799 0.731174 0.149591
H8    H     H_    0.316627 0.228184 0.274326 0.154225
H9    H     H_    0.250409 0.635571 0.698089 0.151654
H10   H     H_    0.298915 0.595706 0.449319 0.142543
H11   H     H_    0.259503 0.377694 0.681774 0.152793
H12   H     H_    0.297631 0.401821 0.422181 0.152130
H13   H     H_    0.750403 0.135599 0.698098 0.151687
H14   H     H_    0.798875 0.095680 0.449334 0.142447
H15   H     H_    0.759439 0.877639 0.681897 0.152809
H16   H     H_    0.797662 0.901837 0.422333 0.152121
H17   H     H_    0.172800 0.722332 0.725329 0.151374
H18   H     H_    0.245565 0.640341 0.296502 0.147746
H19   H     H_    0.187607 0.289964 0.730859 0.151673
H20   H     H_    0.234860 0.351754 0.283531 0.150054
H21   H     H_    0.672776 0.222347 0.725313 0.151390
H22   H     H_    0.745577 0.140355 0.296517 0.147729
H23   H     H_    0.687537 0.789877 0.730843 0.151662
H24   H     H_    0.734919 0.851826 0.283583 0.150046
H25   H     H_    0.704645 0.400477 0.529144 0.161063
H26   H     H_    0.732236 0.379844 0.347387 0.171083
H27   H     H_    0.711005 0.605843 0.564284 0.161724
H28   H     H_    0.727021 0.612451 0.376290 0.167777
H29   H     H_    0.204645 0.900463 0.529262 0.161075
H30   H     H_    0.232208 0.879888 0.347477 0.171064
H31   H     H_    0.211032 0.105858 0.564390 0.161732
H32   H     H_    0.227000 0.112435 0.376388 0.167767
H33   H     H_    0.097012 0.795793 0.512185 0.153248
H34   H     H_    0.131643 0.768403 0.334871 0.175562
H35   H     H_    0.100292 0.206872 0.541096 0.182820
H36   H     H_    0.126307 0.223723 0.356725 0.176392
H37   H     H_    0.597016 0.295801 0.512131 0.153255
H38   H     H_    0.631649 0.268382 0.334834 0.175561
H39   H     H_    0.600267 0.706855 0.540944 0.182749
H40   H     H_    0.626346 0.723754 0.356601 0.176476
H41   H     H_    0.976301 0.638336 0.123020 0.143376
H42   H     H_    0.976278 0.638294 0.876588 0.153340
H43   H     H_    0.000163 0.359301 0.124066 0.140491
H44   H     H_    0.000428 0.359402 0.876717 0.153787
H45   H     H_    0.476331 0.138342 0.123018 0.143378
H46   H     H_    0.476306 0.138301 0.876585 0.153325
H47   H     H_    0.500132 0.859300 0.124067 0.140577
H48   H     H_    0.500400 0.859402 0.876718 0.153761
H49   H     H_    0.880305 0.570654 0.121571 0.135732
H50   H     H_    0.880293 0.570538 0.879016 0.134599
H51   H     H_    0.894146 0.409611 0.121078 0.135553
H52   H     H_    0.894279 0.409652 0.879864 0.142097
H53   H     H_    0.380320 0.070682 0.121570 0.135731
H54   H     H_    0.380307 0.070564 0.879018 0.134597
H55   H     H_    0.394126 0.909635 0.121077 0.135552
H56   H     H_    0.394259 0.909673 0.879863 0.142051
H57   H     H_    0.123113 0.569513 0.121389 0.136185
H58   H     H_    0.123073 0.569603 0.877778 0.137356
H59   H     H_    0.133275 0.452503 0.122517 0.135855
H60   H     H_    0.133360 0.452606 0.876765 0.137274
H61   H     H_    0.623129 0.069486 0.121391 0.136183
H62   H     H_    0.623088 0.069578 0.877777 0.137349
H63   H     H_    0.633266 0.952473 0.122515 0.135858
H64   H     H_    0.633351 0.952578 0.876766 0.137276
N1    N     N_3   0.001260 0.500000 0.143650 -0.111030
N2    N     N_3   0.001260 0.500000 0.856350 -0.115338
N3    N     N_3   0.501260 0.000000 0.143650 -0.111041
N4    N     N_3   0.501260 0.000000 0.856350 -0.115316
O1    O     O_R   0.091250 0.408820 0.620260 -0.591640
O2    O     O_R   0.091250 0.408820 0.379740 -0.591605
O3    O     O_R   0.091250 0.591180 0.620260 -0.600479
O4    O     O_R   0.091250 0.591180 0.379740 -0.600519
O5    O     O_R   0.591250 0.908820 0.620260 -0.591654
O6    O     O_R   0.591250 0.908820 0.379740 -0.591575
O7    O     O_R   0.591250 0.091180 0.620260 -0.600475
O8    O     O_R   0.591250 0.091180 0.379740 -0.600526
O9    O     O_R   0.908940 0.408800 0.620260 -0.579916
O10   O     O_R   0.908940 0.408800 0.379740 -0.599540
O11   O     O_R   0.908940 0.591200 0.620260 -0.598971
O12   O     O_R   0.908940 0.591200 0.379740 -0.600954
O13   O     O_R   0.408940 0.908800 0.620260 -0.579967
O14   O     O_R   0.408940 0.908800 0.379740 -0.599470
O15   O     O_R   0.408940 0.091200 0.620260 -0.598970
O16   O     O_R   0.408940 0.091200 0.379740 -0.600961
N5    N     N_3   0.882170 0.235593 0.718052 -0.589271
H65   H     H_    0.874831 0.235483 0.828604 0.185741
H66   H     H_    0.892468 0.169905 0.689468 0.216514
N6    N     N_3   0.929088 0.201943 0.406079 -0.610067
H67   H     H_    0.950802 0.181342 0.305924 0.195462
H68   H     H_    0.933696 0.146578 0.471554 0.216518
N7    N     N_3   0.896131 0.784647 0.695774 -0.625603
H69   H     H_    0.950794 0.750033 0.658333 0.216546
H70   H     H_    0.901258 0.849851 0.660813 0.211888
N8    N     N_3   0.921695 0.797620 0.359014 -0.629033
H71   H     H_    0.967052 0.746046 0.354881 0.217203
H72   H     H_    0.938888 0.839707 0.441565 0.214934
N9    N     N_3   0.382208 0.735558 0.718011 -0.589344
H73   H     H_    0.374939 0.735582 0.828577 0.185771
H74   H     H_    0.392431 0.669822 0.689630 0.216264
N10   N     N_3   0.429062 0.701969 0.405844 -0.610121
H75   H     H_    0.450565 0.680996 0.305777 0.195528
H76   H     H_    0.433751 0.646827 0.471784 0.216660
N11   N     N_3   0.396180 0.284676 0.695687 -0.625607
H77   H     H_    0.450833 0.250040 0.658263 0.216539
H78   H     H_    0.401315 0.349868 0.660675 0.211894
N12   N     N_3   0.421664 0.297599 0.358907 -0.629061
H79   H     H_    0.467029 0.246035 0.354805 0.217215
H80   H     H_    0.438860 0.339713 0.441404 0.214953

loop_
_geom_bond_atom_site_label_1
_geom_bond_atom_site_label_2
_ccdc_geom_bond_type
C16   C28   S    
C41   H33   S    
Cu3   Cu4   S    
C31   H29   S    
C29   C33   S    
C3    O6    A    
C51   N3    S    
C7    H61   S    
N7    H69   S    
Cu1   O11   S    
C52   H56   S    
C17   N9    S    
C14   C33   S    
C8    H62   S    
C7    C8    S    
C4    O8    A    
C45   C46   S    
C29   H25   S    
Cu2   O2    S    
C26   H22   S    
Cu3   O15   S    
C37   C41   S    
C25   H21   S    
C32   C36   S    
N10   H75   S    
N7    H70   S    
C11   O14   A    
C1    O1    A    
C38   C42   S    
C27   H23   S    
C19   C36   S    
N5    H66   S    
C49   H45   S    
C5    C6    S    
Cu4   O16   S    
C26   C39   S    
C47   N1    S    
C13   H1    S    
C28   C40   S    
C51   H47   S    
Cu2   O10   S    
C21   H17   S    
C50   H54   S    
C43   H38   S    
C47   H43   S    
C21   C37   S    
C42   H35   S    
C16   H4    S    
C23   H11   S    
C30   H27   S    
C22   H10   S    
Cu1   O3    S    
C17   H5    S    
C21   H9    S    
C6    H58   S    
C20   C24   S    
C19   H7    S    
Cu3   O5    S    
C47   C48   S    
C24   C38   S    
C12   O16   A    
C22   C37   S    
C13   N5    S    
C12   C36   S    
C18   C35   S    
C15   C34   S    
C16   C34   S    
C2    O3    A    
C41   H34   S    
C46   H42   S    
C20   N12   S    
C31   H30   S    
C18   C22   S    
C5    H59   S    
C9    C33   S    
C30   C44   S    
C28   H16   S    
C14   H2    S    
C45   H49   S    
C4    O7    A    
N12   H80   S    
C48   H44   S    
C14   N6    S    
C30   C34   S    
C51   C52   S    
Cu4   N3    S    
C7    H63   S    
C22   H18   S    
Cu1   O9    S    
C1    O2    A    
N6    H68   S    
C23   H19   S    
C8    N4    S    
C39   C43   S    
C45   N1    S    
Cu1   Cu2   S    
C32   H31   S    
Cu2   O4    S    
C17   C21   S    
C15   N7    S    
C20   H8    S    
C19   C23   S    
C13   C33   S    
C44   H40   S    
Cu4   O14   S    
C15   C27   S    
N11   H77   S    
C4    C39   S    
C27   C40   S    
C10   O12   A    
Cu2   O12   S    
N11   H78   S    
C12   O15   A    
C50   N4    S    
C9    O9    A    
C10   C34   S    
C14   C26   S    
C6    H60   S    
Cu4   O8    S    
Cu1   O1    S    
C1    C38   S    
C29   C43   S    
Cu2   N1    S    
C3    C40   S    
C50   H46   S    
Cu3   O7    S    
C26   H14   S    
N8    H72   S    
N9    H74   S    
C6    N2    S    
C27   H15   S    
C8    H64   S    
C49   H53   S    
N12   H79   S    
Cu3   N4    S    
C52   H48   S    
C5    N1    S    
C51   H55   S    
C31   C41   S    
C5    H57   S    
C3    O5    A    
C15   H3    S    
C18   H6    S    
C18   N10   S    
C7    N3    S    
N6    H67   S    
C13   C25   S    
C23   C38   S    
C47   H51   S    
Cu3   O13   S    
Cu1   N2    S    
C19   N11   S    
N10   H76   S    
C11   O13   A    
C10   O11   A    
C44   H39   S    
C45   H41   S    
N5    H65   S    
C9    O10   A    
C48   N2    S    
C52   N4    S    
C2    C37   S    
C48   H52   S    
C46   H50   S    
C31   C35   S    
C11   C35   S    
C43   H37   S    
C42   H36   S    
C30   H28   S    
C28   H24   S    
Cu4   O6    S    
C24   H12   S    
C24   H20   S    
C20   C36   S    
C40   C44   S    
C25   H13   S    
C29   H26   S    
C49   N3    S    
C49   C50   S    
C32   C42   S    
N8    H71   S    
C46   N2    S    
C16   N8    S    
C17   C35   S    
N9    H73   S    
C25   C39   S    
C2    O4    A    
C32   H32   S    
