data_mof_unit_36331.cif
_audit_creation_date              2012-12-11T16:23:54-0500
_audit_creation_method            fapswitch 2.2
_symmetry_space_group_name_H-M    P1
_symmetry_Int_Tables_number       1
_space_group_crystal_system       triclinic
_cell_length_a                    14.749179
_cell_length_b                    14.753965
_cell_length_c                    33.301894
_cell_angle_alpha                 96.093062
_cell_angle_beta                  96.175323
_cell_angle_gamma                 61.226207
_cell_volume                      6302.84578353

loop_
_atom_site_label
_atom_site_type_symbol
_atom_type_description
_atom_site_fract_x
_atom_site_fract_y
_atom_site_fract_z
_atom_type_partial_charge
C1    C     C_R   0.391002 0.699724 0.446199 0.546486
C2    C     C_1   0.312953 0.337837 0.229381 -0.009440
C3    C     C_1   0.488229 0.886049 0.167167 0.222425
C4    C     C_1   0.934554 0.103580 0.877478 0.225474
C5    C     C_1   0.800644 0.175136 0.671566 0.193199
C6    C     C_1   0.847734 0.478766 0.898065 0.225599
C7    C     C_1   0.479056 0.898093 0.817351 0.200433
C8    C     C_1   0.318500 0.342238 0.265708 -0.008970
C9    C     C_R   0.405902 0.386294 0.433998 0.544392
C10   C     C_R   0.290604 0.293573 0.102020 0.017502
C11   C     C_R   0.756649 0.373138 0.410211 0.008012
C12   C     C_R   0.795266 0.432017 0.394965 -0.131828
C13   C     C_R   0.824877 0.412895 0.355212 -0.011153
C14   C     C_R   0.815571 0.333775 0.330205 0.023580
C15   C     C_R   0.787453 0.268276 0.346961 -0.130135
C16   C     C_R   0.758070 0.287821 0.386627 -0.134502
C17   C     C_R   0.329103 0.346213 0.308982 0.040488
C18   C     C_R   0.826671 0.312609 0.204472 0.338925
C19   C     C_R   0.823304 0.325319 0.286156 0.337743
C20   C     C_R   0.854053 0.383149 0.145829 -0.131028
C21   C     C_R   0.700847 0.409922 0.447543 0.548194
C22   C     C_R   0.885835 0.372052 0.107171 -0.141038
C23   C     C_R   0.879732 0.209584 0.094825 -0.037903
C24   C     C_R   0.847147 0.221163 0.134331 -0.024884
C25   C     C_R   0.839998 0.305815 0.160712 0.009963
C26   C     C_R   0.905123 0.282958 0.082005 -0.004681
C27   C     C_R   0.371005 0.755991 0.409625 0.020891
C28   C     C_R   0.411596 0.264030 0.328589 -0.106654
C29   C     C_R   0.276211 0.788628 0.386694 -0.129458
C30   C     C_R   0.265638 0.819684 0.347645 -0.116745
C31   C     C_R   0.349860 0.818123 0.330900 0.034192
C32   C     C_R   0.441449 0.794343 0.355162 -0.115879
C33   C     C_R   0.393412 0.701388 0.561236 0.543232
C34   C     C_R   0.451851 0.763794 0.394258 -0.128418
C35   C     C_R   0.341510 0.841398 0.206382 0.340165
C36   C     C_R   0.345668 0.831416 0.287458 0.341234
C37   C     C_R   0.255851 0.844061 0.138127 -0.124606
C38   C     C_R   0.235806 0.870782 0.098116 -0.126222
C39   C     C_R   0.431945 0.273617 0.370248 -0.123948
C40   C     C_R   0.383196 0.902686 0.104192 -0.131605
C41   C     C_R   0.403574 0.876767 0.144515 -0.014882
C42   C     C_R   0.336492 0.851297 0.162408 0.020259
C43   C     C_R   0.296276 0.905106 0.081451 0.006447
C44   C     C_R   0.371687 0.369208 0.585159 0.020545
C45   C     C_R   0.407373 0.388891 0.549036 0.546017
C46   C     C_R   0.285220 0.448685 0.604082 -0.130165
C47   C     C_R   0.266101 0.439252 0.643123 -0.120085
C48   C     C_R   0.333255 0.350292 0.663796 0.032887
C49   C     C_R   0.414074 0.267275 0.643446 -0.115053
C50   C     C_R   0.392744 0.251169 0.166107 -0.101061
C51   C     C_R   0.433023 0.276571 0.604452 -0.126351
C52   C     C_R   0.318362 0.346806 0.788309 0.344996
C53   C     C_R   0.325383 0.347300 0.707288 0.344545
C54   C     C_R   0.218375 0.402640 0.850340 -0.118076
C55   C     C_R   0.207276 0.383396 0.889140 -0.127498
C56   C     C_R   0.386060 0.247858 0.892687 -0.123746
C57   C     C_R   0.701535 0.413504 0.562586 0.545629
C58   C     C_R   0.397084 0.266995 0.853970 -0.112467
C59   C     C_R   0.311983 0.341206 0.831724 0.031255
C60   C     C_R   0.289681 0.302473 0.909821 0.018788
C61   C     C_R   0.384118 0.233456 0.124248 -0.117746
C62   C     C_R   0.754551 0.380252 0.602656 0.006258
C63   C     C_R   0.777836 0.447697 0.629355 -0.129518
C64   C     C_R   0.805641 0.427227 0.670048 -0.124732
C65   C     C_R   0.810936 0.339130 0.684566 0.025799
C66   C     C_R   0.794563 0.267474 0.657631 0.002505
C67   C     C_R   0.766907 0.288168 0.616818 -0.129721
C68   C     C_R   0.879657 0.216557 0.822127 -0.113198
C69   C     C_R   0.370088 0.365970 0.392630 0.018622
C70   C     C_R   0.905829 0.203933 0.863530 -0.034556
C71   C     C_R   0.863840 0.386102 0.873441 -0.027680
C72   C     C_R   0.208616 0.376397 0.122128 -0.123952
C73   C     C_R   0.838115 0.396475 0.831949 -0.118381
C74   C     C_R   0.850228 0.311105 0.806278 0.011515
C75   C     C_1   0.836224 0.319794 0.763375 -0.004091
C76   C     C_1   0.825695 0.327728 0.727434 -0.004381
C77   C     C_R   0.905336 0.287224 0.889696 -0.013302
C78   C     C_R   0.375933 0.755132 0.601899 0.019255
C79   C     C_R   0.280110 0.791131 0.618759 -0.123356
C80   C     C_R   0.270022 0.820572 0.659932 -0.109940
C81   C     C_R   0.282889 0.445257 0.373023 -0.121005
C82   C     C_R   0.355286 0.814720 0.684639 0.039627
C83   C     C_R   0.217461 0.393826 0.164026 -0.106951
C84   C     C_R   0.449075 0.785244 0.667751 -0.106243
C85   C     C_R   0.459366 0.755926 0.626524 -0.126923
C86   C     C_R   0.395431 0.889592 0.832484 0.001634
C87   C     C_R   0.375364 0.916227 0.873367 -0.126089
C88   C     C_R   0.231355 0.878529 0.863110 -0.123159
C89   C     C_R   0.251317 0.851563 0.822346 -0.122806
C90   C     C_R   0.331160 0.859785 0.806635 0.023665
C91   C     C_1   0.341578 0.843621 0.763670 -0.006963
C92   C     C_1   0.348395 0.831327 0.727639 -0.008969
C93   C     C_R   0.262815 0.435461 0.331327 -0.101415
C94   C     C_R   0.308386 0.329263 0.186094 0.038106
C95   C     C_R   0.290968 0.914463 0.888716 0.002924
C96   C     C_R   0.962997 0.264319 0.045579 0.543073
C97   C     C_R   0.272567 0.259336 0.060099 0.543292
C98   C     C_R   0.259133 0.959888 0.043838 0.544440
C99   C     C_R   0.961348 0.268062 0.930740 0.535636
C100  C     C_R   0.270843 0.263961 0.945337 0.544172
C101  C     C_R   0.256205 0.965051 0.928950 0.542463
C102  C     C_1   0.862645 0.476706 0.340748 0.218545
C103  C     C_1   0.887993 0.121857 0.068206 0.228202
C104  C     C_1   0.820736 0.146580 0.147425 0.230305
Cr1   Cr    Cr6+3 0.576280 0.580550 0.506370 1.018118
Cr2   Cr    Cr6+3 0.346780 0.572400 0.496520 1.018342
Cr3   Cr    Cr6+3 0.576960 0.347070 0.497150 1.018359
Cr4   Cr    Cr6+3 0.087320 0.083240 0.984860 1.080747
Cr5   Cr    Cr6+3 0.087720 0.316210 0.996740 1.041952
Cr6   Cr    Cr6+3 0.317350 0.090340 0.995890 1.029289
H1    H     H_    0.448572 0.169102 0.109684 0.144353
H2    H     H_    0.193496 0.839034 0.329856 0.143274
H3    H     H_    0.507063 0.794241 0.343317 0.145017
H4    H     H_    0.204650 0.822485 0.150667 0.148166
H5    H     H_    0.431272 0.928129 0.091506 0.137791
H6    H     H_    0.236166 0.520821 0.589842 0.131956
H7    H     H_    0.499588 0.213524 0.590471 0.137171
H8    H     H_    0.132133 0.427138 0.901690 0.145198
H9    H     H_    0.202436 0.504048 0.657880 0.136718
H10   H     H_    0.465963 0.196848 0.658317 0.145931
H11   H     H_    0.463091 0.194530 0.311419 0.125694
H12   H     H_    0.729585 0.240461 0.397755 0.135736
H13   H     H_    0.151759 0.461228 0.834095 0.141752
H14   H     H_    0.451332 0.185871 0.908125 0.142824
H15   H     H_    0.470901 0.219800 0.840733 0.149430
H16   H     H_    0.885095 0.151568 0.801946 0.134184
H17   H     H_    0.749648 0.234985 0.596637 0.131319
H18   H     H_    0.768846 0.519262 0.619383 0.134094
H19   H     H_    0.811311 0.470810 0.819399 0.124845
H20   H     H_    0.499559 0.211194 0.384439 0.132388
H21   H     H_    0.818577 0.482599 0.690577 0.123232
H22   H     H_    0.422400 0.943646 0.892626 0.139759
H23   H     H_    0.901804 0.431062 0.098100 0.147326
H24   H     H_    0.515440 0.780668 0.686723 0.126619
H25   H     H_    0.534308 0.728088 0.614533 0.130258
H26   H     H_    0.214461 0.791428 0.600626 0.132058
H27   H     H_    0.201774 0.828093 0.802700 0.128848
H28   H     H_    0.166250 0.875879 0.874075 0.162309
H29   H     H_    0.197015 0.843637 0.672798 0.120936
H30   H     H_    0.233822 0.517357 0.389387 0.133682
H31   H     H_    0.151925 0.454667 0.179354 0.124091
H32   H     H_    0.135491 0.423850 0.105914 0.133482
H33   H     H_    0.198608 0.499325 0.316298 0.127952
H34   H     H_    0.780898 0.206396 0.328505 0.141396
H35   H     H_    0.797363 0.496379 0.413285 0.133449
H36   H     H_    0.847038 0.449964 0.165027 0.152658
H37   H     H_    0.212216 0.784378 0.397940 0.134036
H38   H     H_    0.525603 0.740016 0.411382 0.135029
H39   H     H_    0.168936 0.870769 0.081115 0.153583
H40   H     H_    0.463578 0.201094 0.183057 0.136796
N1    N     N_R   0.788977 0.405815 0.225649 -0.217685
N2    N     N_R   0.432774 0.810020 0.269508 -0.215618
N3    N     N_R   0.430660 0.815125 0.229770 -0.193121
N4    N     N_R   0.239793 0.421943 0.766678 -0.231042
N5    N     N_1   0.892975 0.527813 0.329210 -0.275580
N6    N     N_1   0.894514 0.051763 0.047037 -0.270982
N7    N     N_1   0.799588 0.087037 0.157796 -0.257070
N8    N     N_1   0.556075 0.893703 0.185196 -0.259545
N9    N     N_1   0.957011 0.023185 0.888502 -0.279727
N10   N     N_1   0.805477 0.101202 0.682746 -0.294467
N11   N     N_1   0.834658 0.553154 0.917683 -0.277148
N12   N     N_R   0.243571 0.422582 0.726955 -0.231973
N13   N     N_1   0.545995 0.904972 0.805220 -0.280444
N14   N     N_R   0.403720 0.272305 0.728954 -0.219878
N15   N     N_R   0.400126 0.271881 0.768610 -0.218489
N16   N     N_R   0.786681 0.412075 0.265639 -0.195638
N17   N     N_R   0.859776 0.232029 0.265066 -0.217935
N18   N     N_R   0.862429 0.225776 0.225005 -0.196135
N19   N     N_R   0.254520 0.862515 0.224363 -0.219373
N20   N     N_R   0.256608 0.857246 0.264064 -0.222082
O1    O     O_R   0.679450 0.499830 0.463150 -0.517432
O2    O     O_R   0.340240 0.172500 0.045430 -0.514843
O3    O     O_R   0.309670 0.000990 0.032050 -0.503825
O4    O     O_R   0.480650 0.664000 0.464630 -0.501491
O5    O     O_R   0.168330 0.982130 0.939200 -0.494886
O6    O     O_R   0.000140 0.178170 0.944610 -0.483591
O7    O     O_R   0.983010 0.336750 0.948660 -0.497740
O8    O     O_R   0.181800 0.312190 0.959860 -0.499627
O9    O     O_R   0.338500 0.175680 0.956950 -0.515767
O10   O     O_R   0.308050 0.003930 0.950020 -0.503852
O11   O     O_3   0.164130 0.163270 0.992500 -0.253352
O12   O     O_R   0.356040 0.477400 0.534170 -0.501557
O13   O     O_R   0.323930 0.675950 0.455370 -0.518348
O14   O     O_R   0.354700 0.475360 0.451930 -0.501049
O15   O     O_R   0.494470 0.320860 0.448390 -0.518771
O16   O     O_R   0.662580 0.357570 0.460050 -0.501328
O17   O     O_R   0.680900 0.502040 0.551870 -0.518644
O18   O     O_R   0.481990 0.666040 0.546870 -0.502026
O19   O     O_R   0.325370 0.678160 0.544080 -0.518254
O20   O     O_R   0.495910 0.323070 0.537100 -0.517883
O21   O     O_R   0.663920 0.359620 0.542290 -0.501300
O22   O     O_3   0.500010 0.500010 0.500010 -0.238498
O23   O     O_R   0.170070 0.978950 0.027680 -0.502009
O24   O     O_R   0.001760 0.175230 0.026640 -0.482442
O25   O     O_R   0.984760 0.333570 0.037150 -0.517808
O26   O     O_R   0.183410 0.309240 0.041890 -0.501867

loop_
_geom_bond_atom_site_label_1
_geom_bond_atom_site_label_2
_ccdc_geom_bond_type
C87   H22   S    
C81   H30   S    
C54   H13   S    
C44   C51   A    
C40   H5    S    
C27   C29   A    
C73   C74   A    
Cr3   O21   S    
C43   C98   S    
Cr2   O22   S    
C104  N7    T    
C100  O8    A    
C4    C70   S    
C1    O13   A    
C21   O16   A    
C72   H32   S    
C79   H26   S    
Cr3   O16   S    
C84   H24   S    
C29   C30   A    
C65   C76   S    
C62   C67   A    
C56   H14   S    
C97   O26   A    
N14   N15   A    
C9    C69   S    
C57   O21   A    
C9    O15   A    
C31   C36   S    
C3    C41   S    
C30   C31   A    
C53   N12   A    
C4    N9    T    
C20   C25   A    
C68   C74   A    
C15   C16   A    
Cr4   O5    S    
C82   C92   S    
Cr5   O26   S    
C33   O19   A    
C41   C42   A    
C23   C26   A    
C37   C42   A    
C35   C42   S    
C16   H12   S    
Cr2   O12   S    
C46   C47   A    
C34   H38   S    
Cr5   O8    S    
C40   C43   A    
C23   C103  S    
C99   O6    A    
C47   C48   A    
Cr6   O11   S    
C49   C51   A    
C87   C95   A    
Cr3   O22   S    
C3    N8    T    
C23   C24   A    
C6    N11   T    
Cr5   O25   S    
C19   N16   A    
C32   H3    S    
C38   H39   S    
C63   H18   S    
C93   H33   S    
C1    C27   S    
C96   O24   A    
C66   C67   A    
C88   C95   A    
C13   C14   A    
C70   C77   A    
Cr1   O22   S    
C6    C71   S    
C18   C25   S    
C19   N17   A    
C44   C46   A    
C45   O12   A    
C54   C59   A    
C96   O25   A    
C27   C34   A    
C26   C96   S    
C48   C53   S    
C73   H19   S    
C1    O4    A    
C74   C75   S    
C22   H23   S    
N19   N20   A    
C2    C94   S    
C24   C25   A    
C80   C82   A    
C86   C90   A    
C89   C90   A    
N17   N18   A    
C71   C73   A    
C98   O3    A    
C18   N18   A    
C86   C87   A    
C50   C94   A    
C49   H10   S    
C28   C39   A    
C57   C62   S    
C58   C59   A    
C21   O1    A    
C83   C94   A    
C7    N13   T    
C11   C21   S    
C63   C64   A    
C98   O23   A    
C30   H2    S    
C24   C104  S    
C32   C34   A    
C12   H35   S    
C10   C97   S    
C75   C76   T    
C37   C38   A    
C52   C59   S    
C67   H17   S    
C52   N15   A    
C81   C93   A    
C11   C16   A    
C50   H40   S    
C31   C32   A    
C64   H21   S    
Cr6   O10   S    
C5    N10   T    
Cr2   O14   S    
C62   C63   A    
C39   C69   A    
C84   C85   A    
C97   O2    A    
C88   H28   S    
C85   H25   S    
Cr4   O11   S    
C78   C85   A    
C40   C41   A    
C20   C22   A    
C89   H27   S    
Cr1   O4    S    
C10   C72   A    
C35   N19   A    
C20   H36   S    
C79   C80   A    
C101  O5    A    
C10   C61   A    
C17   C93   A    
Cr4   O24   S    
C18   N1    A    
N1    N16   A    
C68   H16   S    
C71   C77   A    
C44   C45   S    
Cr1   O18   S    
C83   H31   S    
Cr6   O3    S    
Cr5   O11   S    
C54   C55   A    
C48   C49   A    
Cr1   O1    S    
C28   H11   S    
C17   C28   A    
C36   N20   A    
C14   C19   S    
N4    N12   A    
C36   N2    A    
C35   N3    A    
C5    C66   S    
C60   C100  S    
C29   H37   S    
C11   C12   A    
C53   N14   A    
C99   O7    A    
C37   H4    S    
C39   H20   S    
C80   H29   S    
Cr3   O15   S    
C82   C84   A    
C8    C17   S    
C46   H6    S    
C64   C65   A    
Cr1   O17   S    
Cr4   O23   S    
C38   C43   A    
C101  O10   A    
C78   C79   A    
C90   C91   S    
Cr6   O9    S    
Cr4   O6    S    
Cr3   O20   S    
C47   H9    S    
C51   H7    S    
C56   C58   A    
C77   C99   S    
C33   O18   A    
C33   C78   S    
Cr2   O13   S    
C57   O17   A    
C72   C83   A    
C69   C81   A    
C15   H34   S    
C7    C86   S    
Cr5   O7    S    
C103  N6    T    
C56   C60   A    
C88   C89   A    
C58   H15   S    
C68   C70   A    
C65   C66   A    
C22   C26   A    
C2    C8    T    
C9    O14   A    
C50   C61   A    
C14   C15   A    
N2    N3    A    
Cr2   O19   S    
C12   C13   A    
C13   C102  S    
C55   C60   A    
C100  O9    A    
C52   N4    A    
C102  N5    T    
C45   O20   A    
C91   C92   T    
C95   C101  S    
Cr6   O2    S    
C55   H8    S    
C61   H1    S    
