data_mof_unit_65353.cif
_audit_creation_date              2012-10-26T19:38:04-0400
_audit_creation_method            fapswitch 2.2
_symmetry_space_group_name_H-M    P1
_symmetry_Int_Tables_number       1
_space_group_crystal_system       triclinic
_cell_length_a                    10.646645
_cell_length_b                    15.793496
_cell_length_c                    17.147808
_cell_angle_alpha                 95.6814
_cell_angle_beta                  90.165538
_cell_angle_gamma                 92.236087
_cell_volume                      2866.95059005

loop_
_atom_site_label
_atom_site_type_symbol
_atom_type_description
_atom_site_fract_x
_atom_site_fract_y
_atom_site_fract_z
_atom_type_partial_charge
C1    C     C_R   0.501759 0.490279 0.348630 0.584493
C2    C     C_R   0.560760 0.247807 0.538084 0.059685
C3    C     C_R   0.442825 0.841510 0.464033 -0.092906
C4    C     C_R   0.557206 0.158487 0.535946 -0.092926
C5    C     C_R   0.525985 0.891045 0.516053 0.214842
C6    C     C_R   0.474008 0.108954 0.483950 0.214847
C7    C     C_R   0.603061 0.847884 0.564218 -0.120596
C8    C     C_R   0.396900 0.152117 0.435807 -0.120591
C9    C     C_R   0.596507 0.758496 0.560190 0.043077
C10   C     C_R   0.403458 0.241506 0.439833 0.043089
C11   C     C_R   0.259196 0.500387 0.500013 0.584042
C12   C     C_R   0.498244 0.509721 0.651370 0.584503
C13   C     C_R   0.740803 0.499612 0.499985 0.584032
C14   C     C_3   0.039526 0.452788 0.435532 -0.143006
C15   C     C_3   0.960472 0.547213 0.564462 -0.142997
C16   C     C_3   0.960176 0.532377 0.436284 0.238818
C17   C     C_3   0.039822 0.467623 0.563711 0.238824
C18   C     C_3   0.877318 0.498983 0.499995 0.006115
C19   C     C_3   0.122681 0.501017 0.500000 0.006109
C20   C     C_3   0.954966 0.418912 0.500071 -0.125146
C21   C     C_3   0.045032 0.581088 0.499924 -0.125138
C22   C     C_R   0.502923 0.486168 0.262679 0.022460
C23   C     C_R   0.493173 0.475357 0.098233 0.191568
C24   C     C_R   0.497097 0.513833 0.737321 0.022453
C25   C     C_R   0.548878 0.555289 0.222934 0.223117
C26   C     C_R   0.451091 0.444726 0.777066 0.223095
C27   C     C_R   0.543615 0.549435 0.141510 -0.036745
C28   C     C_R   0.456386 0.450570 0.858489 -0.036765
C29   C     C_R   0.506896 0.524628 0.901764 0.191569
C30   C     C_R   0.450524 0.406710 0.137618 -0.109489
C31   C     C_R   0.549585 0.593265 0.862379 -0.109479
C32   C     C_R   0.455308 0.411830 0.219037 -0.184699
C33   C     C_R   0.544781 0.588152 0.780960 -0.184699
C34   C     C_R   0.439273 0.752191 0.461894 0.059728
Cl1   Cl    Cl    0.904844 0.575104 0.350902 -0.501450
Cl2   Cl    Cl    0.095142 0.424902 0.649096 -0.501395
Cl3   Cl    Cl    0.382231 0.350072 0.729141 -0.498726
Cl4   Cl    Cl    0.617601 0.649989 0.270859 -0.498842
Cu1   Cu    Cu3+1 0.493870 0.415220 0.496180 1.024032
Cu2   Cu    Cu3+1 0.506130 0.584780 0.503820 1.024047
H1    H     H_    0.668206 0.883455 0.604902 0.117771
H2    H     H_    0.587961 0.650735 0.895030 0.145412
H3    H     H_    0.624756 0.285242 0.578105 0.145112
H4    H     H_    0.375306 0.714754 0.421855 0.145155
H5    H     H_    0.618972 0.128985 0.574599 0.137944
H6    H     H_    0.381086 0.871010 0.425362 0.137953
H7    H     H_    0.420595 0.396904 0.887611 0.177349
H8    H     H_    0.579365 0.603113 0.112389 0.177355
H9    H     H_    0.419600 0.357930 0.247914 0.137170
H10   H     H_    0.580522 0.642043 0.752082 0.137148
H11   H     H_    0.331727 0.116547 0.395141 0.117771
H12   H     H_    0.656541 0.726196 0.597693 0.121661
H13   H     H_    0.343399 0.273808 0.402345 0.121668
H14   H     H_    0.074394 0.414940 0.382534 0.138252
H15   H     H_    0.925604 0.585060 0.617460 0.138254
H16   H     H_    0.916216 0.352713 0.500847 0.151161
H17   H     H_    0.083782 0.647287 0.499148 0.151169
H18   H     H_    0.412197 0.349227 0.104967 0.145410
N1    N     N_2   0.483762 0.467171 0.015355 -0.232649
N2    N     N_2   0.516314 0.532811 0.984641 -0.232652
N3    N     N_R   0.515330 0.712130 0.509560 -0.221658
N4    N     N_R   0.484670 0.287870 0.490440 -0.221657
N5    N     N_2   0.535728 0.982631 0.522189 -0.227474
N6    N     N_2   0.464263 0.017368 0.477816 -0.227475
O1    O     O_R   0.494270 0.420530 0.382500 -0.530344
O2    O     O_R   0.505730 0.579470 0.617500 -0.530340
O3    O     O_R   0.504620 0.563720 0.388950 -0.442291
O4    O     O_R   0.495380 0.436280 0.611050 -0.442300
O5    O     O_R   0.311680 0.428420 0.496760 -0.474473
O6    O     O_R   0.688320 0.571580 0.503240 -0.474470
O7    O     O_R   0.322030 0.571610 0.503210 -0.522435
O8    O     O_R   0.677970 0.428390 0.496790 -0.522447

loop_
_geom_bond_atom_site_label_1
_geom_bond_atom_site_label_2
_ccdc_geom_bond_type
C27   H8    S    
C15   C18   S    
C28   H7    S    
C16   C21   S    
C31   H2    S    
Cu1   O4    S    
C20   H16   S    
C23   N1    S    
C12   O4    A    
C11   C19   S    
C22   C32   A    
C13   C18   S    
C9    N3    A    
C28   C29   A    
Cu2   O7    S    
C24   C26   A    
C16   Cl1   S    
C11   O7    A    
C13   O6    A    
C17   C20   S    
C5    N5    S    
C15   C17   S    
C6    N6    S    
C10   H13   S    
C1    O3    A    
C22   C25   A    
C1    O1    A    
Cu1   O8    S    
C31   C33   A    
C17   Cl2   S    
C23   C27   A    
C1    C22   S    
Cu2   O2    S    
Cu1   O1    S    
C10   N4    A    
C9    H12   S    
C4    H5    S    
C23   C30   A    
C14   C20   S    
C34   H4    S    
C4    C6    A    
Cu1   Cu2   S    
C5    C7    A    
C6    C8    A    
C3    C34   A    
C33   H10   S    
C12   O2    A    
Cu2   O3    S    
C34   N3    A    
Cu2   N3    S    
C15   H15   S    
C2    C4    A    
C21   H17   S    
C25   Cl4   S    
C29   N2    S    
C15   C21   S    
C2    H3    S    
Cu1   O5    S    
C8    H11   S    
Cu2   O6    S    
C8    C10   A    
C14   H14   S    
C14   C16   S    
C7    C9    A    
Cu1   N4    S    
C19   C21   S    
C14   C19   S    
C3    C5    A    
C11   O5    A    
C26   Cl3   S    
C13   O8    A    
C25   C27   A    
C12   C24   S    
C3    H6    S    
C26   C28   A    
C24   C33   A    
C29   C31   A    
C30   C32   A    
C30   H18   S    
C17   C19   S    
C18   C20   S    
C7    H1    S    
C32   H9    S    
N5    N6    D    
N1    N2    D    
C16   C18   S    
C2    N4    A    
