data_mof_unit_61713.cif
_audit_creation_date              2012-12-10T16:52:49-0500
_audit_creation_method            fapswitch 2.2
_symmetry_space_group_name_H-M    P1
_symmetry_Int_Tables_number       1
_space_group_crystal_system       triclinic
_cell_length_a                    26.212077
_cell_length_b                    26.250871
_cell_length_c                    22.257939
_cell_angle_alpha                 90.003938
_cell_angle_beta                  53.949538
_cell_angle_gamma                 90.027689
_cell_volume                      12382.5338122

loop_
_atom_site_label
_atom_site_type_symbol
_atom_type_description
_atom_site_fract_x
_atom_site_fract_y
_atom_site_fract_z
_atom_type_partial_charge
C1    C     C_R   0.650245 0.249955 0.699476 0.815772
C2    C     C_1   0.889292 0.749855 0.221078 -0.143944
C3    C     C_2   0.251788 0.943914 0.505858 -0.355456
C4    C     C_3   0.472516 0.778148 0.975055 -0.175527
C5    C     C_3   0.472428 0.221683 0.975024 -0.175573
C6    C     C_3   0.970212 0.275203 0.975058 -0.175630
C7    C     C_3   0.969165 0.726852 0.975012 -0.175536
C8    C     C_3   0.855211 0.546792 0.477054 -0.351079
C9    C     C_3   0.872879 0.509508 0.514812 -0.912263
C10   C     C_3   0.856591 0.456942 0.379027 -0.342597
C11   C     C_3   0.836258 0.443611 0.329123 -0.852481
C12   C     C_3   0.354997 0.046949 0.477899 -0.352081
C13   C     C_1   0.389384 0.750121 0.221090 -0.145132
C14   C     C_3   0.372408 0.009794 0.516045 -0.911354
C15   C     C_3   0.357143 0.956934 0.379665 -0.342449
C16   C     C_3   0.337436 0.943699 0.329122 -0.851211
C17   C     C_3   0.490856 0.240966 0.596460 -0.401774
C18   C     C_3   0.497067 0.204739 0.646145 -0.343252
C19   C     C_3   0.437615 0.205383 0.726060 -0.886169
C20   C     C_3   0.546345 0.684130 0.485245 -0.400847
C21   C     C_3   0.604222 0.650713 0.431567 -0.346252
C22   C     C_3   0.584890 0.595950 0.431032 -0.885043
C23   C     C_3   0.990854 0.740969 0.596470 -0.401740
C24   C     C_1   0.389327 0.249886 0.221075 -0.145025
C25   C     C_3   0.997066 0.704751 0.646164 -0.343088
C26   C     C_3   0.937623 0.705414 0.726085 -0.886692
C27   C     C_3   0.990843 0.258897 0.596453 -0.401728
C28   C     C_3   0.997038 0.295073 0.646212 -0.343074
C29   C     C_3   0.937583 0.294323 0.726123 -0.886110
C30   C     C_3   0.973376 0.352789 0.054334 -0.432352
C31   C     C_3   0.005056 0.391804 0.991523 -0.870352
C32   C     C_3   0.968723 0.647397 0.054214 -0.430472
C33   C     C_3   0.998715 0.608497 0.991325 -0.870678
C34   C     C_3   0.481442 0.852247 0.054358 -0.432636
C35   C     C_1   0.610461 0.750169 0.778950 -0.144875
C36   C     C_3   0.516139 0.891123 0.991553 -0.869239
C37   C     C_3   0.481717 0.147763 0.054205 -0.429956
C38   C     C_3   0.516562 0.108975 0.991317 -0.869726
C39   C     C_1   0.610384 0.249781 0.778918 -0.142785
C40   C     C_1   0.110305 0.250285 0.778936 -0.142299
C41   C     C_1   0.110354 0.749758 0.778920 -0.142366
C42   C     C_3   0.987901 0.298373 0.024277 0.222822
C43   C     C_3   0.985715 0.701795 0.024255 0.221528
C44   C     C_3   0.491827 0.798031 0.024292 0.222798
C45   C     C_R   0.650269 0.750012 0.699495 0.820740
C46   C     C_3   0.491829 0.201998 0.024250 0.221458
C47   C     C_3   0.963081 0.250586 0.073094 0.141773
C48   C     C_3   0.963078 0.749528 0.073078 0.141597
C49   C     C_3   0.463338 0.750421 0.073112 0.141915
C50   C     C_3   0.463161 0.249577 0.073073 0.141941
C51   C     C_3   0.556327 0.771021 0.975099 -0.173610
C52   C     C_3   0.556219 0.229218 0.975047 -0.173382
C53   C     C_3   0.054350 0.274485 0.975057 -0.173428
C54   C     C_3   0.053217 0.723788 0.975064 -0.172911
C55   C     C_3   0.536447 0.750553 0.926902 0.170638
C56   C     C_R   0.150240 0.749951 0.699477 0.815896
C57   C     C_3   0.536252 0.249480 0.926857 0.170748
C58   C     C_3   0.036138 0.250730 0.926882 0.170493
C59   C     C_3   0.036173 0.749427 0.926860 0.170527
C60   C     C_3   0.028968 0.226149 0.024682 -0.198166
C61   C     C_3   0.030049 0.772081 0.024685 -0.197793
C62   C     C_3   0.527233 0.722873 0.024735 -0.198472
C63   C     C_3   0.526952 0.277335 0.024666 -0.198217
C64   C     C_3   0.508196 0.702392 0.975151 -0.147572
C65   C     C_3   0.507826 0.297614 0.975086 -0.147686
C66   C     C_3   0.011595 0.202392 0.975124 -0.147738
C67   C     C_R   0.150225 0.250050 0.699490 0.815029
C68   C     C_3   0.013848 0.797720 0.975093 -0.148014
C69   C     C_1   0.922586 0.250348 0.154280 -0.089484
C70   C     C_1   0.922578 0.749733 0.154271 -0.089018
C71   C     C_1   0.422755 0.750223 0.154292 -0.089582
C72   C     C_1   0.422634 0.249776 0.154267 -0.089067
C73   C     C_R   0.849715 0.250048 0.300517 0.821514
C74   C     C_R   0.849709 0.749966 0.300523 0.820896
C75   C     C_R   0.349724 0.750039 0.300520 0.821406
C76   C     C_R   0.349721 0.249976 0.300522 0.823196
C77   C     C_1   0.577022 0.750356 0.845763 -0.073896
C78   C     C_3   0.945123 0.226863 0.024699 -0.194881
C79   C     C_1   0.576876 0.249630 0.845726 -0.074523
C80   C     C_1   0.076771 0.250515 0.845746 -0.074423
C81   C     C_1   0.076822 0.749590 0.845728 -0.074222
C82   C     C_2   0.491502 0.219359 0.461338 -0.179561
C83   C     C_2   0.494078 0.777252 0.456261 -0.178886
C84   C     C_2   0.991493 0.719348 0.461355 -0.179391
C85   C     C_2   0.991556 0.280641 0.461298 -0.178391
C86   C     C_2   0.446287 0.254771 0.494867 -0.329060
C87   C     C_2   0.440112 0.753551 0.507206 -0.331077
C88   C     C_2   0.946284 0.754765 0.494875 -0.329005
C89   C     C_3   0.946289 0.775137 0.024650 -0.194638
C90   C     C_2   0.946315 0.245215 0.494797 -0.330266
C91   C     C_2   0.548804 0.224709 0.457954 -0.202198
C92   C     C_2   0.545755 0.779398 0.464131 -0.201704
C93   C     C_2   0.048797 0.724696 0.457969 -0.202316
C94   C     C_2   0.048833 0.275293 0.457954 -0.201824
C95   C     C_2   0.549379 0.239173 0.515809 -0.005423
C96   C     C_2   0.565205 0.739427 0.484098 -0.005425
C97   C     C_2   0.049375 0.739168 0.515819 -0.005543
C98   C     C_2   0.049378 0.260777 0.515813 -0.006028
C99   C     C_2   0.740585 0.971940 0.458437 -0.163185
C100  C     C_3   0.443719 0.729974 0.024695 -0.194954
C101  C     C_2   0.742358 0.028048 0.456918 -0.162757
C102  C     C_2   0.242270 0.471941 0.456999 -0.162834
C103  C     C_2   0.240491 0.528047 0.458514 -0.163234
C104  C     C_2   0.752209 0.943896 0.499540 -0.297843
C105  C     C_2   0.748162 0.056109 0.502973 -0.298020
C106  C     C_2   0.248153 0.443891 0.502995 -0.298314
C107  C     C_2   0.252178 0.556108 0.499555 -0.298048
C108  C     C_R   0.889088 0.249316 0.499064 0.863526
C109  C     C_R   0.889071 0.750680 0.499094 0.860211
C110  C     C_R   0.388078 0.750674 0.501082 0.863613
C111  C     C_3   0.443451 0.269827 0.024660 -0.195009
C112  C     C_R   0.389072 0.250682 0.499092 0.860335
C113  C     C_R   0.610490 0.248799 0.501751 0.810762
C114  C     C_R   0.612229 0.748833 0.498264 0.812122
C115  C     C_R   0.110489 0.748797 0.501754 0.810836
C116  C     C_R   0.110482 0.251188 0.501761 0.811888
C117  C     C_R   0.749781 0.111379 0.500255 0.853432
C118  C     C_R   0.750213 0.888623 0.499895 0.855426
C119  C     C_R   0.250198 0.611379 0.499900 0.853211
C120  C     C_R   0.249778 0.388622 0.500265 0.853434
C121  C     C_R   0.750204 0.388759 0.499424 0.864698
C122  C     C_1   0.889299 0.250195 0.221081 -0.144852
C123  C     C_R   0.750275 0.611385 0.501036 0.849093
C124  C     C_R   0.250217 0.888764 0.499456 0.864781
C125  C     C_R   0.250287 0.111385 0.501085 0.853711
C126  C     C_2   0.800212 0.527228 0.477376 0.140650
C127  C     C_2   0.800950 0.473973 0.455933 0.182349
C128  C     C_2   0.300220 0.027265 0.477861 0.140702
C129  C     C_2   0.301148 0.973981 0.456345 0.182812
C130  C     C_2   0.750188 0.556190 0.496725 -0.374516
C131  C     C_2   0.751750 0.443906 0.505747 -0.355230
C132  C     C_2   0.250243 0.056176 0.496901 -0.375638
H1    H     H_    0.451138 0.287728 0.520725 0.161005
H2    H     H_    0.738038 0.046666 0.416518 0.174898
H3    H     H_    0.985441 0.569463 0.015010 0.251272
H4    H     H_    0.985348 0.640427 0.089300 0.211278
H5    H     H_    0.916611 0.642937 0.089273 0.207744
H6    H     H_    0.567706 0.883617 0.956459 0.259614
H7    H     H_    0.498833 0.889456 0.956488 0.257924
H8    H     H_    0.507592 0.930013 0.015318 0.250984
H9    H     H_    0.430119 0.860811 0.089461 0.207922
H10   H     H_    0.498671 0.855002 0.089439 0.210512
H11   H     H_    0.499196 0.110515 0.956310 0.257467
H12   H     H_    0.568094 0.116688 0.956180 0.259520
H13   H     H_    0.237891 0.453311 0.416647 0.175040
H14   H     H_    0.508227 0.070068 0.014995 0.251376
H15   H     H_    0.499008 0.145129 0.089228 0.211418
H16   H     H_    0.430434 0.139000 0.089328 0.208258
H17   H     H_    0.229732 0.546667 0.423606 0.174848
H18   H     H_    0.764466 0.960789 0.533762 0.150489
H19   H     H_    0.751097 0.039231 0.545135 0.150569
H20   H     H_    0.251143 0.460776 0.545115 0.150461
H21   H     H_    0.264476 0.539232 0.533737 0.150494
H22   H     H_    0.709756 0.539119 0.502371 0.138926
H23   H     H_    0.712174 0.460361 0.557478 0.135557
H24   H     H_    0.209928 0.039051 0.502341 0.138628
H25   H     H_    0.434069 0.735170 0.554783 0.161033
H26   H     H_    0.212033 0.960367 0.557446 0.135763
H27   H     H_    0.899939 0.207202 0.046019 0.143661
H28   H     H_    0.902057 0.796326 0.045928 0.143914
H29   H     H_    0.397139 0.713001 0.045993 0.143695
H30   H     H_    0.396801 0.286612 0.045966 0.143473
H31   H     H_    0.450611 0.800979 0.953812 0.133266
H32   H     H_    0.450606 0.198709 0.953782 0.132685
H33   H     H_    0.946647 0.295481 0.953819 0.132817
H34   H     H_    0.944718 0.708135 0.953751 0.132914
H35   H     H_    0.515507 0.662876 0.953753 0.137722
H36   H     H_    0.951138 0.787722 0.520730 0.160984
H37   H     H_    0.514989 0.337120 0.953679 0.137567
H38   H     H_    0.021931 0.162735 0.953726 0.137541
H39   H     H_    0.026022 0.837351 0.953672 0.137449
H40   H     H_    0.052503 0.205900 0.045974 0.142405
H41   H     H_    0.054465 0.790769 0.045999 0.142512
H42   H     H_    0.549095 0.700079 0.046060 0.142237
H43   H     H_    0.548744 0.300283 0.045961 0.142278
H44   H     H_    0.602874 0.788031 0.953886 0.134958
H45   H     H_    0.602839 0.212398 0.953820 0.134980
H46   H     H_    0.099499 0.294184 0.953820 0.135106
H47   H     H_    0.951140 0.212238 0.520635 0.160961
H48   H     H_    0.097412 0.702561 0.953870 0.135331
H49   H     H_    0.488870 0.188081 0.431306 0.181630
H50   H     H_    0.498978 0.798496 0.411250 0.181787
H51   H     H_    0.988859 0.688070 0.431326 0.181700
H52   H     H_    0.988960 0.311935 0.431270 0.181103
H53   H     H_    0.831043 0.501062 0.572198 0.264684
H54   H     H_    0.891515 0.473444 0.482832 0.260181
H55   H     H_    0.910125 0.526613 0.517735 0.252742
H56   H     H_    0.896912 0.553454 0.419005 0.201626
H57   H     H_    0.843474 0.583261 0.507744 0.218620
H58   H     H_    0.593060 0.218076 0.403881 0.159396
H59   H     H_    0.803215 0.410853 0.351478 0.257250
H60   H     H_    0.812943 0.476933 0.323991 0.248517
H61   H     H_    0.878416 0.433312 0.272885 0.243013
H62   H     H_    0.891579 0.488280 0.351016 0.187361
H63   H     H_    0.882369 0.424878 0.382281 0.226521
H64   H     H_    0.330423 0.001411 0.573361 0.264764
H65   H     H_    0.391152 0.973686 0.484204 0.260523
H66   H     H_    0.409497 0.026977 0.519196 0.252569
H67   H     H_    0.396857 0.053574 0.419937 0.201655
H68   H     H_    0.343110 0.083472 0.508503 0.218042
H69   H     H_    0.567385 0.816568 0.455456 0.158671
H70   H     H_    0.304253 0.911041 0.351210 0.257520
H71   H     H_    0.314496 0.977103 0.323541 0.248879
H72   H     H_    0.379835 0.933302 0.273115 0.242844
H73   H     H_    0.392222 0.988231 0.351941 0.187296
H74   H     H_    0.382671 0.924830 0.383281 0.226721
H75   H     H_    0.428785 0.244395 0.749588 0.266332
H76   H     H_    0.396165 0.192588 0.728211 0.260299
H77   H     H_    0.443741 0.179201 0.760560 0.248044
H78   H     H_    0.505232 0.165264 0.624125 0.219170
H79   H     H_    0.537645 0.215938 0.646720 0.228536
H80   H     H_    0.093051 0.718058 0.403897 0.159464
H81   H     H_    0.484084 0.280641 0.617355 0.207770
H82   H     H_    0.447511 0.229327 0.602447 0.224012
H83   H     H_    0.559504 0.579097 0.487511 0.266413
H84   H     H_    0.553913 0.594754 0.412263 0.261401
H85   H     H_    0.627640 0.572768 0.392261 0.247963
H86   H     H_    0.630056 0.666540 0.374383 0.219152
H87   H     H_    0.636872 0.650063 0.447966 0.228082
H88   H     H_    0.521211 0.669077 0.542743 0.207572
H89   H     H_    0.514572 0.680276 0.468101 0.224581
H90   H     H_    0.928807 0.744430 0.749595 0.266289
H91   H     H_    0.093099 0.281981 0.403900 0.159352
H92   H     H_    0.896163 0.692621 0.728254 0.260314
H93   H     H_    0.943750 0.679238 0.760590 0.247974
H94   H     H_    0.005218 0.665271 0.624163 0.219037
H95   H     H_    0.037652 0.715948 0.646723 0.228540
H96   H     H_    0.984085 0.780647 0.617355 0.207853
H97   H     H_    0.947508 0.729326 0.602462 0.223966
H98   H     H_    0.896130 0.307100 0.728294 0.260474
H99   H     H_    0.928763 0.255283 0.749580 0.266268
H100  H     H_    0.943697 0.320471 0.760675 0.247938
H101  H     H_    0.037614 0.283888 0.646775 0.228452
H102  H     H_    0.729878 0.953304 0.423482 0.174219
H103  H     H_    0.005195 0.334574 0.624264 0.219465
H104  H     H_    0.947508 0.270528 0.602440 0.224358
H105  H     H_    0.984062 0.219200 0.617290 0.207773
H106  H     H_    0.057098 0.386897 0.956359 0.259642
H107  H     H_    0.987909 0.387501 0.956527 0.257457
H108  H     H_    0.993571 0.430835 0.015280 0.250999
H109  H     H_    0.921495 0.358754 0.089483 0.207734
H110  H     H_    0.990337 0.358190 0.089370 0.210351
H111  H     H_    0.981884 0.614398 0.956251 0.257306
H112  H     H_    0.050941 0.611891 0.956257 0.259541
O1    O     O_3   0.750010 0.250010 0.500000 -0.481733
O2    O     O_R   0.613890 0.719960 0.543100 -0.644077
O3    O     O_R   0.113890 0.780040 0.543100 -0.644375
O4    O     O_R   0.113890 0.219960 0.543100 -0.644153
O5    O     O_R   0.697860 0.219970 0.664410 -0.637277
O6    O     O_R   0.697860 0.780030 0.664410 -0.637368
O7    O     O_R   0.197860 0.719970 0.664410 -0.637385
O8    O     O_R   0.197860 0.280030 0.664410 -0.637536
O9    O     O_R   0.802170 0.219970 0.335590 -0.637504
O10   O     O_R   0.802170 0.780030 0.335590 -0.637596
O11   O     O_R   0.302170 0.719970 0.335590 -0.637045
O12   O     O_3   0.750010 0.749990 0.500000 -0.481993
O13   O     O_R   0.302170 0.280030 0.335590 -0.637580
O14   O     O_R   0.637780 0.280050 0.664410 -0.639992
O15   O     O_R   0.637780 0.719950 0.664410 -0.636107
O16   O     O_R   0.137780 0.780050 0.664410 -0.639977
O17   O     O_R   0.137780 0.219950 0.664410 -0.640484
O18   O     O_R   0.862250 0.280060 0.335590 -0.640555
O19   O     O_R   0.862250 0.719940 0.335590 -0.639155
O20   O     O_R   0.362250 0.780060 0.335590 -0.641238
O21   O     O_R   0.362250 0.219940 0.335590 -0.638777
O22   O     O_R   0.843040 0.219980 0.543100 -0.644650
O23   O     O_3   0.250010 0.750010 0.500000 -0.481727
O24   O     O_R   0.843040 0.780020 0.543100 -0.645196
O25   O     O_R   0.343040 0.719980 0.543100 -0.644832
O26   O     O_R   0.343040 0.280020 0.543100 -0.644598
O27   O     O_R   0.656980 0.219970 0.456900 -0.651702
O28   O     O_R   0.656980 0.780030 0.456900 -0.651642
O29   O     O_R   0.156980 0.719970 0.456900 -0.651883
O30   O     O_R   0.156980 0.280030 0.456900 -0.651457
O31   O     O_R   0.758500 0.135440 0.543100 -0.644870
O32   O     O_R   0.758500 0.864560 0.543100 -0.644313
O33   O     O_R   0.258500 0.635440 0.543100 -0.644679
O34   O     O_3   0.250010 0.249990 0.500000 -0.481931
O35   O     O_R   0.258500 0.364560 0.543100 -0.644829
O36   O     O_R   0.698440 0.364590 0.543100 -0.641836
O37   O     O_R   0.698440 0.635410 0.543100 -0.640231
O38   O     O_R   0.198440 0.864590 0.543100 -0.641721
O39   O     O_R   0.198440 0.135410 0.543100 -0.635824
O40   O     O_R   0.741510 0.135430 0.456900 -0.642219
O41   O     O_R   0.741510 0.864570 0.456900 -0.642093
O42   O     O_R   0.241510 0.635430 0.456900 -0.642140
O43   O     O_R   0.241510 0.364570 0.456900 -0.642348
O44   O     O_R   0.801610 0.364600 0.456900 -0.643020
O45   O     O_R   0.886150 0.280070 0.456900 -0.643284
O46   O     O_R   0.801610 0.635400 0.456900 -0.649287
O47   O     O_R   0.301610 0.864600 0.456900 -0.642671
O48   O     O_R   0.301610 0.135400 0.456900 -0.649017
O49   O     O_R   0.886150 0.719930 0.456900 -0.645158
O50   O     O_R   0.386150 0.780070 0.456900 -0.643432
O51   O     O_R   0.386150 0.219930 0.456900 -0.645614
O52   O     O_R   0.613890 0.280040 0.543100 -0.644484
Zn1   Zn    Zn3+2 0.823730 0.292940 0.438410 0.954709
Zn2   Zn    Zn3+2 0.737880 0.792910 0.438410 0.960936
Zn3   Zn    Zn3+2 0.237880 0.707090 0.438410 0.959316
Zn4   Zn    Zn3+2 0.237880 0.292910 0.438410 0.960796
Zn5   Zn    Zn3+2 0.676310 0.292930 0.561590 0.959824
Zn6   Zn    Zn3+2 0.676310 0.707070 0.561590 0.961395
Zn7   Zn    Zn3+2 0.176310 0.792930 0.561590 0.960106
Zn8   Zn    Zn3+2 0.176310 0.207070 0.561590 0.961415
Zn9   Zn    Zn3+2 0.823730 0.707060 0.438410 0.952148
Zn10  Zn    Zn3+2 0.323730 0.792940 0.438410 0.954399
Zn11  Zn    Zn3+2 0.323730 0.207060 0.438410 0.955668
Zn12  Zn    Zn3+2 0.762140 0.207100 0.561590 0.966372
Zn13  Zn    Zn3+2 0.762140 0.792900 0.561590 0.968159
Zn14  Zn    Zn3+2 0.262140 0.707100 0.561590 0.966268
Zn15  Zn    Zn3+2 0.262140 0.292900 0.561590 0.964607
Zn16  Zn    Zn3+2 0.737880 0.207090 0.438410 0.959131

loop_
_geom_bond_atom_site_label_1
_geom_bond_atom_site_label_2
_ccdc_geom_bond_type
C120  O43   A    
C63   C65   S    
C126  C127  S    
C6    C58   S    
O23   Zn7   S    
O21   Zn11  S    
O22   Zn12  S    
C82   H49   S    
C18   H78   S    
C29   H98   S    
C11   H60   S    
C104  H18   S    
C50   C72   S    
C62   C64   S    
O31   Zn12  S    
O34   Zn4   S    
C88   H36   S    
O18   Zn1   S    
C3    H26   S    
C100  H29   S    
C97   C115  S    
O12   Zn6   S    
O1    Zn12  S    
C74   O19   A    
C113  O52   A    
C6    H33   S    
C21   C22   S    
C96   C114  S    
C56   O16   A    
C109  O24   A    
C16   H70   S    
C7    C59   S    
O5    Zn12  S    
C105  H19   S    
C106  H20   S    
O43   Zn4   S    
C84   C88   D    
O19   Zn9   S    
C123  O37   A    
C24   C76   S    
O12   Zn9   S    
C82   C91   S    
C41   C56   S    
C37   C38   S    
C115  O29   A    
C43   C54   S    
C53   C58   S    
C34   C44   S    
C37   H15   S    
C108  O22   A    
C74   O10   A    
C119  O42   A    
O50   Zn10  S    
C88   C109  S    
C8    C126  S    
C99   C101  S    
C7    H34   S    
C85   H52   S    
C26   H92   S    
C35   C45   S    
C1    O14   A    
C49   C62   S    
O3    Zn7   S    
C3    C129  D    
C112  O51   A    
O4    Zn8   S    
C11   H61   S    
C29   H100  S    
C48   C70   S    
C52   C63   S    
C119  O33   A    
C85   C90   D    
C12   C128  S    
C54   C61   S    
C124  O38   A    
C5    C46   S    
O45   Zn1   S    
O27   Zn16  S    
O23   Zn10  S    
C109  O49   A    
C25   H95   S    
C51   C55   S    
C84   C93   S    
C51   H44   S    
C127  C131  D    
C15   H74   S    
C1    C39   S    
C20   C21   S    
C6    C42   S    
C94   C98   D    
C103  C107  D    
C16   H72   S    
O34   Zn11  S    
C31   H108  S    
C34   H9    S    
O41   Zn2   S    
C38   H11   S    
C117  O31   A    
C128  C129  S    
C118  O32   A    
C87   C110  S    
O36   Zn5   S    
O51   Zn11  S    
C64   H35   S    
C75   O11   A    
C42   C53   S    
C59   C68   S    
C68   H39   S    
C1    O5    A    
C6    C78   S    
C26   H93   S    
C56   O7    A    
C92   C96   D    
C85   C94   S    
C123  O46   A    
C52   H45   S    
C47   C69   S    
C118  O41   A    
C13   C75   S    
C40   C67   S    
C26   H90   S    
O23   Zn3   S    
C7    C43   S    
C20   C96   S    
C22   H83   S    
C50   C63   S    
C51   C62   S    
C67   O17   A    
C53   C60   S    
C54   C59   S    
C14   H65   S    
C116  O4    A    
C9    H54   S    
C25   C26   S    
C30   H109  S    
C87   H25   S    
C121  O44   A    
O12   Zn2   S    
O13   Zn4   S    
O44   Zn1   S    
O47   Zn10  S    
C17   C18   S    
C12   H68   S    
C4    H31   S    
C130  H22   S    
C23   H97   S    
C107  H21   S    
O48   Zn11  S    
C27   H104  S    
C31   H106  S    
C123  C130  S    
C49   C71   S    
C19   H76   S    
O42   Zn3   S    
C33   H111  S    
C17   H82   S    
C93   C97   D    
C24   C72   T    
O25   Zn14  S    
O1    Zn5   S    
C22   H85   S    
C113  O27   A    
C114  O28   A    
O35   Zn15  S    
C76   O13   A    
C48   C89   S    
C117  O40   A    
C18   H79   S    
C90   C108  S    
C69   C122  T    
C50   C111  S    
C132  H24   S    
C32   C43   S    
C99   C104  D    
C11   H59   S    
C102  C103  S    
C36   H7    S    
C10   C11   S    
C91   C95   D    
C21   H87   S    
C47   C78   S    
O37   Zn6   S    
O39   Zn8   S    
C83   C87   D    
O28   Zn2   S    
C23   H96   S    
C8    H56   S    
C110  O50   A    
C28   C29   S    
C10   H62   S    
C102  H13   S    
C30   C31   S    
C126  C130  D    
C18   C19   S    
O6    Zn13  S    
C125  O39   A    
C20   H89   S    
C17   C95   S    
C115  O3    A    
O24   Zn13  S    
C58   C80   S    
C67   O8    A    
O26   Zn15  S    
C60   C66   S    
O9    Zn16  S    
C105  C117  S    
C111  H30   S    
C107  C119  S    
C104  C118  S    
C66   C78   S    
O17   Zn8   S    
C29   H99   S    
C112  O26   A    
C32   H4    S    
C99   H102  S    
C120  O35   A    
C13   C71   T    
C82   C86   D    
C35   C77   T    
C65   H37   S    
C39   C79   T    
O29   Zn3   S    
O10   Zn2   S    
O30   Zn4   S    
C86   H1    S    
C15   C129  S    
C8    H57   S    
C41   C81   T    
C93   H80   S    
C68   C89   S    
C15   H73   S    
O38   Zn7   S    
C73   O9    A    
O7    Zn14  S    
C4    C55   S    
O20   Zn10  S    
C3    C124  S    
C27   H105  S    
C31   H107  S    
C75   O20   A    
C34   H10   S    
C19   H77   S    
C38   H12   S    
C59   C81   S    
C57   C65   S    
C4    C44   S    
O15   Zn6   S    
C5    C57   S    
C32   C33   S    
C131  H23   S    
C114  O2    A    
C37   H16   S    
C52   C57   S    
C103  H17   S    
O1    Zn1   S    
C78   H27   S    
C64   C100  S    
O2    Zn6   S    
O8    Zn15  S    
C73   C122  S    
C30   C42   S    
C37   C46   S    
C2    C70   T    
C36   H6    S    
O16   Zn7   S    
C7    C89   S    
C44   C49   S    
O34   Zn8   S    
C27   C98   S    
C22   H84   S    
C57   C79   S    
C125  C132  S    
C121  O36   A    
C124  O47   A    
C53   H46   S    
O40   Zn16  S    
O1    Zn16  S    
C101  H2    S    
C83   C92   S    
C14   H66   S    
C9    H53   S    
O33   Zn14  S    
C55   C77   S    
C15   C16   S    
C62   H42   S    
C46   C52   S    
C25   H94   S    
C33   H3    S    
C65   C111  S    
C47   C60   S    
C58   C66   S    
C38   H14   S    
O12   Zn13  S    
C8    C9    S    
C40   C80   T    
C16   H71   S    
C43   C48   S    
C34   C36   S    
C2    C74   S    
C28   H101  S    
C76   O21   A    
C19   H75   S    
C20   H88   S    
C121  C131  S    
C17   H81   S    
C128  C132  D    
C45   O15   A    
O14   Zn5   S    
C101  C105  D    
O52   Zn5   S    
C91   H58   S    
C60   H40   S    
C5    H32   S    
C61   H41   S    
C5    C111  S    
C83   H50   S    
C86   C112  S    
C45   O6    A    
O49   Zn9   S    
C108  O45   A    
C98   C116  S    
C55   C64   S    
C116  O30   A    
C36   H8    S    
O23   Zn14  S    
C44   C51   S    
C23   C97   S    
C12   C14   S    
C21   H86   S    
C4    C100  S    
C30   H110  S    
C94   H91   S    
O11   Zn3   S    
C10   C127  S    
C73   O18   A    
C89   H28   S    
C14   H64   S    
C90   H47   S    
O46   Zn9   S    
C106  C120  S    
C66   H38   S    
C84   H51   S    
O32   Zn13  S    
C9    H55   S    
C110  O25   A    
C63   H43   S    
O34   Zn15  S    
C46   C50   S    
C32   H5    S    
C10   H63   S    
C49   C100  S    
C61   C68   S    
C48   C61   S    
C95   C113  S    
C12   H67   S    
C54   H48   S    
C102  C106  D    
C42   C47   S    
C23   C25   S    
C125  O48   A    
C28   H103  S    
C27   C28   S    
C33   H112  S    
C92   H69   S    
