data_mof_unit_25603.cif
_audit_creation_date              2013-03-05T15:48:55-0500
_audit_creation_method            fapswitch 2.2
_symmetry_space_group_name_H-M    P1
_symmetry_Int_Tables_number       1
_space_group_crystal_system       triclinic
_cell_length_a                    6.944358
_cell_length_b                    13.481408
_cell_length_c                    20.087547
_cell_angle_alpha                 104.060965
_cell_angle_beta                  90.174108
_cell_angle_gamma                 90.578293
_cell_volume                      1824.12174873

loop_
_atom_site_label
_atom_site_type_symbol
_atom_site_description
_atom_site_fract_x
_atom_site_fract_y
_atom_site_fract_z
_atom_type_partial_charge
O1    O     O_R   0.506780 0.600060 0.449950 -0.574640
O2    O     O_R   0.179840 0.597110 0.589410 -0.599505
O3    O     O_R   0.004570 0.399940 0.550050 -0.597486
C1    C     C_R   0.348780 0.619051 0.616876 0.953668
O4    O     O_R   0.177380 0.612160 0.452890 -0.593718
O5    O     O_R   0.002100 0.415100 0.412560 -0.601801
C2    C     C_R   0.346659 0.639121 0.436334 1.057169
O6    O     O_R   0.509250 0.584900 0.587440 -0.592828
O7    O     O_3   0.337570 0.435330 0.486930 -0.286887
V1    V     V_3+5 0.064650 0.512000 0.502430 1.187542
O8    O     O_R   0.672090 0.402890 0.410590 -0.596628
C3    C     C_R   0.840065 0.381212 0.382976 0.932826
O9    O     O_R   0.674540 0.387840 0.547110 -0.598175
C4    C     C_R   0.842986 0.360706 0.563427 0.923933
V2    V     V_3+5 0.564040 0.488000 0.497570 1.192129
O10   O     O_3   0.840990 0.564670 0.513070 -0.262018
C5    C     C_R   0.860904 0.106498 0.608127 -0.100038
H1    H     H_    0.853502 0.155640 0.514257 0.110413
H2    H     H_    0.872956 0.980956 0.691070 0.141319
H3    H     H_    0.864588 0.026348 0.581415 0.154972
C6    C     C_R   0.850423 0.283300 0.603033 -0.092916
C7    C     C_R   0.854255 0.321471 0.933862 0.514611
C8    C     C_R   0.847921 0.397641 0.898092 -0.099716
C9    C     C_R   0.848752 0.372843 0.826637 -0.278175
C10   C     C_R   0.855834 0.269758 0.788353 0.115124
C11   C     C_R   0.862100 0.191652 0.825044 0.060722
C12   C     C_R   0.856416 0.241583 0.714983 0.104860
C13   C     C_R   0.861939 0.136274 0.680157 0.163989
C14   C     C_R   0.868307 0.061323 0.717283 -0.221681
C15   C     C_R   0.868697 0.088326 0.788460 -0.196913
C16   C     C_R   0.851462 0.314168 0.674678 -0.242596
C17   C     C_R   0.854723 0.179692 0.569796 -0.174139
C18   C     C_R   0.861605 0.218370 0.897826 -0.344630
H4    H     H_    0.847964 0.395305 0.697017 0.100471
H5    H     H_    0.843231 0.436541 0.803169 0.134919
H6    H     H_    0.842102 0.477172 0.925897 0.163506
H7    H     H_    0.873788 0.026938 0.814553 0.115575
C19   C     C_3   0.779665 0.158424 0.250523 -0.165164
C20   C     C_3   0.955367 0.208840 0.294041 -0.151772
H8    H     H_    0.036615 0.175295 0.330802 0.114779
H9    H     H_    0.716982 0.082340 0.250373 0.123784
C21   C     C_3   0.847761 0.311102 0.312251 -0.123598
C22   C     C_3   0.671839 0.261449 0.269516 -0.111282
C23   C     C_3   0.758073 0.290926 0.205808 -0.019557
C24   C     C_3   0.933775 0.341416 0.249317 -0.051552
C25   C     C_3   0.041525 0.238349 0.230328 -0.085906
C26   C     C_3   0.865571 0.188758 0.187653 -0.139288
H10   H     H_    0.519253 0.271203 0.285955 0.126299
H11   H     H_    0.676983 0.323454 0.168551 0.210402
H12   H     H_    0.997278 0.417314 0.249215 0.153588
H13   H     H_    0.194040 0.228497 0.213802 0.131884
C27   C     C_3   0.538477 0.725684 0.730626 -0.103205
C28   C     C_3   0.457852 0.835690 0.749744 -0.111617
H14   H     H_    0.541173 0.906557 0.750151 0.120887
H15   H     H_    0.688609 0.705073 0.714518 0.115648
C29   C     C_3   0.356605 0.811684 0.812231 -0.092621
C30   C     C_3   0.437311 0.702532 0.793925 -0.135327
C31   C     C_3   0.254940 0.665384 0.749950 -0.136622
C32   C     C_3   0.174349 0.775392 0.769051 -0.129282
C33   C     C_3   0.275506 0.798501 0.705732 -0.088089
C34   C     C_3   0.356238 0.689308 0.687456 -0.090938
H16   H     H_    0.503529 0.663323 0.830804 0.116669
H17   H     H_    0.171467 0.594548 0.749554 0.109116
H18   H     H_    0.024265 0.796195 0.785138 0.115756
H19   H     H_    0.209186 0.837762 0.668899 0.148606
C35   C     C_R   0.414578 0.893567 0.392743 -0.271394
H20   H     H_    0.421144 0.019642 0.309861 0.123820
H21   H     H_    0.436857 0.973164 0.419073 0.159601
C36   C     C_R   0.359295 0.718354 0.397959 -0.270868
C37   C     C_R   0.349252 0.681029 0.068116 -0.365189
C38   C     C_R   0.372439 0.602646 0.101894 0.381404
C39   C     C_R   0.404011 0.627763 0.173564 0.309556
C40   C     C_R   0.383070 0.730858 0.212586 -0.070027
C41   C     C_R   0.374830 0.809496 0.176327 0.070966
C42   C     C_R   0.379377 0.759826 0.286067 0.174409
C43   C     C_R   0.402144 0.864447 0.320812 0.119259
C44   C     C_R   0.407581 0.939442 0.283708 -0.215799
C45   C     C_R   0.387763 0.912810 0.212814 -0.176360
C46   C     C_R   0.342342 0.689488 0.326410 -0.232129
C47   C     C_R   0.398735 0.820601 0.431255 0.473169
C48   C     C_R   0.359365 0.783370 0.103980 -0.203976
H22   H     H_    0.294823 0.612272 0.303419 0.180057
H23   H     H_    0.331970 0.662397 0.012797 0.172077
H24   H     H_    0.385833 0.974260 0.186717 0.113081
O11   O     O_R   0.203580 0.914920 0.912610 -0.603462
O12   O     O_R   0.535710 0.887810 0.047120 -0.597072
O13   O     O_R   0.710730 0.084950 0.087430 -0.597006
C49   C     C_R   0.366835 0.861362 0.064192 0.967567
O14   O     O_R   0.533010 0.902850 0.910600 -0.605681
O15   O     O_R   0.708010 0.100090 0.949930 -0.585968
C50   C     C_R   0.364113 0.881362 0.882989 0.911358
O16   O     O_R   0.206300 0.899780 0.050100 -0.599671
O17   O     O_3   0.375170 0.064580 0.013100 -0.253312
V3    V     V_3+5 0.648200 0.988020 0.997570 1.187224
O18   O     O_R   0.038030 0.112330 0.952840 -0.579710
C51   C     C_R   0.869505 0.139314 0.936551 1.037782
O19   O     O_R   0.040730 0.097300 0.089360 -0.590785
C52   C     C_R   0.872844 0.118804 0.116974 0.976684
V4    V     V_3+5 0.148780 0.012220 0.002360 1.207221
O20   O     O_3   0.871930 0.935430 0.986900 -0.289300
Cl1   Cl    Cl    0.422166 0.859941 0.521216 -0.725340
Cl2   Cl    Cl    0.524826 0.535832 0.207807 -0.660459
N1    N     N_R   0.371879 0.497941 0.062415 0.279895
O21   O     O_R   0.413212 0.476257 0.997348 -0.389795
O22   O     O_R   0.308318 0.425050 0.089015 -0.303276
Cl3   Cl    Cl    0.852072 0.357781 0.024315 -0.583407

loop_
_geom_bond_atom_site_label_1
_geom_bond_atom_site_label_2
_geom_bond_distance
_ccdc_geom_bond_type
C23   H11   1.109689 S    
C35   H21   1.084226 S    
O17   V3    2.155029 S    
C40   C41   1.426146 A    
O18   C51   1.293485 A    
H20   C44   1.084221 S    
C1    O6    1.298260 A    
O19   C52   1.297527 A    
O11   C50   1.298037 A    
C30   H16   1.110315 S    
C44   C45   1.387513 A    
C23   C24   1.550360 S    
C6    C16   1.397609 A    
C32   H18   1.110512 S    
C26   C52   1.502832 S    
C4    C6    1.459072 S    
C13   C14   1.394992 A    
C27   C34   1.538904 S    
O5    C3    1.296787 A    
C19   C20   1.550139 S    
O12   C49   1.293616 A    
V2    O10   2.159633 S    
O13   V3    1.998014 S    
C5    H3    1.083991 S    
C29   C30   1.539375 S    
O14   V3    2.002142 S    
C37   C48   1.393652 A    
C3    C21   1.504525 S    
O12   V3    2.015653 S    
O8    V2    1.995877 S    
C29   C50   1.501715 S    
C49   O16   1.293125 A    
C8    C9    1.392466 A    
C37   C38   1.397902 A    
O1    V2    2.016789 S    
O14   C50   1.295498 A    
C22   H10   1.110390 S    
O17   V4    1.708205 S    
C27   H15   1.110437 S    
O13   C52   1.296858 A    
C31   C34   1.540217 S    
C32   C33   1.549794 S    
O9    C4    1.293876 A    
C40   C42   1.432567 A    
O4    V1    2.015630 S    
O19   V4    1.996023 S    
C28   C33   1.549657 S    
O15   V3    2.015764 S    
C20   C21   1.539560 S    
C6    C17   1.394797 A    
C9    H5    1.076285 S    
C12   C16   1.414112 A    
C43   C44   1.394520 A    
C19   H9    1.109534 S    
C20   H8    1.110419 S    
O4    C2    1.295020 A    
C10   C11   1.425384 A    
C7    Cl3   1.763364 S    
C25   H13   1.110460 S    
C15   H7    1.082657 S    
C33   C34   1.539934 S    
C21   C24   1.540337 S    
O2    C1    1.295378 A    
C42   C43   1.420550 A    
C2    C36   1.463395 S    
C14   C15   1.387012 A    
O11   V4    1.995221 S    
C45   H24   1.082809 S    
C11   C18   1.418228 A    
V4    O20   2.159703 S    
V3    O20   1.706718 S    
C35   C43   1.404392 A    
C16   H4    1.077271 S    
N1    O22   1.301451 A    
C9    C10   1.416851 A    
O15   C51   1.291697 A    
C37   H23   1.084082 S    
C19   C26   1.539045 S    
O3    C4    1.292279 A    
C20   C25   1.549664 S    
C33   H19   1.110334 S    
C11   C15   1.409485 A    
O6    V2    1.994638 S    
O9    V2    2.017830 S    
C22   C23   1.549586 S    
C36   C46   1.399026 A    
H1    C17   1.083502 S    
C21   C22   1.541221 S    
C41   C48   1.413208 A    
O2    V1    2.002002 S    
C18   C51   1.465538 S    
C12   C13   1.423060 A    
C27   C28   1.549724 S    
O7    V1    2.155007 S    
C28   C29   1.540391 S    
C31   H17   1.110470 S    
C7    C18   1.404030 A    
C38   N1    1.441320 S    
C25   C26   1.540615 S    
O1    C2    1.291694 A    
C5    C13   1.404425 A    
C39   C40   1.429232 A    
O5    V1    1.998019 S    
C46   H22   1.079056 S    
O8    C3    1.298386 A    
C23   C26   1.538088 S    
C28   H14   1.110247 S    
C10   C12   1.429865 A    
C35   C47   1.395101 A    
C29   C32   1.538904 S    
C47   Cl1   1.761857 S    
C31   C32   1.549673 S    
C19   C22   1.549376 S    
O3    V1    2.015760 S    
V1    O10   1.706682 S    
C30   C31   1.549343 S    
C39   Cl2   1.773344 S    
C24   H12   1.110565 S    
C1    C34   1.501988 S    
O18   V4    2.017703 S    
O7    V2    1.710233 S    
C48   C49   1.467817 S    
C27   C30   1.549702 S    
C24   C25   1.549591 S    
C38   C39   1.412482 A    
C8    H6    1.083149 S    
C41   C45   1.409344 A    
N1    O21   1.301721 A    
C5    C17   1.392211 A    
C7    C8    1.389941 A    
C36   C47   1.402043 A    
C42   C46   1.411312 A    
O16   V4    2.023175 S    
H2    C14   1.084340 S    
