data_mof_unit_43885.cif
_audit_creation_date              2012-12-10T18:57:09-0500
_audit_creation_method            fapswitch 2.2
_symmetry_space_group_name_H-M    P1
_symmetry_Int_Tables_number       1
_space_group_crystal_system       triclinic
_cell_length_a                    10.727494
_cell_length_b                    9.928514
_cell_length_c                    10.609026
_cell_angle_alpha                 89.696129
_cell_angle_beta                  91.43434
_cell_angle_gamma                 89.487003
_cell_volume                      1129.53033491

loop_
_atom_site_label
_atom_site_type_symbol
_atom_type_description
_atom_site_fract_x
_atom_site_fract_y
_atom_site_fract_z
_atom_type_partial_charge
C1    C     C_R   0.260651 0.500158 0.508241 0.837086
C2    C     C_R   0.411790 0.566834 0.932173 0.088308
C3    C     C_R   0.505671 0.503323 0.128800 -0.173320
C4    C     C_R   0.507776 0.501970 0.871477 -0.165033
C5    C     C_R   0.612176 0.452446 0.070381 0.332627
C6    C     C_R   0.615571 0.458069 0.937663 0.318267
C7    C     C_3   0.274847 0.544182 0.919389 -0.469744
C8    C     C_3   0.273244 0.545702 0.062140 -0.487162
C9    C     C_R   0.064636 0.377468 0.534583 0.408629
C10   C     C_R   0.939923 0.373185 0.503392 0.411285
C11   C     C_R   0.873144 0.495849 0.489114 -0.198722
C12   C     C_R   0.739855 0.498874 0.493962 0.923077
C13   C     C_R   0.128073 0.499840 0.518045 -0.222963
C14   C     C_R   0.935496 0.618626 0.483990 -0.249762
C15   C     C_R   0.062877 0.620231 0.495269 -0.252831
C16   C     C_3   0.714399 0.151716 0.712772 -0.060706
C17   C     C_3   0.285417 0.170890 0.296116 -0.159450
C18   C     C_3   0.710643 0.823369 0.705952 -0.158898
C19   C     C_3   0.284481 0.840880 0.294246 -0.193716
C20   C     C_R   0.545630 0.070763 0.602082 0.362595
C21   C     C_R   0.454106 0.072827 0.398049 0.379439
C22   C     C_R   0.545627 0.927125 0.602153 0.368234
C23   C     C_R   0.454222 0.929265 0.398034 0.381458
C24   C     C_R   0.498593 0.500482 0.260578 0.955733
C25   C     C_R   0.502149 0.499932 0.739354 0.951784
C26   C     C_R   0.411010 0.568890 0.060622 0.094595
H1    H     H_    0.225163 0.631584 0.874764 0.214023
H2    H     H_    0.836970 0.249945 0.410504 0.350744
H3    H     H_    0.765323 0.087763 0.644636 0.118250
H4    H     H_    0.750504 0.126630 0.809014 0.157268
H5    H     H_    0.737885 0.257902 0.694286 0.241648
H6    H     H_    0.240760 0.142835 0.386305 0.164839
H7    H     H_    0.235857 0.118865 0.217742 0.143704
H8    H     H_    0.270592 0.280345 0.280410 0.168056
H9    H     H_    0.754717 0.841717 0.613347 0.107736
H10   H     H_    0.722126 0.714977 0.729634 0.196972
H11   H     H_    0.763080 0.879625 0.779695 0.141587
H12   H     H_    0.248904 0.446854 0.104166 0.191330
H13   H     H_    0.235973 0.888858 0.374614 0.098787
H14   H     H_    0.267112 0.731312 0.297370 0.179205
H15   H     H_    0.240609 0.879253 0.205225 0.156696
H16   H     H_    0.251740 0.444441 0.878075 0.194125
H17   H     H_    0.220865 0.633289 0.099106 0.200268
H18   H     H_    0.886366 0.713455 0.469815 0.184328
H19   H     H_    0.109835 0.715567 0.485131 0.183628
H20   H     H_    0.752370 0.328517 0.093511 0.343066
H21   H     H_    0.795068 0.437402 0.925899 0.334583
H22   H     H_    0.182384 0.284238 0.644532 0.332999
N1    N     N_R   0.500000 0.857200 0.500000 -0.213391
N2    N     N_R   0.500000 0.142810 0.500000 -0.208826
O1    O     O_R   0.316770 0.614620 0.499990 -0.630179
O2    O     O_3   0.720132 0.424034 0.871212 -0.818429
O3    O     O_3   0.121836 0.259959 0.576408 -0.741146
O4    O     O_3   0.886443 0.248301 0.490734 -0.760151
O5    O     O_3   0.583438 0.137327 0.710047 -0.551605
O6    O     O_3   0.414386 0.141371 0.290644 -0.541475
O7    O     O_3   0.582814 0.858722 0.710601 -0.542588
O8    O     O_3   0.414386 0.862762 0.290741 -0.535504
O9    O     O_R   0.683230 0.614620 0.500010 -0.636753
O10   O     O_R   0.316800 0.385290 0.500000 -0.619042
O11   O     O_R   0.683200 0.385290 0.500000 -0.606744
O12   O     O_R   0.500000 0.614690 0.316780 -0.574831
O13   O     O_R   0.500000 0.614690 0.683220 -0.576946
O14   O     O_R   0.500020 0.385360 0.316780 -0.547273
O15   O     O_R   0.499980 0.385360 0.683220 -0.562786
O16   O     O_3   0.706771 0.395284 0.144270 -0.780241
Zn1   Zn    Zn3+2 0.500000 0.653120 0.500000 0.998954
Zn2   Zn    Zn3+2 0.500000 0.346880 0.500000 1.024306

loop_
_geom_bond_atom_site_label_1
_geom_bond_atom_site_label_2
_ccdc_geom_bond_type
C21   O6    S    
C2    C4    A    
C11   C12   S    
C7    H16   S    
H21   O2    S    
C17   H8    S    
C23   O8    S    
C8    C26   S    
C9    C10   A    
C18   O7    S    
C2    C7    S    
C17   O6    S    
C8    H17   S    
O15   Zn2   S    
C6    O2    S    
C22   O7    S    
C21   C23   A    
C4    C25   S    
C16   O5    S    
C25   O15   A    
C7    C8    S    
C2    C26   A    
O1    Zn1   S    
C16   H5    S    
C12   O11   A    
C1    O1    A    
O11   Zn2   S    
C3    C24   S    
C5    C6    A    
C17   H7    S    
O12   Zn1   S    
C20   O5    S    
O14   Zn2   S    
C4    C6    A    
C21   N2    A    
C18   H11   S    
C20   C22   A    
H20   O16   S    
C10   C11   A    
C13   C15   A    
C19   O8    S    
C25   O13   A    
H22   O3    S    
C10   O4    S    
C11   C14   A    
O13   Zn1   S    
C23   N1    A    
C9    O3    S    
C19   H14   S    
C15   H19   S    
C19   H13   S    
C16   H4    S    
C19   H15   S    
C1    C13   S    
C20   N2    A    
C7    H1    S    
H2    O4    S    
O10   Zn2   S    
C14   H18   S    
C18   H9    S    
C1    O10   A    
C22   N1    A    
C17   H6    S    
C9    C13   A    
C14   C15   A    
C24   O12   A    
N2    Zn2   S    
N1    Zn1   S    
O9    Zn1   S    
C16   H3    S    
C12   O9    A    
C18   H10   S    
C3    C26   A    
C24   O14   A    
C5    O16   S    
C3    C5    A    
C8    H12   S    
