data_mof_unit_46665.cif
_audit_creation_date              2012-10-26T19:39:55-0400
_audit_creation_method            fapswitch 2.2
_symmetry_space_group_name_H-M    P1
_symmetry_Int_Tables_number       1
_space_group_crystal_system       triclinic
_cell_length_a                    15.042145
_cell_length_b                    8.685823
_cell_length_c                    7.446279
_cell_angle_alpha                 102.862602
_cell_angle_beta                  94.502621
_cell_angle_gamma                 92.545747
_cell_volume                      943.622434091

loop_
_atom_site_label
_atom_site_type_symbol
_atom_type_description
_atom_site_fract_x
_atom_site_fract_y
_atom_site_fract_z
_atom_type_partial_charge
C1    C     C_R   0.497294 0.199727 0.453302 0.553289
C2    C     C_R   0.177899 0.437572 0.337672 -0.102864
C3    C     C_R   0.768068 0.503935 0.496632 -0.022049
C4    C     C_R   0.231932 0.496065 0.503368 -0.022049
C5    C     C_R   0.806576 0.445906 0.331776 -0.110527
C6    C     C_R   0.193424 0.554094 0.668224 -0.110527
C7    C     C_R   0.899116 0.443119 0.332216 -0.015015
C8    C     C_R   0.100883 0.556881 0.667784 -0.015015
C9    C     C_R   0.953453 0.501368 0.499353 -0.001196
C10   C     C_R   0.046546 0.498632 0.500647 -0.001196
C11   C     C_R   0.914751 0.562264 0.665154 0.035102
C12   C     C_R   0.502706 0.800273 0.546698 0.553288
C13   C     C_R   0.085249 0.437736 0.334846 0.035102
C14   C     C_R   0.938082 0.381872 0.168681 -0.022083
C15   C     C_R   0.061918 0.618128 0.831319 -0.022083
C16   C     C_R   0.030641 0.378770 0.169634 0.386939
C17   C     C_R   0.969359 0.621230 0.830366 0.386939
C18   C     C_2   0.495988 0.031892 0.426960 -0.147656
C19   C     C_2   0.504012 0.968108 0.573040 -0.147656
C20   C     C_R   0.328712 0.498521 0.501607 0.548379
C21   C     C_R   0.671288 0.501479 0.498393 0.548379
C22   C     C_R   0.822101 0.562428 0.662328 -0.102864
Cu1   Cu    Cu3+1 0.510010 0.517380 0.684380 0.970802
Cu2   Cu    Cu3+1 0.489990 0.482620 0.315620 0.970802
F1    F     F_    0.066650 0.317970 0.009254 -0.648175
F2    F     F_    0.933350 0.682030 0.990746 -0.648175
H1    H     H_    0.791843 0.608484 0.789204 0.186343
H2    H     H_    0.570024 0.622320 0.051774 0.242915
H3    H     H_    0.208157 0.391516 0.210795 0.186343
H4    H     H_    0.764572 0.400332 0.204051 0.135546
H5    H     H_    0.235428 0.599668 0.795949 0.135546
H6    H     H_    0.896883 0.336543 0.039946 0.146616
H7    H     H_    0.103117 0.663457 0.960054 0.146616
H8    H     H_    0.488415 0.960450 0.286104 0.136058
H9    H     H_    0.511585 0.039549 0.713896 0.136058
H10   H     H_    0.429976 0.377680 0.948226 0.242915
N1    N     N_2   0.474890 0.456420 0.038520 -0.258593
N2    N     N_2   0.525110 0.543580 0.961480 -0.258593
O1    O     O_R   0.506510 0.286130 0.619770 -0.504603
O2    O     O_R   0.493490 0.713870 0.380230 -0.504603
O3    O     O_R   0.489600 0.256770 0.308360 -0.497257
O4    O     O_R   0.510400 0.743230 0.691640 -0.497257
O5    O     O_R   0.378710 0.514640 0.655720 -0.506150
O6    O     O_R   0.621290 0.485360 0.344280 -0.506150
O7    O     O_R   0.361800 0.485290 0.344300 -0.505820
O8    O     O_R   0.638200 0.514710 0.655700 -0.505821

loop_
_geom_bond_atom_site_label_1
_geom_bond_atom_site_label_2
_ccdc_geom_bond_type
C12   O2    A    
C2    C4    A    
Cu1   Cu2   S    
C8    C10   A    
C15   C17   A    
N1    N2    D    
C21   O6    A    
C9    C11   A    
C9    C10   A    
C11   C22   A    
C20   O7    A    
H2    N2    S    
C6    H5    S    
Cu1   O8    S    
C19   H9    S    
Cu2   O3    S    
C18   H8    S    
C1    C18   S    
Cu1   O4    S    
C2    H3    S    
Cu1   O1    S    
C17   F2    S    
C12   C19   S    
C1    O3    A    
H10   N1    S    
Cu2   O2    S    
Cu2   N1    S    
C8    C15   A    
C22   H1    S    
Cu2   O6    S    
C14   C16   A    
C3    C21   S    
Cu2   O7    S    
C12   O4    A    
Cu1   N2    S    
C7    C9    A    
C20   O5    A    
Cu1   O5    S    
C4    C6    A    
C21   O8    A    
C5    H4    S    
C13   C16   A    
C16   F1    S    
C5    C7    A    
C2    C13   A    
C1    O1    A    
C18   C19   D    
C3    C22   A    
C6    C8    A    
C15   H7    S    
C7    C14   A    
C11   C17   A    
C14   H6    S    
C3    C5    A    
C10   C13   A    
C4    C20   S    
