data_mof_unit_18223.cif
_audit_creation_date              2012-12-11T17:06:34-0500
_audit_creation_method            fapswitch 2.2
_symmetry_space_group_name_H-M    P1
_symmetry_Int_Tables_number       1
_space_group_crystal_system       triclinic
_cell_length_a                    6.968977
_cell_length_b                    14.507377
_cell_length_c                    15.974531
_cell_angle_alpha                 90.504965
_cell_angle_beta                  89.959152
_cell_angle_gamma                 89.896479
_cell_volume                      1614.98448167

loop_
_atom_site_label
_atom_site_type_symbol
_atom_type_description
_atom_site_fract_x
_atom_site_fract_y
_atom_site_fract_z
_atom_type_partial_charge
O1    O     O_R   0.494400 0.415450 0.412630 -0.539006
O2    O     O_R   0.823940 0.405730 0.586760 -0.547986
O3    O     O_R   0.994240 0.584550 0.587370 -0.537664
C1    C     C_R   0.655195 0.383767 0.615365 0.720560
O4    O     O_R   0.824110 0.404430 0.413240 -0.545279
O5    O     O_R   0.994420 0.583240 0.412620 -0.541073
C2    C     C_R   0.655456 0.382235 0.384271 0.686349
O6    O     O_R   0.494230 0.416760 0.587380 -0.531506
O7    O     O_3   0.660800 0.558670 0.500000 -0.367698
V1    V     V_3+5 0.935650 0.489120 0.500000 1.399274
O8    O     O_R   0.324140 0.594270 0.413240 -0.541149
C3    C     C_R   0.155078 0.615911 0.384137 0.687739
O9    O     O_R   0.323960 0.595570 0.586760 -0.531659
C4    C     C_R   0.154862 0.617507 0.615629 0.718404
V2    V     V_3+5 0.435660 0.510880 0.500000 1.421118
O10   O     O_3   0.160640 0.441330 0.500000 -0.374763
C5    C     C_3   0.955767 0.719015 0.728632 -0.128571
C6    C     C_3   0.051774 0.708264 0.815570 -0.138448
H1    H     H_    0.984901 0.676010 0.871160 0.138931
H2    H     H_    0.808990 0.695394 0.712141 0.142699
C7    C     C_3   0.122903 0.808507 0.810573 -0.042196
C8    C     C_3   0.026890 0.820040 0.724501 -0.145812
C9    C     C_3   0.214608 0.787009 0.681383 -0.180259
C10   C     C_3   0.310849 0.776326 0.768250 -0.132648
C11   C     C_3   0.238895 0.675727 0.772180 0.175754
C12   C     C_3   0.143514 0.686767 0.686156 -0.045831
H3    H     H_    0.938828 0.880060 0.705260 0.103413
H4    H     H_    0.281728 0.819110 0.625779 0.109232
H5    H     H_    0.457731 0.799733 0.784810 0.126251
C13   C     C_R   0.273021 0.814923 0.239044 0.096226
C14   C     C_R   0.118554 0.815097 0.182900 -0.110561
C15   C     C_R   0.966860 0.753643 0.198935 -0.172087
H6    H     H_    0.844306 0.751287 0.157621 0.137728
C16   C     C_R   0.977881 0.690015 0.264986 -0.172805
H7    H     H_    0.862879 0.640882 0.272680 0.129669
C17   C     C_R   0.141280 0.685604 0.316864 -0.108874
C18   C     C_R   0.284382 0.751693 0.304149 0.098470
C19   C     C_3   0.494633 0.738655 0.291908 -0.408695
C20   C     C_3   0.482382 0.807899 0.221310 -0.396237
H8    H     H_    0.530051 0.667705 0.270025 0.170429
H9    H     H_    0.579133 0.763952 0.346417 0.172545
H10   H     H_    0.511462 0.777334 0.158506 0.177512
H11   H     H_    0.559087 0.873400 0.235151 0.164674
C21   C     C_R   0.485933 0.255883 0.690244 0.013639
C22   C     C_R   0.646463 0.312895 0.681271 -0.081312
C23   C     C_R   0.799065 0.300935 0.737762 -0.139839
H12   H     H_    0.922887 0.345384 0.734616 0.151083
C24   C     C_R   0.786871 0.236242 0.802726 -0.150947
H13   H     H_    0.901456 0.231678 0.847647 0.152029
C25   C     C_R   0.621854 0.182275 0.813658 -0.078908
C26   C     C_R   0.472407 0.193629 0.756253 0.032357
C27   C     C_3   0.268960 0.220426 0.772941 0.193134
C28   C     C_3   0.281560 0.284331 0.698569 -0.336204
H14   H     H_    0.165181 0.162729 0.765039 0.057368
H15   H     H_    0.265198 0.358676 0.714803 0.213052
H16   H     H_    0.194326 0.260705 0.644265 0.112738
C29   C     C_R   0.493042 0.315584 0.256895 0.107934
C30   C     C_R   0.647604 0.316291 0.312983 -0.112356
C31   C     C_R   0.799289 0.254358 0.296888 -0.180536
H17   H     H_    0.921948 0.252514 0.338149 0.132698
C32   C     C_R   0.787966 0.189598 0.230859 -0.178988
H18   H     H_    0.902941 0.140109 0.223056 0.127259
C33   C     C_R   0.624303 0.184614 0.179146 -0.112841
C34   C     C_R   0.481422 0.251260 0.191771 0.121509
C35   C     C_3   0.271080 0.239015 0.203919 -0.410773
C36   C     C_3   0.283589 0.309503 0.274591 -0.402601
H19   H     H_    0.235285 0.168565 0.225719 0.162590
H20   H     H_    0.186788 0.263561 0.149408 0.186218
H21   H     H_    0.254240 0.280169 0.337355 0.168042
H22   H     H_    0.207236 0.374976 0.260793 0.173796
O11   O     O_R   0.771650 0.079500 0.908680 -0.544410
O12   O     O_R   0.441690 0.091800 0.082800 -0.539748
O13   O     O_R   0.271460 0.912980 0.083410 -0.535861
C37   C     C_R   0.610585 0.113895 0.111897 0.700814
O14   O     O_R   0.441930 0.090510 0.909280 -0.547053
O15   O     O_R   0.271690 0.911670 0.908660 -0.538417
C38   C     C_R   0.610770 0.113762 0.881682 0.689680
O16   O     O_R   0.771410 0.080810 0.083440 -0.539438
O17   O     O_3   0.605100 0.937580 0.996050 -0.366838
V3    V     V_3+5 0.330220 0.007110 0.996030 1.396288
O18   O     O_R   0.941980 0.900620 0.909250 -0.539704
C39   C     C_R   0.111168 0.878370 0.880620 0.694302
O19   O     O_R   0.941740 0.901920 0.082770 -0.544073
C40   C     C_R   0.110561 0.880104 0.111711 0.695695
V4    V     V_3+5 0.830220 0.985300 0.996000 1.396011
O20   O     O_3   0.105210 0.054870 0.996020 -0.376822
O21   O     O_3   0.250868 0.270825 0.848008 -0.617992
H23   H     H_    0.220782 0.225602 0.892218 0.300636
I1    I     I_    0.410125 0.561253 0.810443 -0.439382

loop_
_geom_bond_atom_site_label_1
_geom_bond_atom_site_label_2
_ccdc_geom_bond_type
O21   H23   S    
C6    C7    S    
O11   C38   A    
C29   C36   S    
C1    O6    A    
O18   C39   A    
C36   H22   S    
V4    O20   S    
C27   C28   S    
C5    C12   S    
C17   C18   A    
C16   H7    S    
O5    C3    A    
C13   C14   A    
C36   H21   S    
V2    O10   S    
C5    H2    S    
C6    H1    S    
C9    C12   S    
C32   C33   A    
C10   H5    S    
V3    O20   S    
O11   V4    S    
O8    V2    S    
C21   C28   S    
O19   C40   A    
C35   H19   S    
C9    C10   S    
O1    V2    S    
C3    C17   S    
O14   V3    S    
O13   C40   A    
C24   C25   A    
C31   H17   S    
O9    C4    A    
C6    C11   S    
C27   H14   S    
C25   C26   A    
C20   H10   S    
C1    C22   S    
C28   H15   S    
C23   C24   A    
C31   C32   A    
C26   C27   S    
C10   C11   S    
C19   H9    S    
O12   C37   A    
O15   C39   A    
O4    C2    A    
C20   H11   S    
C30   C31   A    
C22   C23   A    
C14   C40   S    
O17   V3    S    
C13   C18   A    
C15   C16   A    
O2    C1    A    
C18   C19   S    
C14   C15   A    
C35   H20   S    
C5    C6    S    
C9    H4    S    
C4    C12   S    
O14   C38   A    
O3    C4    A    
C21   C26   A    
C24   H13   S    
O19   V4    S    
O6    V2    S    
C8    H3    S    
O9    V2    S    
O2    V1    S    
C25   C38   S    
O17   V4    S    
C21   C22   A    
O16   V4    S    
C29   C34   A    
O7    V1    S    
C28   H16   S    
C23   H12   S    
C2    C30   S    
O1    C2    A    
C27   O21   S    
O15   V3    S    
O5    V1    S    
O8    C3    A    
C33   C37   S    
C11   I1    S    
C5    C8    S    
C15   H6    S    
C11   C12   S    
O4    V1    S    
O12   V3    S    
O3    V1    S    
V1    O10   S    
C34   C35   S    
C19   H8    S    
C29   C30   A    
C19   C20   S    
O13   V3    S    
C13   C20   S    
C16   C17   A    
O7    V2    S    
C32   H18   S    
C33   C34   A    
C7    C39   S    
C35   C36   S    
C37   O16   A    
C7    C10   S    
C8    C9    S    
C7    C8    S    
O18   V4    S    
