data_mof_unit_29082.cif
_audit_creation_date              2013-03-05T15:58:17-0500
_audit_creation_method            fapswitch 2.2
_symmetry_space_group_name_H-M    P1
_symmetry_Int_Tables_number       1
_space_group_crystal_system       triclinic
_cell_length_a                    12.635363
_cell_length_b                    13.221874
_cell_length_c                    15.40666
_cell_angle_alpha                 83.984003
_cell_angle_beta                  100.223546
_cell_angle_gamma                 96.363818
_cell_volume                      2507.85651814

loop_
_atom_site_label
_atom_site_type_symbol
_atom_site_description
_atom_site_fract_x
_atom_site_fract_y
_atom_site_fract_z
_atom_type_partial_charge
O1    O     O_R   0.374950 0.371210 0.521360 -0.621394
O2    O     O_R   0.542050 0.338030 0.492790 -0.561176
C1    C     C_R   0.445672 0.308456 0.513637 0.910427
O3    O     O_R   0.368720 0.526070 0.390200 -0.627603
O4    O     O_R   0.535820 0.492890 0.361630 -0.596831
C2    C     C_R   0.435807 0.516674 0.335526 0.864810
Zn1   Zn    Zn3+2 0.388420 0.522150 0.519080 0.956105
Zn2   Zn    Zn3+2 0.611580 0.477850 0.480920 1.061127
O5    O     O_R   0.457950 0.661970 0.507210 -0.630062
O6    O     O_R   0.625050 0.628790 0.478640 -0.627950
O7    O     O_R   0.464180 0.507110 0.638370 -0.626354
O8    O     O_R   0.631280 0.473930 0.609800 -0.528483
C3    C     C_R   0.555496 0.691323 0.489123 0.871730
C4    C     C_R   0.565590 0.488923 0.664343 0.963739
C5    C     C_R   0.405037 0.546535 0.240593 -0.059210
C6    C     C_R   0.607281 0.494529 0.759012 -0.041151
C7    C     C_R   0.291070 0.627868 0.115355 -0.174465
C8    C     C_R   0.309557 0.591451 0.204887 -0.195172
C9    C     C_R   0.481079 0.540028 0.186565 -0.216249
C10   C     C_R   0.467357 0.580594 0.098646 0.079765
C11   C     C_R   0.368878 0.621361 0.061666 0.155891
C12   C     C_R   0.546114 0.573169 0.045383 0.069554
C13   C     C_R   0.517483 0.588901 0.952329 0.069418
C14   C     C_R   0.420637 0.634365 0.916929 -0.186887
C15   C     C_R   0.348731 0.652191 0.971383 -0.190004
C16   C     C_R   0.651077 0.546242 0.082206 -0.197193
C17   C     C_R   0.717131 0.514388 0.029829 -0.191574
C18   C     C_R   0.680942 0.510050 0.939611 0.151516
C19   C     C_R   0.583680 0.552220 0.899065 0.097931
C20   C     C_R   0.738579 0.459852 0.890260 -0.184090
C21   C     C_R   0.699301 0.448499 0.801391 -0.009437
C22   C     C_R   0.551383 0.547401 0.807781 -0.241437
H1    H     H_    0.274643 0.685521 0.941963 0.180034
H2    H     H_    0.794291 0.487996 0.060831 0.153168
H3    H     H_    0.215990 0.660478 0.088008 0.151462
H4    H     H_    0.250037 0.598941 0.245885 0.161238
H5    H     H_    0.550780 0.500416 0.213730 0.203105
H6    H     H_    0.397917 0.657064 0.847455 0.164357
H7    H     H_    0.683465 0.547658 0.151851 0.150918
C23   C     C_R   0.729733 0.931680 0.537059 -0.086455
H8    H     H_    0.814951 0.954756 0.555790 0.190625
C24   C     C_R   0.591012 0.799456 0.490474 -0.055515
C25   C     C_R   0.302723 0.166235 0.505399 -0.178240
C26   C     C_R   0.269524 0.063976 0.496959 -0.076062
C27   C     C_R   0.345951 0.994923 0.502214 -0.088205
C28   C     C_R   0.458144 0.026461 0.521948 0.042784
C29   C     C_R   0.490334 0.126447 0.546681 -0.037416
C30   C     C_R   0.539073 0.962406 0.517368 0.056330
C31   C     C_R   0.649938 0.995045 0.544819 -0.002304
C32   C     C_R   0.678726 0.087172 0.584024 0.228728
C33   C     C_R   0.598530 0.150906 0.588944 0.242576
C34   C     C_R   0.512621 0.866130 0.485937 -0.199956
C35   C     C_R   0.700170 0.834222 0.510016 -0.145366
C36   C     C_R   0.413053 0.198976 0.526221 -0.043029
H9    H     H_    0.430706 0.838579 0.460829 0.143973
H10   H     H_    0.184294 0.038941 0.481438 0.163225
C37   C     C_R   0.142622 0.677948 0.586373 0.241448
H11   H     H_    0.314845 0.674107 0.617498 0.168670
N1    N     N_R   0.239390 0.551900 0.544730 -0.128895
C38   C     C_R   0.759672 0.370372 0.403619 0.486014
C39   C     C_R   0.854343 0.349592 0.377804 -0.236877
C40   C     C_R   0.950014 0.407100 0.405494 -0.231894
C41   C     C_R   0.952344 0.485928 0.460535 0.032022
C42   C     C_R   0.854081 0.508074 0.483447 0.066209
C43   C     C_R   0.049755 0.539296 0.498677 -0.019221
C44   C     C_R   0.046557 0.628783 0.541409 0.000527
C45   C     C_R   0.946647 0.661814 0.544058 -0.294350
C46   C     C_R   0.857077 0.590367 0.536262 0.299256
C47   C     C_R   0.150078 0.503293 0.500929 -0.024674
C48   C     C_R   0.239080 0.637234 0.585963 -0.072156
N2    N     N_R   0.759950 0.448600 0.455730 -0.182426
H12   H     H_    0.160344 0.436954 0.469317 0.132203
H13   H     H_    0.020556 0.389561 0.381605 0.151280
H14   H     H_    0.853397 0.288937 0.335457 0.182425
H15   H     H_    0.811048 0.424852 0.921502 0.161337
H16   H     H_    0.762277 0.784603 0.509317 0.167534
N3    N     N_R   0.788703 0.113655 0.623069 0.232816
O9    O     O_R   0.817666 0.102985 0.708655 -0.314612
O10   O     O_R   0.859045 0.151527 0.573232 -0.353610
H17   H     H_    0.242025 0.220182 0.492270 0.162927
H18   H     H_    0.314033 0.917435 0.491735 0.146624
N4    N     N_R   0.625452 0.234787 0.643451 0.205884
O11   O     O_R   0.562537 0.249953 0.698234 -0.435507
O12   O     O_R   0.716756 0.290978 0.643697 -0.323037
H19   H     H_    0.480084 0.580897 0.773611 0.159294
H20   H     H_    0.942199 0.729535 0.576416 0.222043
N5    N     N_R   0.143438 0.763404 0.637026 0.193459
O13   O     O_R   0.085950 0.755449 0.700048 -0.345942
O14   O     O_R   0.219213 0.838254 0.634744 -0.411068
N6    N     N_R   0.662676 0.309475 0.372419 0.220297
O15   O     O_R   0.607925 0.335936 0.295312 -0.422215
O16   O     O_R   0.652741 0.213954 0.402565 -0.406061
N7    N     N_R   0.811290 0.573608 0.614756 0.244901
O17   O     O_R   0.847916 0.501216 0.672227 -0.361871
O18   O     O_R   0.772935 0.648848 0.643455 -0.423051
H21   H     H_    0.739747 0.401826 0.767081 0.245035

loop_
_geom_bond_atom_site_label_1
_geom_bond_atom_site_label_2
_geom_bond_distance
_ccdc_geom_bond_type
C5    C8    1.401975 A    
N5    O13   1.301341 A    
C41   C43   1.412721 A    
N7    O17   1.299774 A    
C9    C10   1.391934 A    
C37   C44   1.413079 A    
N3    O9    1.301419 A    
C6    C21   1.397378 A    
Zn1   O7    1.916949 S    
C16   C17   1.383248 A    
C42   C46   1.418778 A    
C18   C19   1.420483 A    
C19   C22   1.399209 A    
C24   C35   1.394749 A    
C20   C21   1.388820 A    
O7    C4    1.313748 A    
C16   H7    1.079725 S    
C23   C31   1.408479 A    
C42   N2    1.377721 A    
C31   C32   1.399607 A    
O5    C3    1.319325 A    
C9    H5    1.072642 S    
C2    C5    1.468798 S    
C45   H20   1.080781 S    
C14   H6    1.077425 S    
C13   C14   1.419034 A    
C40   H13   1.078805 S    
C37   C48   1.387130 A    
C34   H9    1.075839 S    
C44   C45   1.389358 A    
N7    O18   1.301980 A    
O3    Zn1   1.952725 S    
Zn1   N1    2.077909 S    
C3    C24   1.451416 S    
C32   C33   1.404483 A    
N3    O10   1.301255 A    
C17   H2    1.084246 S    
C28   C30   1.413516 A    
C45   C46   1.387882 A    
C14   C15   1.394413 A    
O3    C2    1.319951 A    
H11   C48   1.082254 S    
C29   C33   1.423953 A    
C38   N2    1.373560 A    
C25   H17   1.083446 S    
C27   C28   1.420717 A    
N4    O11   1.301360 A    
C7    C11   1.407298 A    
C37   N5    1.437061 S    
C38   C39   1.388971 A    
O1    C1    1.312980 A    
C47   H12   1.077304 S    
C5    C9    1.393083 A    
C25   C26   1.382999 A    
C40   C41   1.405664 A    
C26   H10   1.082890 S    
C25   C36   1.403667 A    
N6    O16   1.299676 A    
Zn2   O8    1.952725 S    
C7    C8    1.400175 A    
C33   N4    1.435674 S    
N1    C47   1.342273 A    
C29   C36   1.416839 A    
C23   H8    1.082176 S    
C10   C12   1.414827 A    
C23   C35   1.387135 A    
N4    O12   1.300747 A    
N5    O14   1.300752 A    
C4    C6    1.466818 S    
C35   H16   1.079335 S    
C32   N3    1.433540 S    
C13   C19   1.423102 A    
C26   C27   1.387400 A    
Zn1   O5    1.961891 S    
C11   C15   1.394345 A    
C28   C29   1.410570 A    
C30   C31   1.421741 A    
Zn2   N2    2.065230 S    
O1    Zn1   1.981209 S    
O2    Zn2   1.961892 S    
O8    C4    1.324149 A    
O6    C3    1.312062 A    
O4    Zn2   1.916949 S    
C38   N6    1.426410 S    
C39   H14   1.083393 S    
C6    C22   1.400024 A    
C46   N7    1.417759 S    
C18   C20   1.399453 A    
O2    C1    1.321358 A    
C20   H15   1.084011 S    
N6    O15   1.298858 A    
O4    C2    1.318614 A    
C43   C47   1.396194 A    
C22   H19   1.075222 S    
C1    C36   1.462904 S    
C27   H18   1.076270 S    
C39   C40   1.379349 A    
N1    C48   1.352287 A    
C41   C42   1.417643 A    
C30   C34   1.394288 A    
C10   C11   1.412837 A    
Zn2   O6    1.981207 S    
C43   C44   1.420684 A    
C12   C16   1.415190 A    
C24   C34   1.385352 A    
C17   C18   1.389125 A    
C12   C13   1.414063 A    
C7    H3    1.083558 S    
C8    H4    1.082860 S    
C21   H21   1.074991 S    
C15   H1    1.083943 S    
