data_mof_unit_37369.cif
_audit_creation_date              2012-10-26T18:44:49-0400
_audit_creation_method            fapswitch 2.2
_symmetry_space_group_name_H-M    P1
_symmetry_Int_Tables_number       1
_space_group_crystal_system       triclinic
_cell_length_a                    16.002934
_cell_length_b                    14.767872
_cell_length_c                    10.82529
_cell_angle_alpha                 90.064482
_cell_angle_beta                  89.973986
_cell_angle_gamma                 89.432913
_cell_volume                      2558.20579707

loop_
_atom_site_label
_atom_site_type_symbol
_atom_type_description
_atom_site_fract_x
_atom_site_fract_y
_atom_site_fract_z
_atom_type_partial_charge
C1    C     C_1   0.251987 0.501999 0.494685 -0.028886
C2    C     C_R   0.565926 0.047246 0.554112 -0.110771
C3    C     C_R   0.954566 0.577874 0.452630 0.237030
C4    C     C_R   0.046096 0.418522 0.499560 0.236574
C5    C     C_R   0.041803 0.581645 0.464071 0.238194
C6    C     C_R   0.958820 0.418259 0.510718 0.226250
C7    C     C_R   0.340902 0.500520 0.499358 0.528474
C8    C     C_R   0.659181 0.499554 0.499490 0.528901
C9    C     C_R   0.500530 0.499880 0.262323 0.529468
C10   C     C_R   0.500435 0.499961 0.737828 0.532603
C11   C     C_R   0.912900 0.497615 0.483961 -0.064346
C12   C     C_1   0.748261 0.498409 0.495115 -0.033380
C13   C     C_R   0.087590 0.501227 0.484073 -0.052810
C14   C     C_1   0.499912 0.802715 0.500184 0.112679
C15   C     C_1   0.499965 0.197288 0.500184 0.120538
C16   C     C_1   0.823233 0.497533 0.490055 -0.013455
C17   C     C_1   0.177110 0.502772 0.489686 0.004661
C18   C     C_R   0.363813 0.579871 0.128827 -0.153342
C19   C     C_R   0.630217 0.407182 0.871989 -0.148419
C20   C     C_R   0.366323 0.584645 0.872706 -0.149970
C21   C     C_R   0.634021 0.412916 0.128178 -0.152880
C22   C     C_R   0.299227 0.625853 0.065516 0.312999
C23   C     C_R   0.500282 0.499589 0.871588 0.012649
C24   C     C_R   0.691175 0.357646 0.935843 0.305816
C25   C     C_R   0.301648 0.629528 0.936642 0.317543
C26   C     C_R   0.696767 0.364539 0.063975 0.308737
C27   C     C_R   0.433933 0.542979 0.935671 -0.043941
C28   C     C_R   0.566424 0.455294 0.065032 -0.043551
C29   C     C_R   0.433281 0.541731 0.065340 -0.042250
C30   C     C_R   0.565529 0.454081 0.935235 -0.046520
C31   C     C_3   0.098636 0.704931 0.559972 0.007095
C32   C     C_3   0.023518 0.762334 0.602829 -0.244247
C33   C     C_3   0.044784 0.820079 0.715158 -0.496318
C34   C     C_R   0.500313 0.499359 0.128855 0.014059
C35   C     C_3   0.899012 0.334322 0.664401 0.030692
C36   C     C_3   0.974072 0.301756 0.741453 -0.259985
C37   C     C_3   0.949491 0.283060 0.875186 -0.451623
C38   C     C_3   0.887103 0.651292 0.294666 0.014845
C39   C     C_3   0.956584 0.688622 0.211987 -0.241783
C40   C     C_3   0.928667 0.694260 0.077409 -0.484154
C41   C     C_3   0.117562 0.304699 0.399768 0.019545
C42   C     C_3   0.051537 0.242432 0.343730 -0.248653
C43   C     C_3   0.082481 0.199290 0.223790 -0.493938
C44   C     C_3   0.795808 0.365597 0.220550 -0.114508
C45   C     C_R   0.499838 0.902867 0.500418 0.001813
C46   C     C_3   0.268372 0.734551 0.786953 -0.138613
C47   C     C_3   0.709358 0.227601 0.826991 -0.132942
C48   C     C_3   0.250368 0.707950 0.234727 -0.106860
C49   C     C_R   0.499883 0.097145 0.500404 0.005641
C50   C     C_R   0.565908 0.951450 0.554084 -0.108145
C51   C     C_R   0.433767 0.048566 0.446863 -0.108790
C52   C     C_R   0.433739 0.952772 0.446878 -0.115916
Cu1   Cu    Cu3+1 0.500000 0.589220 0.500000 0.956138
Cu2   Cu    Cu3+1 0.500000 0.410780 0.500000 0.970940
H1    H     H_    0.617749 0.082411 0.596214 0.097650
H2    H     H_    0.117337 0.655765 0.633427 0.143523
H3    H     H_    0.002725 0.807387 0.526359 0.196110
H4    H     H_    0.971125 0.717320 0.628348 0.191910
H5    H     H_    0.065040 0.776309 0.793212 0.178274
H6    H     H_    0.988591 0.859282 0.744382 0.148991
H7    H     H_    0.095080 0.868496 0.692043 0.140812
H8    H     H_    0.848063 0.284617 0.674570 0.183962
H9    H     H_    0.874365 0.400019 0.700940 0.140268
H10   H     H_    0.000587 0.238793 0.700152 0.195887
H11   H     H_    0.023065 0.354481 0.741505 0.185884
H12   H     H_    0.381897 0.917607 0.404836 0.096607
H13   H     H_    0.921151 0.344553 0.917858 0.192608
H14   H     H_    0.005920 0.263564 0.928977 0.134709
H15   H     H_    0.904431 0.226481 0.879514 0.190880
H16   H     H_    0.830314 0.694286 0.282887 0.156617
H17   H     H_    0.869665 0.581896 0.263876 0.104445
H18   H     H_    0.974171 0.757251 0.244559 0.189022
H19   H     H_    0.012560 0.643726 0.217264 0.206207
H20   H     H_    0.911772 0.626037 0.042642 0.149753
H21   H     H_    0.980455 0.720774 0.019954 0.169511
H22   H     H_    0.873908 0.740578 0.068318 0.145594
H23   H     H_    0.381935 0.084769 0.404813 0.105706
H24   H     H_    0.175617 0.264499 0.415581 0.154255
H25   H     H_    0.134219 0.358970 0.332665 0.120313
H26   H     H_    0.035977 0.188234 0.410846 0.187535
H27   H     H_    0.993880 0.282098 0.323685 0.183092
H28   H     H_    0.097160 0.252469 0.154813 0.149584
H29   H     H_    0.033109 0.155164 0.185222 0.156120
H30   H     H_    0.139283 0.157392 0.241209 0.147190
H31   H     H_    0.759364 0.355802 0.306690 0.144436
H32   H     H_    0.801980 0.438911 0.198597 0.085603
H33   H     H_    0.859669 0.338716 0.237656 0.150089
H34   H     H_    0.617743 0.915248 0.596118 0.111382
H35   H     H_    0.281082 0.699348 0.698080 0.116363
H36   H     H_    0.325250 0.770374 0.819752 0.117546
H37   H     H_    0.220333 0.787310 0.769063 0.130088
H38   H     H_    0.665759 0.244789 0.750346 0.117630
H39   H     H_    0.675868 0.190703 0.901554 0.140363
H40   H     H_    0.757561 0.180654 0.789407 0.120284
H41   H     H_    0.308542 0.748224 0.225179 0.099138
H42   H     H_    0.255539 0.659557 0.312815 0.141646
H43   H     H_    0.198993 0.756080 0.257683 0.160353
H44   H     H_    0.358206 0.572445 0.227568 0.131714
H45   H     H_    0.634332 0.406485 0.772477 0.152094
H46   H     H_    0.361868 0.581857 0.773358 0.142561
H47   H     H_    0.637873 0.415343 0.227512 0.136932
H48   H     H_    0.152803 0.750308 0.546271 0.133420
N1    N     N_1   0.500000 0.276710 0.500000 -0.194000
N2    N     N_1   0.500000 0.723290 0.500000 -0.197752
O1    O     O_R   0.380310 0.575320 0.500020 -0.518978
O2    O     O_3   0.918853 0.337871 0.537025 -0.570689
O3    O     O_3   0.910152 0.655371 0.420871 -0.558300
O4    O     O_3   0.090675 0.338525 0.515834 -0.556846
O5    O     O_3   0.760067 0.315895 0.122848 -0.541403
O6    O     O_3   0.236706 0.673204 0.875122 -0.540446
O7    O     O_3   0.749220 0.305723 0.872427 -0.577517
O8    O     O_3   0.229212 0.662125 0.124673 -0.533449
O9    O     O_R   0.619690 0.424680 0.499980 -0.506973
O10   O     O_R   0.619690 0.575320 0.499980 -0.477637
O11   O     O_R   0.380310 0.424680 0.500020 -0.478777
O12   O     O_R   0.499990 0.575350 0.319650 -0.500313
O13   O     O_R   0.500010 0.424650 0.680350 -0.501079
O14   O     O_R   0.500010 0.575350 0.680350 -0.499855
O15   O     O_R   0.499990 0.424650 0.319650 -0.496648
O16   O     O_3   0.082183 0.662928 0.444923 -0.566885

loop_
_geom_bond_atom_site_label_1
_geom_bond_atom_site_label_2
_ccdc_geom_bond_type
C21   C26   A    
C38   H16   S    
C42   H26   S    
C41   O4    S    
C37   H15   S    
Cu2   O9    S    
C27   C29   A    
C43   H29   S    
C47   H38   S    
C35   C36   S    
C32   H4    S    
C46   H35   S    
Cu1   Cu2   S    
C48   H43   S    
C4    O4    S    
C36   C37   S    
C48   H41   S    
C24   C26   A    
C2    H1    S    
C38   C39   S    
C44   H32   S    
C20   C25   A    
Cu1   N2    S    
C37   H14   S    
C38   O3    S    
C41   C42   S    
C7    O11   A    
C4    C13   A    
C2    C50   A    
C12   C16   T    
C49   C51   A    
C22   C25   A    
C39   H18   S    
C7    O1    A    
C23   C27   A    
C31   H2    S    
C44   H33   S    
C23   C30   A    
C5    C13   A    
Cu1   O12   S    
C8    O10   A    
C21   H47   S    
C44   O5    S    
C15   C49   S    
C28   C34   A    
C33   H5    S    
C1    C7    S    
Cu2   O15   S    
C43   H30   S    
C24   O7    S    
C32   H3    S    
C42   H27   S    
C14   C45   S    
C47   H39   S    
C5    O16   S    
C51   C52   A    
C31   H48   S    
Cu2   N1    S    
C4    C6    A    
C41   H24   S    
C19   H45   S    
Cu1   O14   S    
C46   H37   S    
C45   C52   A    
C3    O3    S    
C29   C34   A    
C40   H22   S    
C51   H23   S    
C10   O14   A    
C2    C49   A    
C11   C16   S    
C14   N2    T    
C31   C32   S    
C20   H46   S    
C8    C12   S    
Cu2   O11   S    
C6    O2    S    
C18   C29   A    
C26   O5    S    
C25   O6    S    
C8    O9    A    
C48   O8    S    
C21   C28   A    
C33   H6    S    
C22   O8    S    
C46   O6    S    
C9    C34   S    
C9    O15   A    
C42   C43   S    
C44   H31   S    
C6    C11   A    
C52   H12   S    
Cu1   O10   S    
C38   H17   S    
C48   H42   S    
C18   C22   A    
C9    O12   A    
C3    C5    A    
C41   H25   S    
C46   H36   S    
C20   C27   A    
C50   H34   S    
C10   C23   S    
C1    C17   T    
C40   H21   S    
C13   C17   S    
C32   C33   S    
C36   H11   S    
C28   C30   A    
C19   C24   A    
C10   O13   A    
C45   C50   A    
C47   O7    S    
C37   H13   S    
C47   H40   S    
C40   H20   S    
C35   H8    S    
C39   H19   S    
C31   O16   S    
C3    C11   A    
C39   C40   S    
Cu1   O1    S    
C33   H7    S    
Cu2   O13   S    
C35   O2    S    
C43   H28   S    
C35   H9    S    
C18   H44   S    
C15   N1    T    
C36   H10   S    
C19   C30   A    
