data_mof_unit_24522.cif
_audit_creation_date              2012-12-11T16:20:14-0500
_audit_creation_method            fapswitch 2.2
_symmetry_space_group_name_H-M    P1
_symmetry_Int_Tables_number       1
_space_group_crystal_system       triclinic
_cell_length_a                    6.906231
_cell_length_b                    34.341713
_cell_length_c                    38.405723
_cell_angle_alpha                 99.628467
_cell_angle_beta                  89.694
_cell_angle_gamma                 90.621965
_cell_volume                      8979.85354412

loop_
_atom_site_label
_atom_site_type_symbol
_atom_type_description
_atom_site_fract_x
_atom_site_fract_y
_atom_site_fract_z
_atom_type_partial_charge
O1    O     O_R   0.494320 0.461440 0.460990 -0.537689
O2    O     O_R   0.821450 0.462560 0.532500 -0.542868
O3    O     O_R   0.994330 0.538560 0.539010 -0.533922
C1    C     C_R   0.651486 0.453562 0.543409 0.723618
O4    O     O_R   0.823870 0.456770 0.460860 -0.539881
O5    O     O_R   0.996760 0.532730 0.466860 -0.538060
C2    C     C_R   0.654510 0.445960 0.448035 0.710957
O6    O     O_R   0.491880 0.467270 0.533140 -0.535056
O7    O     O_3   0.661650 0.524930 0.502050 -0.367145
V1    V     V_3+5 0.935500 0.495380 0.499620 1.403526
O8    O     O_R   0.326630 0.537440 0.467500 -0.539857
C3    C     C_R   0.158500 0.545895 0.456049 0.718902
O9    O     O_R   0.324210 0.543230 0.539140 -0.544528
C4    C     C_R   0.155380 0.553528 0.552544 0.725522
V2    V     V_3+5 0.435810 0.504620 0.500380 1.403030
O10   O     O_3   0.159790 0.475070 0.497950 -0.368823
C5    C     C_R   0.056240 0.835714 0.790970 0.568712
N1    N     N_R   0.069576 0.825388 0.823923 -0.552504
C6    C     C_R   0.101085 0.787045 0.827811 0.573616
C7    C     C_R   0.120989 0.757339 0.798099 -0.020859
C8    C     C_R   0.102868 0.767032 0.763980 -0.047455
C9    C     C_R   0.068616 0.806654 0.759862 -0.041027
C10   C     C_R   0.156860 0.718040 0.801899 -0.137979
C11   C     C_R   0.174167 0.688537 0.772361 -0.142454
C12   C     C_R   0.154438 0.697466 0.738224 -0.021386
C13   C     C_R   0.118416 0.736772 0.734008 -0.018086
C14   C     C_R   0.096774 0.745655 0.699866 -0.070033
C15   C     C_R   0.061889 0.784702 0.695711 -0.136311
C16   C     C_R   0.048045 0.815299 0.724914 0.129239
C17   C     C_R   0.168666 0.667911 0.708104 0.571109
N2    N     N_R   0.145731 0.677058 0.674987 -0.554329
C18   C     C_R   0.109031 0.715049 0.670461 0.578130
O11   O     O_2   0.033425 0.874089 0.788611 -0.529320
O12   O     O_2   0.110815 0.777516 0.860447 -0.521310
H1    H     H_    0.171813 0.709883 0.827793 0.172930
H2    H     H_    0.201812 0.658636 0.776412 0.171977
O13   O     O_2   0.204919 0.630326 0.711902 -0.520517
O14   O     O_2   0.083434 0.723162 0.637622 -0.521652
C19   C     C_R   0.309247 0.641931 0.620733 0.176165
C20   C     C_R   0.305123 0.611873 0.591021 -0.247069
H3    H     H_    0.426800 0.609367 0.572865 0.147751
C21   C     C_R   0.147461 0.585309 0.584350 -0.097033
C22   C     C_R   0.989915 0.589300 0.608713 0.108258
C23   C     C_R   0.995356 0.619416 0.638422 -0.140067
C24   C     C_R   0.151648 0.645931 0.644570 0.351629
C25   C     C_R   0.197289 0.862886 0.879998 -0.094213
H4    H     H_    0.329989 0.846169 0.876189 0.142465
C26   C     C_R   0.176702 0.891914 0.909936 -0.241605
H5    H     H_    0.293384 0.896277 0.928933 0.143172
C27   C     C_R   0.008311 0.914924 0.915580 -0.067078
C28   C     C_R   0.857316 0.907779 0.890122 0.105301
C29   C     C_R   0.878724 0.877791 0.860510 -0.081204
H6    H     H_    0.763514 0.871892 0.841244 0.130517
C30   C     C_R   0.048411 0.855438 0.855049 0.336306
C31   C     C_R   0.897545 0.851566 0.172820 0.556508
O15   O     O_2   0.754262 0.878269 0.174635 -0.531518
N3    N     N_R   0.034849 0.849685 0.146834 -0.550921
C32   C     C_R   0.183791 0.823305 0.145007 0.586637
C33   C     C_R   0.180233 0.901032 0.116204 -0.085651
C34   C     C_R   0.171520 0.925985 0.090968 -0.203858
C35   C     C_R   0.846280 0.902453 0.075580 -0.200213
C36   C     C_R   0.856580 0.876909 0.100390 -0.086980
C37   C     C_R   0.023530 0.876013 0.121055 0.364737
C38   C     C_R   0.060042 0.799703 0.197571 -0.080339
C39   C     C_R   0.904733 0.826094 0.197861 -0.027439
C40   C     C_R   0.758278 0.826681 0.223096 -0.124694
C41   C     C_R   0.204568 0.798454 0.171024 -0.046805
C42   C     C_R   0.004280 0.927101 0.070400 -0.058906
H7    H     H_    0.715614 0.902508 0.060120 0.140397
C43   C     C_R   0.149366 0.572179 0.429122 -0.082689
C44   C     C_R   0.929214 0.750722 0.275876 -0.010802
C45   C     C_R   0.237458 0.723816 0.250291 0.047889
C46   C     C_R   0.087485 0.724844 0.276054 0.061926
C47   C     C_R   0.785236 0.750893 0.302201 -0.167522
C48   C     C_R   0.794265 0.727075 0.328403 0.151166
C49   C     C_R   0.952322 0.701035 0.328849 -0.051778
C50   C     C_R   0.096266 0.699638 0.302176 -0.080797
C51   C     C_R   0.250239 0.672867 0.301577 -0.025631
C52   C     C_R   0.255549 0.646947 0.326236 0.551559
N4    N     N_R   0.118141 0.648812 0.352141 -0.553513
C53   C     C_R   0.972725 0.676003 0.354714 0.581681
C54   C     C_R   0.285341 0.624755 0.400913 -0.134696
C55   C     C_R   0.297331 0.599787 0.426120 -0.208923
C56   C     C_R   0.991903 0.569323 0.405775 -0.198778
C57   C     C_R   0.981680 0.593217 0.379516 0.153851
C58   C     C_R   0.128118 0.622004 0.377484 0.384801
O16   O     O_2   0.849923 0.678587 0.382359 -0.530430
C59   C     C_R   0.919379 0.775679 0.249593 0.047970
C60   C     C_R   0.069389 0.774668 0.223837 0.061964
C61   C     C_R   0.228060 0.748911 0.224117 -0.010844
C62   C     C_R   0.763928 0.801909 0.248093 -0.179367
H8    H     H_    0.398851 0.646483 0.399616 0.153532
H9    H     H_    0.661524 0.769706 0.303343 0.126768
H10   H     H_    0.642163 0.804470 0.265827 0.123675
O17   O     O_2   0.308660 0.820916 0.117684 -0.535277
C63   C     C_R   0.363131 0.772536 0.171606 0.149905
H11   H     H_    0.295198 0.944789 0.087874 0.133848
H12   H     H_    0.309600 0.901157 0.132040 0.151289
C64   C     C_R   0.392103 0.697333 0.251600 -0.178380
C65   C     C_R   0.396783 0.672285 0.276376 -0.125751
O18   O     O_2   0.397226 0.619899 0.324233 -0.537522
C66   C     C_R   0.372565 0.748887 0.197923 -0.168303
H13   H     H_    0.513528 0.694640 0.233787 0.123401
H14   H     H_    0.878412 0.547607 0.407332 0.133080
H15   H     H_    0.497073 0.730318 0.196974 0.127202
C67   C     C_R   0.765165 0.325375 0.650423 0.578790
O19   O     O_2   0.917463 0.323530 0.628071 -0.518540
N5    N     N_R   0.621387 0.352135 0.648571 -0.554609
C68   C     C_R   0.464416 0.354152 0.670704 0.588042
C69   C     C_R   0.764449 0.409564 0.624919 0.165187
C70   C     C_R   0.770175 0.433111 0.598387 -0.245311
C71   C     C_R   0.503848 0.395409 0.567646 0.099134
C72   C     C_R   0.502508 0.371055 0.593664 -0.121407
C73   C     C_R   0.631238 0.377684 0.622244 0.339809
C74   C     C_R   0.593453 0.301077 0.698249 -0.050625
C75   C     C_R   0.754771 0.299727 0.675492 -0.045159
C76   C     C_R   0.902010 0.272892 0.678211 -0.131027
C77   C     C_R   0.446783 0.328537 0.695614 -0.034135
C78   C     C_R   0.640532 0.426783 0.569923 -0.087875
H16   H     H_    0.399903 0.346717 0.591964 0.150443
H17   H     H_    0.029130 0.271557 0.661407 0.170002
C79   C     C_R   0.513874 0.073132 0.929492 -0.067778
C80   C     C_R   0.711305 0.220903 0.750494 0.039446
C81   C     C_R   0.402371 0.251412 0.772138 -0.010908
C82   C     C_R   0.549740 0.223414 0.774002 0.059893
C83   C     C_R   0.850748 0.191520 0.752479 -0.169380
C84   C     C_R   0.834380 0.166092 0.776842 -0.130778
C85   C     C_R   0.679820 0.168976 0.800696 -0.035220
C86   C     C_R   0.536284 0.197674 0.799641 -0.078124
C87   C     C_R   0.381096 0.200602 0.824297 -0.051875
C88   C     C_R   0.380587 0.175206 0.850151 0.586575
N6    N     N_R   0.521567 0.147423 0.850233 -0.547920
C89   C     C_R   0.667929 0.143690 0.825840 0.570561
C90   C     C_R   0.359144 0.097615 0.880419 -0.084525
C91   C     C_R   0.356370 0.073598 0.906414 -0.244835
C92   C     C_R   0.676731 0.098026 0.926011 0.093870
C93   C     C_R   0.675686 0.122449 0.900012 -0.085769
C94   C     C_R   0.518602 0.122286 0.877004 0.330072
O20   O     O_2   0.802321 0.115434 0.825865 -0.529210
C95   C     C_R   0.728022 0.247425 0.725695 0.026231
C96   C     C_R   0.578688 0.275030 0.723533 0.067528
C97   C     C_R   0.414755 0.276918 0.746317 0.037533
C98   C     C_R   0.889955 0.247490 0.702831 -0.181284
H18   H     H_    0.231205 0.054710 0.908045 0.141884
H19   H     H_    0.236899 0.096901 0.862770 0.163472
H20   H     H_    0.946381 0.144300 0.777165 0.168721
H21   H     H_    0.974839 0.186837 0.735312 0.124290
O21   O     O_2   0.325932 0.381043 0.668761 -0.533537
C99   C     C_R   0.285187 0.329815 0.717718 -0.131571
H22   H     H_    0.873809 0.457324 0.600483 0.132918
H23   H     H_    0.168727 0.350278 0.715911 0.165888
C100  C     C_R   0.247329 0.253251 0.796471 -0.167173
C101  C     C_R   0.234708 0.228925 0.822280 0.150402
O22   O     O_2   0.243488 0.178511 0.875526 -0.534969
C102  C     C_R   0.268708 0.304577 0.742372 -0.181978
H24   H     H_    0.132944 0.274189 0.796566 0.125643
H25   H     H_    0.797824 0.141889 0.897516 0.150212
H26   H     H_    0.136927 0.307530 0.757560 0.127587
C103  C     C_R   0.658496 0.170196 0.203266 0.578326
N7    N     N_R   0.519656 0.172827 0.178369 -0.550672
C104  C     C_R   0.396096 0.204303 0.182310 0.570706
C105  C     C_R   0.408391 0.234266 0.212248 -0.022052
C106  C     C_R   0.553809 0.232383 0.237574 -0.021738
C107  C     C_R   0.681092 0.200335 0.232825 -0.062141
C108  C     C_R   0.280681 0.266258 0.217140 -0.141191
C109  C     C_R   0.298369 0.296165 0.246429 -0.145899
C110  C     C_R   0.443821 0.294826 0.271686 -0.022852
C111  C     C_R   0.572202 0.262676 0.267494 -0.050875
C112  C     C_R   0.719421 0.261059 0.292824 -0.040396
C113  C     C_R   0.853609 0.229216 0.286757 0.138931
C114  C     C_R   0.830254 0.199262 0.257233 -0.138858
C115  C     C_R   0.464047 0.325132 0.300976 0.565241
N8    N     N_R   0.598899 0.322472 0.326464 -0.549770
C116  C     C_R   0.725086 0.291445 0.323032 0.566354
O23   O     O_2   0.774084 0.138371 0.199552 -0.538323
O24   O     O_2   0.262566 0.206762 0.157279 -0.526210
H27   H     H_    0.166883 0.268395 0.198275 0.168280
H28   H     H_    0.197162 0.320372 0.249223 0.168155
O25   O     O_2   0.350244 0.357217 0.303853 -0.533010
O26   O     O_2   0.852597 0.289946 0.349174 -0.538924
H29   H     H_    0.931608 0.175036 0.253054 0.164259
C117  C     C_R   0.462236 0.358041 0.383240 0.158111
C118  C     C_R   0.477901 0.388624 0.412530 -0.191514
H30   H     H_    0.363298 0.392573 0.432159 0.131431
C119  C     C_R   0.641837 0.413581 0.417178 -0.088854
C120  C     C_R   0.791392 0.407571 0.392013 -0.205982
C121  C     C_R   0.774846 0.378006 0.362259 -0.122829
C122  C     C_R   0.610660 0.353166 0.357334 0.380020
C123  C     C_R   0.665623 0.140737 0.122538 -0.139155
H31   H     H_    0.785321 0.161472 0.128119 0.144893
C124  C     C_R   0.668138 0.112101 0.091700 0.098335
C125  C     C_R   0.508655 0.085548 0.084161 -0.089938
C126  C     C_R   0.353401 0.088498 0.108331 -0.247687
H32   H     H_    0.231821 0.068120 0.103315 0.139992
C127  C     C_R   0.354656 0.116303 0.139678 0.148668
C128  C     C_R   0.511680 0.143148 0.146733 0.350429
O27   O     O_R   0.662230 0.032770 0.966890 -0.536895
O28   O     O_R   0.330090 0.043230 0.039150 -0.542492
O29   O     O_R   0.157350 0.967260 0.033130 -0.538462
C129  C     C_R   0.499516 0.054194 0.052049 0.720946
O30   O     O_R   0.332650 0.037450 0.967510 -0.541732
O31   O     O_R   0.159930 0.961430 0.960980 -0.539382
C130  C     C_R   0.502803 0.046389 0.956359 0.716681
O32   O     O_R   0.659640 0.038600 0.039040 -0.534482
O33   O     O_3   0.492510 0.975090 0.997960 -0.365436
V3    V     V_3+5 0.218600 0.004620 0.000380 1.394704
O34   O     O_R   0.830050 0.956730 0.960830 -0.536955
C131  C     C_R   0.998338 0.946529 0.947415 0.719049
O35   O     O_R   0.827490 0.962520 0.032470 -0.540193
C132  C     C_R   0.995602 0.953986 0.043894 0.711955
V4    V     V_3+5 0.718310 0.995320 0.999580 1.397569
O36   O     O_3   0.994270 0.024900 0.002040 -0.369063
C133  C     C_3   0.676452 0.932346 0.892954 -0.729688
H33   H     H_    0.715630 0.964128 0.895318 0.204231
H34   H     H_    0.582540 0.924500 0.869372 0.204780
H35   H     H_    0.590335 0.927419 0.916272 0.212280
H36   H     H_    0.734572 0.857670 0.103436 0.155513
H37   H     H_    0.635759 0.846202 0.223471 0.168619
H38   H     H_    0.420610 0.602590 0.443708 0.145182
C134  C     C_3   0.629260 0.730137 0.354808 -0.667080
H39   H     H_    0.513533 0.750255 0.348896 0.177723
H40   H     H_    0.560040 0.700771 0.354341 0.231020
H41   H     H_    0.683640 0.742001 0.381673 0.235584
C135  C     C_3   0.527431 0.769123 0.145034 -0.664409
H42   H     H_    0.642904 0.748940 0.150929 0.177274
H43   H     H_    0.472081 0.757140 0.118262 0.235815
H44   H     H_    0.597324 0.798365 0.145256 0.231618
H45   H     H_    0.518357 0.652492 0.275811 0.165918
C136  C     C_3   0.815432 0.586367 0.353930 -0.655044
H46   H     H_    0.677850 0.594515 0.368236 0.235398
H47   H     H_    0.830085 0.603471 0.332004 0.221354
H48   H     H_    0.808068 0.554639 0.341930 0.195466
C137  C     C_3   0.362667 0.386745 0.537468 -0.719128
H49   H     H_    0.441525 0.383519 0.511882 0.188926
H50   H     H_    0.279914 0.358961 0.538136 0.207149
H51   H     H_    0.256698 0.411045 0.539063 0.224268
H52   H     H_    0.045202 0.791533 0.669352 0.170364
H53   H     H_    0.012688 0.228594 0.703386 0.128316
C138  C     C_3   0.898115 0.420324 0.655901 -0.646599
H54   H     H_    0.049936 0.419401 0.646286 0.249061
H55   H     H_    0.866797 0.450811 0.669366 0.191853
H56   H     H_    0.882759 0.400416 0.675690 0.215724
C139  C     C_3   0.008975 0.856244 0.717288 -0.656527
H57   H     H_    0.993986 0.856653 0.688567 0.180137
H58   H     H_    0.871145 0.867429 0.730009 0.233061
H59   H     H_    0.131197 0.876416 0.726817 0.237539
C140  C     C_3   0.850547 0.100018 0.949842 -0.710407
H60   H     H_    0.954950 0.123445 0.945141 0.207135
H61   H     H_    0.803706 0.106746 0.977829 0.194895
H62   H     H_    0.928535 0.071548 0.944927 0.218546
C141  C     C_3   0.061813 0.234557 0.846963 -0.662938
H63   H     H_    0.110782 0.245245 0.874410 0.233321
H64   H     H_    0.958585 0.256663 0.840126 0.177938
H65   H     H_    0.979474 0.206457 0.845536 0.231410
C142  C     C_3   0.026331 0.226392 0.310169 -0.671225
H66   H     H_    0.977337 0.221901 0.336790 0.239091
H67   H     H_    0.120748 0.201139 0.299572 0.180493
H68   H     H_    0.117090 0.253556 0.312024 0.224156
C143  C     C_3   0.290914 0.330186 0.380609 -0.693589
H69   H     H_    0.198134 0.335930 0.404597 0.206384
H70   H     H_    0.199921 0.333634 0.357684 0.247739
H71   H     H_    0.341753 0.299230 0.377528 0.210712
C144  C     C_3   0.484295 0.668730 0.626163 -0.690921
H72   H     H_    0.616967 0.650702 0.625313 0.196210
H73   H     H_    0.492591 0.686723 0.604720 0.225186
H74   H     H_    0.481980 0.688909 0.651908 0.211583
H75   H     H_    0.919459 0.426304 0.394961 0.140250
H76   H     H_    0.890468 0.374343 0.342865 0.149197
C145  C     C_3   0.840153 0.111318 0.067288 -0.709143
H77   H     H_    0.922372 0.083683 0.066961 0.218708
H78   H     H_    0.790591 0.113440 0.040275 0.194359
H79   H     H_    0.941551 0.136385 0.075856 0.206178
C146  C     C_3   0.188443 0.115575 0.165011 -0.631088
H80   H     H_    0.173107 0.085560 0.171924 0.200004
H81   H     H_    0.207869 0.136651 0.189969 0.216304
H82   H     H_    0.053281 0.122853 0.152143 0.233069
C147  C     C_3   0.816892 0.561725 0.604441 -0.720259
H83   H     H_    0.865211 0.530674 0.602013 0.194073
H84   H     H_    0.717057 0.567539 0.627461 0.202507
H85   H     H_    0.733009 0.565707 0.580748 0.215817
H86   H     H_    0.876360 0.622615 0.657153 0.133954

loop_
_geom_bond_atom_site_label_1
_geom_bond_atom_site_label_2
_ccdc_geom_bond_type
C120  H75   S    
C144  H74   S    
C64   H13   S    
C31   O15   S    
C74   C96   A    
N8    C122  S    
C108  C109  A    
C9    C16   A    
C63   C66   A    
O28   V3    S    
C108  H27   S    
C112  C113  A    
C6    C7    A    
C98   H53   S    
C95   C98   A    
C8    C13   A    
C143  H71   S    
C42   C132  S    
C135  H42   S    
C142  H67   S    
C104  C105  A    
C119  C120  A    
O27   C130  A    
C141  H63   S    
C50   C51   A    
N5    C68   A    
C39   C40   A    
C117  C143  S    
C101  C141  S    
C13   C14   A    
C83   C84   A    
O9    V2    S    
C113  C142  S    
C123  C128  A    
C48   C134  S    
C16   C139  S    
C8    C9    A    
C15   C16   A    
C76   C98   A    
C86   C87   A    
C136  H48   S    
C118  C119  A    
O5    C3    A    
C17   N2    A    
N4    C53   A    
C141  H64   S    
C67   O19   S    
O33   V4    S    
N6    C94   S    
C74   C75   A    
C72   H16   S    
O8    C3    A    
C142  H66   S    
C146  H82   S    
C54   H8    S    
C75   C76   A    
O32   V4    S    
C66   H15   S    
C70   C78   A    
N1    C6    A    
N5    C73   S    
C65   H45   S    
C76   H17   S    
C69   C70   A    
C61   C66   A    
N4    C58   S    
C72   C73   A    
C27   C28   A    
C146  H81   S    
C117  C118  A    
O8    V2    S    
C51   C52   A    
C113  C114  A    
C138  H54   S    
N6    C89   A    
C139  H58   S    
C5    N1    A    
C127  C146  S    
C112  C116  A    
C59   C62   A    
C1    C78   S    
C114  H29   S    
C109  H28   S    
C125  C126  A    
C18   O14   S    
C97   C102  A    
C45   C61   A    
C43   C56   A    
C137  H49   S    
C69   C73   A    
C1    O6    A    
C4    C21   S    
V2    O10   S    
C28   C133  S    
C26   C27   A    
C81   C100  A    
C142  H68   S    
C33   C34   A    
C103  O23   S    
C145  H77   S    
C85   C86   A    
C102  H26   S    
O34   V4    S    
O30   C130  A    
C47   H9    S    
C81   C97   A    
C35   C36   A    
C5    O11   S    
C38   C60   A    
C134  H40   S    
C134  H39   S    
C31   C39   A    
C29   C30   A    
C68   C77   A    
N3    C37   S    
O34   C131  A    
C133  H34   S    
C95   C96   A    
C25   C26   A    
C47   C48   A    
C28   C29   A    
C141  H65   S    
C36   H36   S    
C100  H24   S    
C144  H72   S    
C57   C136  S    
C56   C57   A    
C87   C101  A    
O35   C132  A    
C34   H11   S    
C19   C20   A    
C44   C46   A    
C104  O24   S    
C69   C138  S    
C92   C93   A    
C80   C83   A    
C127  C128  A    
C84   H20   S    
C63   C135  S    
C12   C13   A    
C57   C58   A    
C80   C95   A    
O29   V3    S    
N7    C128  S    
C124  C125  A    
C92   C140  S    
C67   C75   A    
C79   C130  S    
C77   C99   A    
O2    C1    A    
C48   C49   A    
C38   C41   A    
V4    O36   S    
O5    V1    S    
C136  H46   S    
O27   V4    S    
V3    O36   S    
C15   H52   S    
C44   C47   A    
C105  C108  A    
C55   H38   S    
C85   C89   A    
C32   O17   S    
C103  N7    A    
C22   C147  S    
C7    C10   A    
C133  H33   S    
C129  O32   A    
C74   C77   A    
C25   C30   A    
C36   C37   A    
C126  C127  A    
C146  H80   S    
C124  C145  S    
C140  H61   S    
C118  H30   S    
C138  H55   S    
C31   N3    A    
C117  C122  A    
C29   H6    S    
C11   C12   A    
C43   C55   A    
C137  H50   S    
C79   C92   A    
C40   C62   A    
O3    C4    A    
C88   O22   S    
O1    V2    S    
C115  O25   S    
C111  C112  A    
C88   N6    A    
C54   C55   A    
O6    V2    S    
C10   H1    S    
C147  H84   S    
C22   C23   A    
C51   C65   A    
C109  C110  A    
C56   H14   S    
C147  H83   S    
C99   H23   S    
C52   N4    A    
C145  H79   S    
C68   O21   S    
C120  C121  A    
C21   C22   A    
N2    C24   S    
C143  H69   S    
O2    V1    S    
C70   H22   S    
C116  O26   S    
C110  C111  A    
C115  N8    A    
C136  H47   S    
O4    C2    A    
C105  C106  A    
O7    V1    S    
C140  H62   S    
C35   H7    S    
C12   C17   A    
C144  H73   S    
C90   H19   S    
O33   V3    S    
C25   H4    S    
C20   H3    S    
C139  H59   S    
C46   C50   A    
C14   C18   A    
O1    C2    A    
C2    C119  S    
N2    C18   A    
C23   C24   A    
C45   C46   A    
C143  H70   S    
C6    O12   S    
C135  H43   S    
C49   C53   A    
C90   C94   A    
C71   C78   A    
O28   C129  A    
C83   H21   S    
C89   O20   S    
C110  C115  A    
C93   C94   A    
C90   C91   A    
C33   C37   A    
C5    C9    A    
C11   H2    S    
C64   C65   A    
C93   H25   S    
O29   C132  A    
N7    C104  A    
C145  H78   S    
C87   C88   A    
O7    V2    S    
C121  C122  A    
C40   H37   S    
O3    V1    S    
C19   C144  S    
C96   C97   A    
C38   C39   A    
C62   H10   S    
C54   C58   A    
C49   C50   A    
C53   O16   S    
C35   C42   A    
N3    C32   A    
C41   C63   A    
V1    O10   S    
C67   N5    A    
C121  H76   S    
C26   H5    S    
C23   H86   S    
C133  H35   S    
C20   C21   A    
O35   V4    S    
C106  C111  A    
O30   V3    S    
C71   C72   A    
C3    C43   S    
C125  C129  S    
C99   C102  A    
C123  H31   S    
C71   C137  S    
C137  H51   S    
C79   C91   A    
C91   H18   S    
C106  C107  A    
C80   C82   A    
N1    C30   S    
C10   C11   A    
N8    C116  A    
C44   C59   A    
C138  H56   S    
C82   C86   A    
C32   C41   A    
O4    V1    S    
C59   C60   A    
C34   C42   A    
C7    C8    A    
C126  H32   S    
O31   V3    S    
C147  H85   S    
C135  H44   S    
C84   C85   A    
C33   H12   S    
C17   O13   S    
C103  C107  A    
C52   O18   S    
C107  C114  A    
O31   C131  A    
C100  C101  A    
C123  C124  A    
C60   C61   A    
O9    C4    A    
C134  H41   S    
C19   C24   A    
C139  H57   S    
C140  H60   S    
C81   C82   A    
C14   C15   A    
C45   C64   A    
C27   C131  S    
