data_mof_unit_53448.cif
_audit_creation_date              2013-03-05T16:09:17-0500
_audit_creation_method            fapswitch 2.2
_symmetry_space_group_name_H-M    P1
_symmetry_Int_Tables_number       1
_space_group_crystal_system       triclinic
_cell_length_a                    8.57939
_cell_length_b                    10.703975
_cell_length_c                    9.913446
_cell_angle_alpha                 89.487544
_cell_angle_beta                  97.833292
_cell_angle_gamma                 91.008372
_cell_volume                      901.732845445

loop_
_atom_site_label
_atom_site_type_symbol
_atom_site_description
_atom_site_fract_x
_atom_site_fract_y
_atom_site_fract_z
_atom_type_partial_charge
O1    O     O_R   0.499990 0.316750 0.614620 -0.575168
O2    O     O_R   0.500010 0.683250 0.385380 -0.575164
O3    O     O_R   0.499990 0.316780 0.385290 -0.641229
O4    O     O_R   0.500010 0.683220 0.614710 -0.641230
C1    C     C_R   0.499448 0.260112 0.500257 0.878490
C2    C     C_R   0.500552 0.739888 0.499743 0.878496
O5    O     O_R   0.271750 0.499990 0.587840 -0.586009
O6    O     O_R   0.728250 0.500010 0.412160 -0.585996
O7    O     O_R   0.271750 0.500010 0.358510 -0.616027
O8    O     O_R   0.728250 0.499990 0.641490 -0.616028
C3    C     C_R   0.201606 0.498479 0.464798 0.966073
C4    C     C_R   0.798394 0.501523 0.535201 0.966085
Zn1   Zn    Zn3+2 0.500000 0.499980 0.653120 1.018197
Zn2   Zn    Zn3+2 0.500000 0.500020 0.346880 1.018198
N1    N     N_R   0.499960 0.499970 0.857200 -0.160717
N2    N     N_R   0.500040 0.500030 0.142800 -0.160711
C5    C     C_2   0.036892 0.491509 0.446425 -0.318074
C6    C     C_2   0.963107 0.508497 0.553574 -0.318073
C7    C     C_R   0.461482 0.064473 0.377044 -0.181103
C8    C     C_R   0.538519 0.935527 0.622956 -0.181102
C9    C     C_R   0.462662 0.936506 0.376618 -0.129343
C10   C     C_R   0.537338 0.063494 0.623382 -0.129330
C11   C     C_R   0.501011 0.872458 0.499578 -0.019136
C12   C     C_R   0.498989 0.127542 0.500422 -0.019137
C13   C     C_R   0.620535 0.556519 0.083555 0.362894
C14   C     C_R   0.379468 0.443478 0.916445 0.362911
C15   C     C_R   0.619542 0.555402 0.940317 -0.187630
C16   C     C_R   0.380458 0.444597 0.059682 -0.187627
H1    H     H_    0.976754 0.469602 0.345627 0.218782
H2    H     H_    0.023246 0.530408 0.654371 0.218784
H3    H     H_    0.430401 0.113637 0.281385 0.170639
H4    H     H_    0.569600 0.886363 0.718615 0.170638
H5    H     H_    0.432291 0.888089 0.280853 0.180971
H6    H     H_    0.567710 0.111911 0.719147 0.180978
N3    N     N_R   0.749629 0.618634 0.164014 0.209830
O9    O     O_R   0.891312 0.604027 0.134320 -0.414740
O10   O     O_R   0.723238 0.714401 0.236608 -0.374393
N4    N     N_R   0.250386 0.381351 0.835985 0.209847
O11   O     O_R   0.108695 0.395977 0.865648 -0.414737
O12   O     O_R   0.276790 0.285556 0.763437 -0.374412
H7    H     H_    0.714081 0.600718 0.895498 0.197655
H8    H     H_    0.285919 0.399281 0.104500 0.197647

loop_
_geom_bond_atom_site_label_1
_geom_bond_atom_site_label_2
_geom_bond_distance
_ccdc_geom_bond_type
N2    C16   1.356637 A    
N4    O12   1.298357 A    
O7    Zn2   1.977259 S    
C6    H2    1.085863 S    
C13   C15   1.418997 A    
C5    H1    1.085865 S    
C15   H7    1.082163 S    
N1    C15   1.356632 A    
N3    O9    1.301430 A    
C8    C11   1.398254 A    
O6    C4    1.284587 A    
C7    H3    1.083709 S    
C1    C12   1.418949 S    
C5    C6    1.323970 D    
C10   H6    1.083686 S    
O5    C3    1.284589 A    
O7    C3    1.282525 A    
O2    C2    1.289828 A    
O3    Zn2   1.994669 S    
O8    C4    1.282526 A    
C13   N3    1.430980 S    
O1    C1    1.289828 A    
C2    C11   1.418949 S    
C16   H8    1.082163 S    
C7    C9    1.370022 A    
C8    C10   1.370022 A    
C7    C12   1.398254 A    
C10   C12   1.395629 A    
C9    C11   1.395629 A    
Zn1   N1    2.023183 S    
N4    O11   1.301417 A    
O2    Zn2   2.001425 S    
Zn2   N2    2.023182 S    
O1    Zn1   2.001424 S    
O5    Zn1   1.976892 S    
C9    H5    1.083686 S    
O4    C2    1.286816 A    
C8    H4    1.083709 S    
C4    C6    1.400741 S    
N2    C13   1.384338 A    
C3    C5    1.400742 S    
N1    C14   1.384328 A    
O6    Zn2   1.976891 S    
N3    O10   1.298367 A    
C14   C16   1.418998 A    
C14   N4    1.430972 S    
O4    Zn1   1.994670 S    
O3    C1    1.286817 A    
O8    Zn1   1.977259 S    
