data_mof_unit_38370.cif
_audit_creation_date              2012-12-11T15:12:35-0500
_audit_creation_method            fapswitch 2.2
_symmetry_space_group_name_H-M    P1
_symmetry_Int_Tables_number       1
_space_group_crystal_system       triclinic
_cell_length_a                    8.625751
_cell_length_b                    17.506411
_cell_length_c                    19.229084
_cell_angle_alpha                 95.207982
_cell_angle_beta                  93.720997
_cell_angle_gamma                 96.103275
_cell_volume                      2867.16817742

loop_
_atom_site_label
_atom_site_type_symbol
_atom_type_description
_atom_site_fract_x
_atom_site_fract_y
_atom_site_fract_z
_atom_type_partial_charge
Ba1   Ba    Ba6+2 0.157360 0.537160 0.466280 1.772767
Ba2   Ba    Ba6+2 0.652820 0.462830 0.533660 1.788518
C1    C     C_3   0.406824 0.875509 0.279190 -0.323585
C2    C     C_R   0.873693 0.743710 0.501431 -0.029587
C3    C     C_R   0.931617 0.824209 0.504849 -0.112302
C4    C     C_3   0.847264 0.751419 0.285637 0.227565
C5    C     C_R   0.835984 0.878794 0.478073 -0.009668
C6    C     C_R   0.683277 0.852150 0.450133 -0.138138
C7    C     C_R   0.626690 0.773657 0.446165 -0.021355
C8    C     C_R   0.892669 0.172371 0.475242 -0.036131
C9    C     C_R   0.947841 0.252195 0.484507 0.008998
C10   C     C_R   0.191210 0.221945 0.542458 -0.025696
C11   C     C_R   0.133959 0.142247 0.536151 -0.072118
C12   C     C_3   0.402196 0.792060 0.299244 0.324905
C13   C     C_R   0.984202 0.116460 0.500853 0.079889
C14   C     C_1   0.926350 0.033020 0.490569 0.127142
C15   C     C_1   0.885109 0.963133 0.484336 0.088572
C16   C     C_3   0.914205 0.836238 0.290180 -0.226897
C17   C     C_R   0.097619 0.275027 0.516383 -0.289443
C18   C     C_R   0.578798 0.552788 0.297605 -0.202619
C19   C     C_R   0.442663 0.504479 0.276873 0.135622
C20   C     C_R   0.392194 0.496814 0.205042 -0.053146
C21   C     C_R   0.484539 0.533339 0.156166 0.034505
C22   C     C_R   0.637811 0.568090 0.179295 -0.074057
C23   C     C_3   0.560646 0.699236 0.632245 0.269066
C24   C     C_R   0.688235 0.575958 0.250839 -0.096890
C25   C     C_R   0.422721 0.597512 0.044211 -0.060838
C26   C     C_R   0.368825 0.590198 0.972554 -0.073817
C27   C     C_R   0.320072 0.517766 0.935756 -0.041398
C28   C     C_3   0.740566 0.356715 0.314384 0.136030
C29   C     C_R   0.321899 0.451889 0.972197 -0.024854
C30   C     C_R   0.372734 0.458054 0.043471 -0.012447
C31   C     C_R   0.426143 0.530167 0.080468 -0.000293
C32   C     C_R   0.117204 0.477532 0.832868 -0.029353
C33   C     C_R   0.078818 0.462233 0.759251 0.041412
C34   C     C_3   0.609575 0.785588 0.651117 -0.276493
C35   C     C_R   0.340289 0.522763 0.737360 -0.029463
C36   C     C_R   0.380656 0.535454 0.810408 -0.088884
C37   C     C_R   0.271209 0.510648 0.858454 -0.077919
C38   C     C_R   0.193612 0.482127 0.713507 -0.326383
C39   C     C_3   0.761407 0.335377 0.234960 -0.289384
C40   C     C_3   0.010215 0.688523 0.702322 0.166690
C41   C     C_3   0.980695 0.746564 0.765246 -0.266793
C42   C     C_3   0.288774 0.278363 0.329555 0.100408
C43   C     C_3   0.313401 0.203294 0.277762 -0.216678
C44   C     C_2   0.320352 0.735329 0.241749 0.570906
C45   C     C_3   0.785442 0.256224 0.720272 0.290084
C46   C     C_2   0.637317 0.363308 0.187899 0.340566
C47   C     C_2   0.922103 0.359446 0.211709 0.609864
C48   C     C_2   0.179689 0.686205 0.699280 0.330638
C49   C     C_2   0.931459 0.609220 0.709623 0.442086
C50   C     C_2   0.063813 0.733871 0.834166 0.492672
C51   C     C_2   0.119881 0.282485 0.336480 0.538922
C52   C     C_2   0.363179 0.276384 0.402107 0.513492
C53   C     C_2   0.237626 0.211048 0.205273 0.527635
C54   C     C_2   0.248172 0.125575 0.301433 0.704931
C55   C     C_2   0.483560 0.196083 0.266895 0.402135
C56   C     C_3   0.776860 0.194683 0.774160 -0.243234
C57   C     C_2   0.502882 0.892291 0.218526 0.485505
C58   C     C_2   0.475706 0.826561 0.674833 0.608708
C59   C     C_2   0.814181 0.222243 0.648058 0.539155
C60   C     C_2   0.655156 0.125745 0.755917 0.487981
C61   C     C_2   0.749448 0.231739 0.845342 0.574720
C62   C     C_2   0.410518 0.340787 0.751505 0.522537
C63   C     C_2   0.193578 0.236116 0.834402 0.479201
C64   C     C_2   0.207189 0.132284 0.742517 0.523495
C65   C     C_2   0.230602 0.087035 0.567337 0.571632
C66   C     C_2   0.088158 0.851585 0.538859 0.634347
C67   C     C_3   0.321554 0.265141 0.719885 0.256653
C68   C     C_2   0.665115 0.639111 0.465526 0.432384
C69   C     C_2   0.540075 0.569483 0.837481 0.574802
C70   C     C_2   0.470552 0.675991 0.080241 0.544840
C71   C     C_2   0.999731 0.461718 0.884632 0.606933
C72   C     C_2   0.163568 0.451621 0.640271 0.599897
C73   C     C_2   0.957330 0.859024 0.219988 0.592806
C74   C     C_2   0.799992 0.437727 0.337974 0.359507
C75   C     C_3   0.288707 0.207923 0.776165 -0.193904
C76   C     C_R   0.722193 0.720619 0.470845 -0.293980
H1    H     H_    0.017307 0.806371 0.752669 0.146955
H2    H     H_    0.616104 0.347744 0.323437 0.081381
H3    H     H_    0.267417 0.754752 0.194707 -0.016665
H4    H     H_    0.744754 0.271662 0.225787 0.184330
H5    H     H_    0.515670 0.351447 0.197791 0.022920
H6    H     H_    0.970100 0.419293 0.216240 0.004088
H7    H     H_    0.265482 0.718353 0.737732 0.069916
H8    H     H_    0.924907 0.565208 0.666166 0.079216
H9    H     H_    0.038585 0.680334 0.857650 0.044933
H10   H     H_    0.853742 0.742809 0.772763 0.150740
H11   H     H_    0.087430 0.333195 0.365219 -0.094364
H12   H     H_    0.286110 0.889381 0.266726 0.053697
H13   H     H_    0.366949 0.325958 0.440334 -0.023121
H14   H     H_    0.276515 0.260296 0.177827 0.046442
H15   H     H_    0.261844 0.072731 0.269250 -0.024256
H16   H     H_    0.524043 0.196840 0.214671 -0.017046
H17   H     H_    0.514370 0.950261 0.202316 0.073861
H18   H     H_    0.663569 0.673140 0.613861 0.051998
H19   H     H_    0.463737 0.692630 0.590634 0.111314
H20   H     H_    0.706957 0.794539 0.692420 0.144134
H21   H     H_    0.652337 0.811409 0.604328 0.017285
H22   H     H_    0.373353 0.827136 0.639371 -0.001674
H23   H     H_    0.525190 0.779050 0.307345 -0.095025
H24   H     H_    0.457006 0.915591 0.325123 0.094923
H25   H     H_    0.826084 0.872699 0.310688 0.081780
H26   H     H_    0.798729 0.255837 0.604276 0.001765
H27   H     H_    0.635716 0.084254 0.794006 0.061249
H28   H     H_    0.891451 0.171274 0.778173 0.083955
H29   H     H_    0.646714 0.261137 0.852785 0.054341
H30   H     H_    0.440849 0.385211 0.717922 -0.014138
H31   H     H_    0.166616 0.199057 0.875317 0.062775
H32   H     H_    0.402500 0.197039 0.801472 0.063879
H33   H     H_    0.099145 0.130821 0.710277 0.053476
H34   H     H_    0.674371 0.282180 0.717890 0.025977
H35   H     H_    0.606225 0.892959 0.433279 0.085395
H36   H     H_    0.356840 0.095214 0.567340 0.081323
H37   H     H_    0.127958 0.828816 0.586465 -0.001894
H38   H     H_    0.732319 0.600235 0.438649 0.093567
H39   H     H_    0.144512 0.334886 0.518302 0.058410
H40   H     H_    0.606437 0.540308 0.874768 0.036142
H41   H     H_    0.364939 0.641184 0.944745 0.147676
H42   H     H_    0.503933 0.684276 0.135800 0.006304
H43   H     H_    0.746843 0.740213 0.245401 0.043717
H44   H     H_    0.282525 0.462487 0.187315 0.078119
H45   H     H_    0.207428 0.276652 0.694719 -0.081994
H46   H     H_    0.285438 0.395277 0.945185 0.153457
H47   H     H_    0.373275 0.405803 0.069590 0.108203
H48   H     H_    0.006322 0.498365 0.933615 -0.034244
H49   H     H_    0.716966 0.588556 0.141825 0.082999
H50   H     H_    0.188454 0.393917 0.625077 -0.151237
H51   H     H_    0.037478 0.827473 0.190688 0.003749
H52   H     H_    0.903067 0.464080 0.318676 0.048446
H53   H     H_    0.805472 0.740605 0.337574 -0.037800
H54   H     H_    0.779362 0.153903 0.447831 0.125516
H55   H     H_    0.602380 0.566079 0.350890 0.066704
H56   H     H_    0.019874 0.846291 0.327488 0.103780
O1    O     O_2   0.143190 0.684560 0.534150 -0.408445
O2    O     O_2   0.742086 0.429430 0.752381 -0.444688
O3    O     O_3   0.911772 0.311885 0.743758 -0.601387
O4    O     O_3   0.882350 0.590230 0.535560 -0.455132
O5    O     O_3   0.431150 0.462160 0.416880 -0.440354
O6    O     O_2   0.634060 0.535220 0.669530 -0.458568
O7    O     O_3   0.511397 0.664496 0.690902 -0.570335
O8    O     O_2   0.518266 0.224659 0.549113 -0.433838
O9    O     O_3   0.414601 0.230185 0.671113 -0.624101
O10   O     O_3   0.372640 0.639320 0.408320 -0.409352
O11   O     O_2   0.342492 0.766729 0.489535 -0.465285
O12   O     O_3   0.349451 0.345587 0.299552 -0.738728
O13   O     O_3   0.949564 0.717198 0.641095 -0.687294
O14   O     O_3   0.317474 0.787078 0.359290 -0.576346
O15   O     O_2   0.176230 0.464730 0.330450 -0.505959
O16   O     O_3   0.952380 0.601530 0.373300 -0.461294
O17   O     O_2   0.010162 0.562061 0.242838 -0.449225
O18   O     O_2   0.311799 0.666315 0.247808 -0.585062
O19   O     O_2   0.670379 0.396273 0.136590 -0.556061
O20   O     O_2   0.995333 0.311891 0.182337 -0.529402
O21   O     O_2   0.222321 0.646746 0.651272 -0.588468
O22   O     O_2   0.875123 0.592961 0.763747 -0.615721
O23   O     O_3   0.963490 0.704191 0.268038 -0.570953
O24   O     O_2   0.160033 0.784132 0.864398 -0.496073
O25   O     O_2   0.020790 0.231011 0.310352 -0.503950
O26   O     O_2   0.413395 0.218261 0.420244 -0.519825
O27   O     O_2   0.134791 0.162970 0.176429 -0.487756
O28   O     O_2   0.181486 0.120335 0.355205 -0.563426
O29   O     O_2   0.575090 0.183050 0.314325 -0.500698
O30   O     O_2   0.567942 0.842520 0.187193 -0.552414
O31   O     O_2   0.481402 0.859742 0.733731 -0.500691
O32   O     O_2   0.855392 0.157885 0.637790 -0.606402
O33   O     O_2   0.580307 0.114092 0.699206 -0.485112
O34   O     O_2   0.667110 0.315390 0.465830 -0.422501
O35   O     O_2   0.842332 0.228890 0.895460 -0.501031
O36   O     O_2   0.453103 0.352845 0.813718 -0.591699
O37   O     O_2   0.147776 0.299734 0.837470 -0.523227
O38   O     O_2   0.261449 0.071963 0.751359 -0.484364
O39   O     O_2   0.170346 0.033295 0.596044 -0.528942
O40   O     O_2   0.175977 0.898344 0.512693 -0.542723
O41   O     O_2   0.562067 0.613402 0.499812 -0.540701
O42   O     O_2   0.594674 0.632244 0.821943 -0.526724
O43   O     O_2   0.472742 0.733083 0.048067 -0.499312
O44   O     O_2   0.899093 0.406685 0.875219 -0.495204
O45   O     O_3   0.927950 0.409760 0.464380 -0.434371
O46   O     O_2   0.096928 0.487778 0.598658 -0.518783
O47   O     O_2   0.903665 0.913449 0.195561 -0.501528
O48   O     O_2   0.742043 0.471132 0.386097 -0.576910
O49   O     O_3   0.437660 0.360670 0.591630 -0.507727
O50   O     O_3   0.814801 0.305349 0.353224 -0.557869
O51   O     O_3   0.379150 0.537830 0.583060 -0.375848
O52   O     O_3   0.857920 0.398470 0.626650 -0.507658
P1    P     P_3+3 0.970290 0.672580 0.555000 1.051852
P2    P     P_3+3 0.347000 0.441860 0.341200 0.964031
P3    P     P_3+3 0.898382 0.609806 0.283901 0.982143
P4    P     P_3+3 0.840010 0.327410 0.444950 1.108456
P5    P     P_3+3 0.890634 0.404890 0.719332 1.019881
P6    P     P_3+3 0.417817 0.740924 0.422414 1.042191
P7    P     P_3+3 0.467493 0.563861 0.670617 1.112612
P8    P     P_3+3 0.386623 0.260483 0.587103 0.947547

loop_
_geom_bond_atom_site_label_1
_geom_bond_atom_site_label_2
_ccdc_geom_bond_type
C56   C60   S    
C44   O18   D    
C46   O19   D    
O14   P6    S    
C16   C73   S    
C12   O14   S    
C68   C76   S    
C67   C75   S    
C5    C6    A    
C12   C44   S    
C60   H27   S    
C25   C31   A    
C7    C76   A    
C9    C17   A    
C35   C36   A    
C63   O37   D    
C1    H12   S    
Ba2   O5    S    
C47   H6    S    
O12   P2    S    
C26   C27   A    
C65   H36   S    
C22   C24   A    
C29   H46   S    
C59   O32   D    
C35   C38   A    
C8    C13   A    
C36   C37   A    
C41   C50   S    
C61   O35   D    
C67   H45   S    
C41   H1    S    
C71   H48   S    
C54   O28   D    
C56   C61   S    
O49   P8    S    
O34   P4    D    
C69   O42   D    
C32   C33   A    
C39   C47   S    
O52   P5    S    
C57   O30   D    
C48   H7    S    
O3    P5    S    
C74   H52   S    
C42   C51   S    
C72   H50   S    
C43   C54   S    
C6    C7    A    
C21   C31   S    
C22   H49   S    
C42   O12   S    
C21   C22   A    
C28   C39   S    
Ba1   O15   S    
C64   H33   S    
C34   H21   S    
C7    P6    S    
C68   O41   D    
Ba1   O5    S    
C40   C49   S    
C16   H25   S    
C28   H2    S    
C60   O33   D    
C19   C20   A    
C45   O3    S    
C57   H17   S    
C70   O43   D    
C3    C66   S    
C74   O48   D    
C40   O13   S    
C49   H8    S    
O1    P1    D    
C24   P3    S    
C20   H44   S    
O23   P3    S    
Ba1   P1    S    
C50   O24   D    
C54   H15   S    
C4    C16   S    
C49   O22   D    
C51   O25   D    
C63   C75   S    
O2    P5    D    
C32   C37   A    
Ba2   O4    S    
C47   O20   D    
C59   H26   S    
C53   O27   D    
C3    C5    A    
C66   O40   D    
C14   C15   T    
C12   H23   S    
O10   P6    S    
O13   P1    S    
O9    P8    S    
C73   H51   S    
O6    P7    D    
C56   H28   S    
C35   P7    S    
C30   H47   S    
Ba2   O52   S    
C2    C76   A    
C53   H14   S    
C44   H3    S    
C28   C74   S    
C29   C30   A    
C55   O29   D    
O17   P3    D    
C48   O21   D    
C43   C55   S    
C70   H42   S    
O8    P8    D    
Ba1   O16   S    
O7    P7    S    
C62   C67   S    
C10   C11   A    
C63   H31   S    
O15   P2    D    
C1    C12   S    
C6    H35   S    
C40   C48   S    
C71   O44   D    
C1    H24   S    
C23   H19   S    
C55   H16   S    
C11   C13   A    
O11   P6    D    
C51   H11   S    
C18   H55   S    
O50   P4    S    
Ba2   O45   S    
C41   H10   S    
C61   H29   S    
O5    P2    S    
C73   O47   D    
C66   H37   S    
Ba2   O34   S    
C4    O23   S    
C42   C43   S    
C2    P1    S    
C19   P2    S    
C11   C65   S    
Ba1   P2    S    
C64   O38   D    
C27   C37   S    
C64   C75   S    
C36   C69   S    
C33   P5    S    
C69   H40   S    
C23   C34   S    
C28   O50   S    
C50   H9    S    
C23   O7    S    
Ba2   P4    S    
O51   P7    S    
C4    H53   S    
C58   H22   S    
C26   H41   S    
C5    C15   S    
C45   C59   S    
Ba1   O51   S    
C67   O9    S    
C45   H34   S    
C58   O31   D    
C46   H5    S    
C9    P4    S    
Ba2   O6    S    
C30   C31   A    
C33   C38   A    
Ba2   O51   S    
C52   H13   S    
C27   C29   A    
Ba1   O10   S    
O16   P3    S    
Ba1   O45   S    
O45   P4    S    
C18   C24   A    
C65   O39   D    
C39   H4    S    
Ba1   Ba2   S    
C10   C17   A    
C39   C46   S    
C38   C72   S    
O4    P1    S    
C16   H56   S    
Ba2   O49   S    
C62   O36   D    
C75   H32   S    
C8    H54   S    
C8    C9    A    
C25   C70   S    
C32   C71   S    
C52   O26   D    
C42   C52   S    
C2    C3    A    
C72   O46   D    
C18   C19   A    
C43   C53   S    
C23   H18   S    
C40   C41   S    
C68   H38   S    
C25   C26   A    
C34   C58   S    
C20   C21   A    
C34   H20   S    
C4    H43   S    
Ba1   O1    S    
Ba1   O4    S    
C13   C14   S    
C62   H30   S    
C10   P8    S    
C45   C56   S    
C17   H39   S    
C1    C57   S    
