data_mof_unit_61224.cif
_audit_creation_date              2013-03-05T16:43:29-0500
_audit_creation_method            fapswitch 2.2
_symmetry_space_group_name_H-M    P1
_symmetry_Int_Tables_number       1
_space_group_crystal_system       triclinic
_cell_length_a                    16.479333
_cell_length_b                    17.126442
_cell_length_c                    17.79285
_cell_angle_alpha                 88.19582
_cell_angle_beta                  89.982643
_cell_angle_gamma                 94.292188
_cell_volume                      5005.13326272

loop_
_atom_site_label
_atom_site_type_symbol
_atom_site_description
_atom_site_fract_x
_atom_site_fract_y
_atom_site_fract_z
_atom_type_partial_charge
O1    O     O_R   0.432070 0.499990 0.608760 -0.525284
O2    O     O_R   0.567930 0.500010 0.391240 -0.514260
O3    O     O_R   0.567880 0.500000 0.608730 -0.592157
O4    O     O_R   0.432120 0.500000 0.391270 -0.578370
C1    C     C_R   0.499828 0.499141 0.644409 0.905366
C2    C     C_R   0.499596 0.495370 0.355000 0.907762
O5    O     O_R   0.424660 0.386070 0.500710 -0.546658
O6    O     O_R   0.575340 0.613930 0.499290 -0.549907
O7    O     O_R   0.560480 0.386080 0.500680 -0.559417
O8    O     O_R   0.439520 0.613920 0.499320 -0.557972
C3    C     C_R   0.489736 0.348569 0.495639 0.879661
C4    C     C_R   0.510376 0.650794 0.499741 0.961584
Cu1   Cu    Cu3+1 0.419580 0.500000 0.500020 1.090822
Cu2   Cu    Cu3+1 0.580420 0.500000 0.499980 1.096768
C5    C     C_R   0.484222 0.262419 0.482787 -0.280420
C6    C     C_R   0.516959 0.736303 0.496187 -0.237772
C7    C     C_R   0.556196 0.221291 0.483961 0.241579
C8    C     C_R   0.478753 0.775465 0.436772 0.223372
C9    C     C_R   0.552729 0.141287 0.469893 0.109952
C10   C     C_R   0.482637 0.857607 0.433096 0.109934
C11   C     C_R   0.476479 0.098450 0.464707 0.164198
C12   C     C_R   0.518808 0.900197 0.493457 0.170413
C13   C     C_R   0.405408 0.138288 0.459856 0.111291
C14   C     C_R   0.558863 0.860549 0.551210 0.122463
C15   C     C_R   0.409109 0.220534 0.464344 0.106790
C16   C     C_R   0.560107 0.778725 0.551818 0.110501
N1    N     N_2   0.469009 0.015620 0.460653 -0.152012
N2    N     N_2   0.521627 0.982955 0.497458 -0.156393
C17   C     C_R   0.430295 0.497463 0.149318 0.150444
C18   C     C_R   0.545543 0.445445 0.846800 0.156538
C19   C     C_R   0.426452 0.489454 0.228332 0.123229
C20   C     C_R   0.542612 0.443345 0.767919 0.083648
C21   C     C_R   0.499762 0.489524 0.271069 -0.258848
C22   C     C_R   0.499870 0.499048 0.726908 -0.241405
C23   C     C_R   0.574829 0.485304 0.232069 0.269245
C24   C     C_R   0.456345 0.553901 0.765120 0.273064
C25   C     C_R   0.577478 0.492103 0.153204 0.113849
C26   C     C_R   0.461363 0.556995 0.843698 0.112811
C27   C     C_R   0.505720 0.500040 0.112586 -0.102772
C28   C     C_R   0.506113 0.503137 0.884049 -0.098798
C29   C     C_1   0.508250 0.503703 0.031986 0.107208
C30   C     C_1   0.508233 0.504544 0.964509 0.106426
C31   C     C_R   0.175422 0.546307 0.446361 0.091105
C32   C     C_R   0.823204 0.438386 0.537990 0.096926
C33   C     C_R   0.261018 0.545734 0.448758 0.010462
C34   C     C_R   0.737776 0.441320 0.537313 0.047236
H1    H     H_    0.297572 0.582083 0.408932 0.210914
H2    H     H_    0.700529 0.396410 0.567520 0.209451
N3    N     N_R   0.298780 0.499980 0.500030 -0.268111
N4    N     N_R   0.701220 0.500020 0.499970 -0.267138
C35   C     C_R   0.252555 0.455988 0.552905 0.436541
C36   C     C_R   0.749399 0.559406 0.464126 0.435770
C37   C     C_R   0.166357 0.455400 0.553074 0.164800
C38   C     C_R   0.835495 0.558897 0.463674 0.167781
C39   C     C_R   0.126777 0.500373 0.498740 -0.117684
C40   C     C_R   0.873345 0.497580 0.500541 -0.124983
C41   C     C_1   0.037168 0.498531 0.497772 0.170122
C42   C     C_1   0.962755 0.496699 0.499143 0.171326
N5    N     N_R   0.438846 0.731569 0.378115 0.144113
O9    O     O_R   0.361570 0.736559 0.365753 -0.301102
O10   O     O_R   0.478885 0.684304 0.338894 -0.333805
N6    N     N_R   0.634472 0.260217 0.497412 0.142916
O11   O     O_R   0.675235 0.294643 0.441477 -0.278641
O12   O     O_R   0.672118 0.245010 0.559819 -0.312352
N7    N     N_R   0.290960 0.415053 0.612800 0.163598
O13   O     O_R   0.286202 0.440296 0.680747 -0.268865
O14   O     O_R   0.309695 0.343548 0.603951 -0.288279
N8    N     N_R   0.714240 0.626616 0.431861 0.165272
O15   O     O_R   0.676147 0.622254 0.368068 -0.251369
O16   O     O_R   0.733183 0.695267 0.458976 -0.291131
N9    N     N_R   0.119712 0.409612 0.609306 0.162585
O17   O     O_R   0.132193 0.336239 0.621893 -0.230727
O18   O     O_R   0.066266 0.441755 0.649718 -0.281004
N10   N     N_R   0.883909 0.621258 0.425490 0.163244
O19   O     O_R   0.942063 0.660388 0.460828 -0.283081
O20   O     O_R   0.867904 0.641134 0.356142 -0.216549
I1    I     I_    0.445841 0.911468 0.329005 -0.031297
I2    I     I_    0.665561 0.091024 0.446336 -0.013708
I3    I     I_    0.292569 0.069907 0.445215 -0.055248
I4    I     I_    0.617465 0.927800 0.637859 -0.056355
I5    I     I_    0.301926 0.277311 0.431845 -0.118030
I6    I     I_    0.625879 0.719476 0.637661 -0.110851
I7    I     I_    0.322089 0.504480 0.082569 -0.102636
I8    I     I_    0.608356 0.361010 0.911086 -0.123873
I9    I     I_    0.307799 0.465362 0.277226 -0.171184
I10   I     I_    0.595091 0.350587 0.711312 -0.148404
N11   N     N_R   0.647043 0.466180 0.271516 0.160043
O21   O     O_R   0.713226 0.512483 0.266706 -0.245009
O22   O     O_R   0.648917 0.398374 0.306285 -0.293034
N12   N     N_R   0.406165 0.605821 0.724654 0.157923
O23   O     O_R   0.328575 0.603805 0.738836 -0.242351
O24   O     O_R   0.436959 0.653505 0.672088 -0.358950
I11   I     I_    0.689973 0.484983 0.094290 -0.049578
I12   I     I_    0.405180 0.646888 0.900870 -0.057343
I13   I     I_    0.123613 0.617389 0.362339 -0.027617
I14   I     I_    0.872631 0.343330 0.596431 -0.008313

loop_
_geom_bond_atom_site_label_1
_geom_bond_atom_site_label_2
_geom_bond_distance
_ccdc_geom_bond_type
C18   C20   1.405859 A    
N11   O21   1.300741 A    
C19   I9    2.146145 S    
C29   C30   1.200256 T    
C41   C42   1.224544 T    
C27   C29   1.433954 S    
O5    C3    1.295135 A    
N10   O20   1.301984 A    
C10   I1    2.150709 S    
O1    C1    1.285157 A    
C23   C25   1.404807 A    
C14   C16   1.402745 A    
C17   I7    2.151515 S    
C5    C15   1.427095 A    
C35   N7    1.430930 S    
C33   H1    1.080921 S    
O4    Cu1   1.945914 S    
N6    O12   1.300791 A    
C21   C23   1.425867 A    
C38   N10   1.437092 S    
N12   O24   1.299539 A    
C14   I4    2.140636 S    
C4    C6    1.459729 S    
C36   C38   1.419508 A    
N8    O15   1.298758 A    
N7    O14   1.299427 A    
N4    C36   1.381855 A    
C19   C21   1.427633 A    
C8    C10   1.402925 A    
C36   N8    1.431305 S    
C28   C30   1.432964 S    
C11   N1    1.418816 S    
N5    O9    1.301014 A    
C16   I6    2.146019 S    
C12   N2    1.418657 S    
Cu1   Cu2   2.650536 S    
C15   I5    2.149901 S    
C26   I12   2.138611 S    
O2    C2    1.296327 A    
C23   N11   1.435415 S    
C32   C34   1.412481 A    
C34   H2    1.077182 S    
C37   C39   1.407833 A    
C6    C16   1.407698 A    
C38   C40   1.406081 A    
N5    O10   1.301094 A    
N10   O19   1.301393 A    
C25   I11   2.142690 S    
O4    C2    1.294300 A    
N9    O18   1.301114 A    
N3    C35   1.379149 A    
C35   C37   1.419763 A    
C20   C22   1.412701 A    
C9    I2    2.153112 S    
O7    Cu2   1.953769 S    
N6    O11   1.301053 A    
C32   I14   2.118337 S    
C7    N6    1.430791 S    
O7    C3    1.292853 A    
C32   C40   1.409344 A    
C31   I13   2.118410 S    
C33   N3    1.364497 A    
O6    C4    1.283072 A    
C20   I10   2.142876 S    
C1    C22   1.467854 S    
C17   C27   1.401257 A    
C18   C28   1.405271 A    
C31   C33   1.411985 A    
O3    Cu2   1.945916 S    
O8    C4    1.285383 A    
Cu1   N3    1.990679 S    
N8    O16   1.301335 A    
C10   C12   1.423188 A    
C3    C5    1.496218 S    
C39   C41   1.474780 S    
C12   C14   1.405807 A    
O1    Cu1   1.945770 S    
C37   N9    1.437638 S    
C24   N12   1.436339 S    
C5    C7    1.423918 A    
O6    Cu2   1.958914 S    
C9    C11   1.411385 A    
C17   C19   1.409203 A    
O3    C1    1.287396 A    
O8    Cu1   1.953766 S    
C31   C39   1.410345 A    
C34   N4    1.365251 A    
C2    C21   1.499870 S    
C11   C13   1.400230 A    
N9    O17   1.300962 A    
C25   C27   1.399118 A    
C26   C28   1.403764 A    
N12   O23   1.300926 A    
Cu2   N4    1.990678 S    
C24   C26   1.403022 A    
C7    C9    1.397568 A    
C40   C42   1.474835 S    
C22   C24   1.414229 A    
C13   C15   1.410114 A    
C18   I8    2.142798 S    
O2    Cu2   1.945770 S    
C8    N5    1.436229 S    
O5    Cu1   1.958914 S    
C6    C8    1.408125 A    
N7    O13   1.301001 A    
N1    N2    1.242406 D    
N11   O22   1.300919 A    
C13   I3    2.142588 S    
