data_mof_unit_52720.cif
_audit_creation_date              2012-12-11T17:05:31-0500
_audit_creation_method            fapswitch 2.2
_symmetry_space_group_name_H-M    P1
_symmetry_Int_Tables_number       1
_space_group_crystal_system       triclinic
_cell_length_a                    6.950483
_cell_length_b                    14.543513
_cell_length_c                    16.008788
_cell_angle_alpha                 90.179752
_cell_angle_beta                  89.961367
_cell_angle_gamma                 90.028323
_cell_volume                      1618.23084034

loop_
_atom_site_label
_atom_site_type_symbol
_atom_type_description
_atom_site_fract_x
_atom_site_fract_y
_atom_site_fract_z
_atom_type_partial_charge
O1    O     O_R   0.494380 0.415640 0.412830 -0.550774
O2    O     O_R   0.823960 0.405540 0.586560 -0.532495
O3    O     O_R   0.994270 0.584360 0.587170 -0.495486
C1    C     C_R   0.655092 0.383573 0.615311 0.734532
O4    O     O_R   0.824090 0.404620 0.413450 -0.550356
O5    O     O_R   0.994400 0.583430 0.412820 -0.544629
C2    C     C_R   0.655323 0.382684 0.384278 0.675040
O6    O     O_R   0.494250 0.416570 0.587180 -0.551766
O7    O     O_3   0.660800 0.558670 0.500000 -0.341057
V1    V     V_3+5 0.935650 0.489120 0.500000 1.463896
O8    O     O_R   0.324110 0.594460 0.413440 -0.542485
C3    C     C_R   0.155084 0.616765 0.384902 0.704175
O9    O     O_R   0.323980 0.595380 0.586550 -0.507038
C4    C     C_R   0.155243 0.616436 0.616453 0.724960
V2    V     V_3+5 0.435660 0.510880 0.500000 1.485525
O10   O     O_3   0.160640 0.441330 0.500000 -0.394576
C5    C     C_3   0.005968 0.652309 0.757889 0.401006
H1    H     H_    0.066228 0.589157 0.786841 0.044539
C6    C     C_3   0.980970 0.727186 0.826550 -0.373298
H2    H     H_    0.999252 0.696407 0.889506 0.140771
H3    H     H_    0.832015 0.754689 0.824047 0.204654
H4    H     H_    0.910501 0.771832 0.639739 0.222160
H5    H     H_    0.929608 0.888694 0.733495 0.148736
C7    C     C_3   0.064663 0.781793 0.656516 0.097549
C8    C     C_3   0.345647 0.699121 0.730098 0.416096
C9    C     C_3   0.144827 0.686577 0.687273 -0.169317
H6    H     H_    0.395381 0.630756 0.752554 0.088158
C10   C     C_3   0.124170 0.807808 0.812882 -0.076476
C11   C     C_3   0.071992 0.854046 0.728520 -0.399872
C12   C     C_3   0.332680 0.767814 0.804619 -0.035748
H7    H     H_    0.432676 0.826008 0.791594 0.179931
H8    H     H_    0.179235 0.908777 0.714568 0.158078
C13   C     C_R   0.259377 0.743521 0.182481 -0.000706
C14   C     C_R   0.117046 0.811723 0.180512 -0.268771
C15   C     C_R   0.975222 0.809286 0.243800 0.615102
C16   C     C_R   0.986383 0.744784 0.309354 -0.248578
H9    H     H_    0.878919 0.746773 0.358336 0.152058
C17   C     C_R   0.141987 0.682890 0.314932 -0.158459
C18   C     C_R   0.272550 0.681430 0.248283 0.019425
C19   C     C_3   0.487093 0.683786 0.247803 -0.428933
C20   C     C_3   0.472524 0.751246 0.175552 0.538331
H10   H     H_    0.550373 0.616334 0.229945 0.201208
H11   H     H_    0.546991 0.715105 0.305607 0.147338
H12   H     H_    0.526582 0.821470 0.189142 0.122034
C21   C     C_R   0.494523 0.317404 0.742587 0.068036
C22   C     C_R   0.647206 0.317462 0.685346 -0.127677
C23   C     C_R   0.797765 0.254443 0.698853 -0.121833
H13   H     H_    0.918971 0.252191 0.656609 0.124787
C24   C     C_R   0.787089 0.189254 0.763510 -0.170873
H14   H     H_    0.901130 0.139142 0.769481 0.118314
C25   C     C_R   0.624668 0.184631 0.816056 -0.099954
C26   C     C_R   0.482768 0.251896 0.805867 0.058336
C27   C     C_3   0.270936 0.240489 0.795674 -0.383155
C28   C     C_3   0.282679 0.312201 0.726796 0.031093
H15   H     H_    0.190099 0.262933 0.852128 0.188309
H16   H     H_    0.233267 0.170854 0.772058 0.133969
H17   H     H_    0.246413 0.285843 0.663456 0.123637
C29   C     C_R   0.498843 0.319247 0.254045 0.148453
C30   C     C_R   0.647645 0.316906 0.313177 -0.152006
C31   C     C_R   0.796130 0.252477 0.299665 -0.187352
H18   H     H_    0.916159 0.248889 0.342452 0.129540
C32   C     C_R   0.785210 0.187902 0.233857 -0.146357
H19   H     H_    0.897613 0.136860 0.227938 0.140480
C33   C     C_R   0.624711 0.185229 0.179934 -0.117386
C34   C     C_R   0.486884 0.254604 0.189789 0.065899
C35   C     C_3   0.273285 0.248595 0.196133 -0.383392
C36   C     C_3   0.285797 0.320131 0.265764 0.005906
H20   H     H_    0.225636 0.180046 0.218509 0.139736
H21   H     H_    0.200716 0.273135 0.138470 0.192520
H22   H     H_    0.238870 0.295970 0.328417 0.113435
O11   O     O_R   0.771490 0.080820 0.910070 -0.548449
O12   O     O_R   0.441590 0.092730 0.083780 -0.547260
O13   O     O_R   0.271350 0.913900 0.084390 -0.542607
C37   C     C_R   0.610639 0.114779 0.112871 0.720581
O14   O     O_R   0.441780 0.091820 0.910670 -0.547855
O15   O     O_R   0.271540 0.912980 0.910040 -0.529576
C38   C     C_R   0.610892 0.113782 0.881928 0.678632
O16   O     O_R   0.771300 0.081740 0.084420 -0.538874
O17   O     O_3   0.604960 0.938700 0.997240 -0.344210
V3    V     V_3+5 0.330090 0.008230 0.997220 1.452088
O18   O     O_R   0.941820 0.901930 0.910640 -0.552132
C39   C     C_R   0.111297 0.878406 0.882933 0.751357
O19   O     O_R   0.941630 0.902840 0.083750 -0.501462
C40   C     C_R   0.110180 0.881195 0.112903 0.790103
V4    V     V_3+5 0.830090 0.986410 0.997190 1.503320
O20   O     O_3   0.105080 0.055990 0.997200 -0.388018
F1    F     F_    0.826303 0.629545 0.726370 -0.638099
N1    N     N_3   0.160512 0.817658 0.581580 -0.659254
H23   H     H_    0.148317 0.770499 0.532479 0.220036
H24   H     H_    0.306047 0.829909 0.592787 0.302632
F2    F     F_    0.835299 0.874186 0.246456 -0.718682
F3    F     F_    0.539034 0.714377 0.101139 -0.649438
N2    N     N_3   0.181851 0.397413 0.748419 -0.628536
H25   H     H_    0.210327 0.445258 0.701503 0.225620
H26   H     H_    0.236739 0.424763 0.804092 0.229903
N3    N     N_3   0.203016 0.408192 0.241168 -0.627022
H27   H     H_    0.239425 0.456513 0.286903 0.232281
H28   H     H_    0.053340 0.401535 0.243125 0.241866
F4    F     F_    0.484118 0.729219 0.674180 -0.657785
N4    N     N_3   0.394697 0.724847 0.883130 -0.618081
H29   H     H_    0.323001 0.662421 0.891869 0.221453
H30   H     H_    0.540915 0.709160 0.878599 0.260518

loop_
_geom_bond_atom_site_label_1
_geom_bond_atom_site_label_2
_ccdc_geom_bond_type
C35   H20   S    
N2    H25   S    
C15   C16   A    
O17   V4    S    
C1    O6    A    
O18   C39   A    
C23   C24   A    
C1    C22   S    
V4    O20   S    
C13   C18   A    
C5    C9    S    
H5    C11   S    
C16   H9    S    
C6    H3    S    
C7    C9    S    
C11   H8    S    
O5    C3    A    
C12   H7    S    
C35   H21   S    
V2    O10   S    
C12   N4    S    
C31   C32   A    
C14   C15   A    
C7    C11   S    
C28   N2    S    
V3    O20   S    
O11   V4    S    
O8    V2    S    
C8    F4    S    
C19   H11   S    
C23   H13   S    
C24   C25   A    
N3    H28   S    
C32   C33   A    
O1    V2    S    
O14   V3    S    
O13   C40   A    
C19   H10   S    
C35   C36   S    
C30   C31   A    
N2    H26   S    
O1    C2    A    
O9    C4    A    
C3    C17   S    
C14   C40   S    
C2    C30   S    
C13   C14   A    
C27   H15   S    
C10   C39   S    
C25   C26   A    
O12   C37   A    
O15   C39   A    
C18   C19   S    
O4    C2    A    
C21   C26   A    
C29   C30   A    
C21   C22   A    
C31   H18   S    
O2    C1    A    
C25   C38   S    
C32   H19   S    
O14   C38   A    
C29   C34   A    
O19   C40   A    
N3    H27   S    
N4    H30   S    
C5    H1    S    
C4    C9    S    
C6    C10   S    
C7    N1    S    
O3    C4    A    
O16   V4    S    
C19   C20   S    
O19   V4    S    
N1    H24   S    
C21   C28   S    
C34   C35   S    
O6    V2    S    
O9    V2    S    
C36   N3    S    
C20   H12   S    
H4    C7    S    
O2    V1    S    
O11   C38   A    
C26   C27   S    
O7    V1    S    
C27   H16   S    
C8    C12   S    
C22   C23   A    
C10   C11   S    
C5    F1    S    
O15   V3    S    
O5    V1    S    
O8    C3    A    
C27   C28   S    
C8    H6    S    
C36   H22   S    
C13   C20   S    
C33   C34   A    
C6    H2    S    
C16   C17   A    
C8    C9    S    
O4    V1    S    
O12   V3    S    
O3    V1    S    
V1    O10   S    
C17   C18   A    
C10   C12   S    
N4    H29   S    
C5    C6    S    
O13   V3    S    
O7    V2    S    
O17   V3    S    
C29   C36   S    
C20   F3    S    
N1    H23   S    
C24   H14   S    
C37   O16   A    
C33   C37   S    
O18   V4    S    
C28   H17   S    
C15   F2    S    
