data_mof_unit_23042.cif
_audit_creation_date              2012-12-10T17:46:20-0500
_audit_creation_method            fapswitch 2.2
_symmetry_space_group_name_H-M    P1
_symmetry_Int_Tables_number       1
_space_group_crystal_system       triclinic
_cell_length_a                    14.137466
_cell_length_b                    10.679828
_cell_length_c                    9.94892
_cell_angle_alpha                 88.009894
_cell_angle_beta                  90.96105
_cell_angle_gamma                 93.18246
_cell_volume                      1498.7575884

loop_
_atom_site_label
_atom_site_type_symbol
_atom_type_description
_atom_site_fract_x
_atom_site_fract_y
_atom_site_fract_z
_atom_type_partial_charge
C1    C     C_R   0.502585 0.260531 0.502297 0.859963
C2    C     C_R   0.450837 0.061896 0.417946 -0.218677
C3    C     C_R   0.455087 0.934921 0.412880 -0.197424
C4    C     C_R   0.329342 0.499778 0.499066 0.920612
C5    C     C_R   0.521241 0.873581 0.492223 -0.088655
C6    C     C_R   0.352154 0.373650 0.143238 -0.134357
C7    C     C_R   0.267480 0.341544 0.077553 -0.230340
C8    C     C_R   0.263499 0.347169 0.938462 -0.227014
C9    C     C_R   0.347785 0.369006 0.867396 0.009998
C10   C     C_R   0.426364 0.435966 0.929604 0.087094
C11   C     C_R   0.427009 0.437445 0.073749 0.174472
C12   C     C_1   0.771872 0.493013 0.502475 -0.203676
C13   C     C_R   0.569999 0.560614 0.070582 -0.100200
C14   C     C_R   0.569956 0.560682 0.927789 -0.095545
C15   C     C_R   0.507464 0.739895 0.498118 0.877039
C16   C     C_R   0.670392 0.495449 0.500949 0.863873
C17   C     C_1   0.227753 0.498082 0.497453 -0.161301
C18   C     C_1   0.142394 0.496292 0.497820 -0.002561
C19   C     C_1   0.042409 0.494321 0.499390 0.007507
C20   C     C_1   0.957079 0.493089 0.500943 0.006619
C21   C     C_1   0.857143 0.492468 0.502311 -0.008866
C22   C     C_2   0.361257 0.264528 0.779165 0.976802
C23   C     C_R   0.638997 0.136514 0.678697 -0.201119
C24   C     C_3   0.796992 0.890013 0.823270 -0.915042
C25   C     C_3   0.715195 0.775073 0.581338 -0.887404
C26   C     C_R   0.704313 0.075870 0.759095 -0.181541
C27   C     C_R   0.721309 0.950948 0.739006 0.257371
C28   C     C_R   0.670521 0.886378 0.636366 0.166376
C29   C     C_R   0.589981 0.940439 0.573071 0.044892
C30   C     C_R   0.578969 0.069557 0.587612 0.081159
C31   C     C_R   0.510163 0.128367 0.506305 -0.057004
H1    H     H_    0.398581 0.108254 0.355799 0.152632
H2    H     H_    0.312543 0.164700 0.621442 0.327896
H3    H     H_    0.824448 0.951595 0.904492 0.238106
H4    H     H_    0.767089 0.801521 0.871475 0.237646
H5    H     H_    0.857738 0.869347 0.760053 0.248062
H6    H     H_    0.712130 0.697793 0.658202 0.256000
H7    H     H_    0.683849 0.746582 0.483968 0.219626
H8    H     H_    0.790736 0.799638 0.558855 0.236460
H9    H     H_    0.200851 0.305110 0.889842 0.176442
H10   H     H_    0.626954 0.610776 0.873911 0.136883
H11   H     H_    0.637095 0.235970 0.691388 0.186177
H12   H     H_    0.745654 0.129145 0.832355 0.153937
H13   H     H_    0.403959 0.883611 0.350126 0.162791
H14   H     H_    0.627121 0.610645 0.123296 0.144220
H15   H     H_    0.357871 0.344064 0.246487 0.193497
H16   H     H_    0.207653 0.301245 0.133803 0.165272
N1    N     N_R   0.499190 0.498800 0.142780 -0.111248
N2    N     N_R   0.499160 0.498720 0.857170 -0.116587
O1    O     O_R   0.500000 0.316780 0.614690 -0.603492
O2    O     O_R   0.299330 0.243527 0.670152 -0.836581
O3    O     O_R   0.499990 0.316750 0.385360 -0.626814
O4    O     O_R   0.373720 0.500010 0.614690 -0.591660
O5    O     O_R   0.373710 0.499990 0.385360 -0.625805
O6    O     O_R   0.500010 0.683250 0.614640 -0.590925
O7    O     O_R   0.500000 0.683220 0.385310 -0.611797
O8    O     O_R   0.626290 0.500010 0.614640 -0.619312
O9    O     O_R   0.626280 0.499990 0.385310 -0.593798
O10   O     O_2   0.420040 0.188291 0.810311 -0.625218
Zn1   Zn    Zn3+2 0.500010 0.500020 0.653130 0.956968
Zn2   Zn    Zn3+2 0.499990 0.499980 0.346870 0.937567

loop_
_geom_bond_atom_site_label_1
_geom_bond_atom_site_label_2
_ccdc_geom_bond_type
C8    C9    A    
C13   N1    A    
C6    C7    A    
O5    Zn2   S    
C25   H7    S    
H2    O2    S    
C6    H15   S    
C9    C10   A    
C19   C20   T    
C24   H5    S    
C24   C27   S    
C1    C31   S    
C16   O8    A    
O1    Zn1   S    
C15   O7    A    
O9    Zn2   S    
C17   C18   T    
C11   N1    A    
C7    C8    A    
C16   O9    A    
C13   C14   A    
C25   H8    S    
C25   C28   S    
C13   H14   S    
N2    Zn1   S    
C26   C27   A    
C29   C30   A    
C23   H11   S    
C14   H10   S    
C4    C17   S    
C28   C29   A    
O4    Zn1   S    
C15   O6    A    
C26   H12   S    
C2    C3    A    
C5    C29   A    
O3    Zn2   S    
C22   O2    S    
C30   C31   A    
C4    O4    A    
C1    O3    A    
C3    H13   S    
C5    C15   S    
C24   H4    S    
C10   C11   A    
C14   N2    A    
C23   C30   A    
C3    C5    A    
C6    C11   A    
C20   C21   S    
C2    H1    S    
C9    C22   S    
C1    O1    A    
C23   C26   A    
N1    Zn2   S    
C22   O10   D    
O7    Zn2   S    
C18   C19   S    
O8    Zn1   S    
C8    H9    S    
C4    O5    A    
O6    Zn1   S    
C10   N2    A    
C12   C21   T    
C24   H3    S    
C12   C16   S    
C25   H6    S    
C2    C31   A    
C27   C28   A    
C7    H16   S    
