data_mof_unit_29569.cif
_audit_creation_date              2013-03-05T15:52:19-0500
_audit_creation_method            fapswitch 2.2
_symmetry_space_group_name_H-M    P1
_symmetry_Int_Tables_number       1
_space_group_crystal_system       triclinic
_cell_length_a                    10.672599
_cell_length_b                    10.744672
_cell_length_c                    16.967276
_cell_angle_alpha                 80.458912
_cell_angle_beta                  99.740362
_cell_angle_gamma                 118.848913
_cell_volume                      1671.66619698

loop_
_atom_site_label
_atom_site_type_symbol
_atom_site_description
_atom_site_fract_x
_atom_site_fract_y
_atom_site_fract_z
_atom_type_partial_charge
O1    O     O_R   0.754020 0.497590 0.609930 -0.391769
O2    O     O_R   0.481420 0.271390 0.600630 -0.519776
C1    C     C_R   0.361108 0.228662 0.627371 0.535767
O3    O     O_R   0.263810 0.254550 0.589590 -0.499313
O4    O     O_R   0.300820 0.531200 0.560890 -0.438712
C2    C     C_R   0.415699 0.618966 0.601308 0.557441
O5    O     O_R   0.491480 0.744020 0.564270 -0.532070
O6    O     O_R   0.726290 0.693800 0.583010 -0.509182
C3    C     C_R   0.719369 0.586696 0.633011 0.537714
O7    O     O_R   0.747830 0.500190 0.434090 -0.493076
O8    O     O_R   0.475680 0.273800 0.437630 -0.489204
C4    C     C_R   0.349077 0.221483 0.401108 0.565091
O9    O     O_R   0.257620 0.257160 0.413750 -0.472567
O10   O     O_R   0.295080 0.533620 0.397890 -0.509661
C5    C     C_R   0.361355 0.657888 0.362171 0.548680
O11   O     O_R   0.485280 0.746620 0.388440 -0.515613
O12   O     O_R   0.720550 0.696220 0.420010 -0.480523
C6    C     C_R   0.773335 0.623770 0.400620 0.586450
Cr1   Cr    Cr6+3 0.608440 0.389080 0.519680 1.080849
Cr2   Cr    Cr6+3 0.288640 0.400090 0.490760 1.090910
Cr3   Cr    Cr6+3 0.602940 0.710800 0.489510 1.040521
O13   O     O_3   0.500010 0.499990 0.499980 -0.328846
C7    C     C_R   0.360544 0.659657 0.836024 0.060471
C8    C     C_R   0.268156 0.534558 0.799519 -0.031018
C9    C     C_R   0.291249 0.511897 0.727185 -0.082850
C10   C     C_R   0.516585 0.724794 0.729398 -0.156453
C11   C     C_R   0.495337 0.749252 0.803419 0.098978
C12   C     C_3   0.109963 0.433138 0.788730 0.367397
C13   C     C_3   0.136817 0.404096 0.708635 0.110718
C14   C     C_R   0.406416 0.616055 0.686015 -0.009138
H1    H     H_    0.614388 0.800234 0.702608 0.140387
H2    H     H_    0.123348 0.294795 0.708568 0.130260
C15   C     C_1   0.768897 0.628856 0.712570 0.034096
C16   C     C_1   0.814544 0.667994 0.778658 0.022070
C17   C     C_1   0.345821 0.187866 0.709908 -0.042711
C18   C     C_1   0.321194 0.160705 0.778402 -0.048389
C19   C     C_1   0.316417 0.685662 0.280807 -0.063367
C20   C     C_1   0.295452 0.710032 0.209888 -0.076546
C21   C     C_R   0.854549 0.676386 0.163944 0.065558
C22   C     C_R   0.916135 0.609339 0.222983 -0.012440
C23   C     C_R   0.908235 0.606485 0.302904 -0.039788
C24   C     C_R   0.791395 0.756378 0.267730 -0.123342
C25   C     C_R   0.798494 0.756713 0.186597 -0.158543
C26   C     C_3   0.896274 0.460371 0.231473 0.114706
C27   C     C_3   0.890934 0.457436 0.320547 -0.205653
C28   C     C_R   0.835783 0.670956 0.325948 0.041614
H3    H     H_    0.737140 0.810489 0.283470 0.190455
H4    H     H_    0.756184 0.814975 0.141759 0.142757
H5    H     H_    0.990722 0.455184 0.216330 0.142130
H6    H     H_    0.786219 0.376681 0.341783 0.212498
H7    H     H_    0.986122 0.455187 0.357924 0.139349
C29   C     C_R   0.257382 0.042004 0.181297 -0.052559
C30   C     C_R   0.148653 0.044589 0.215220 -0.087375
C31   C     C_R   0.177373 0.093252 0.289758 0.042253
C32   C     C_R   0.406575 0.092375 0.310877 0.120742
C33   C     C_R   0.379871 0.050722 0.232362 -0.095693
C34   C     C_3   0.054051 0.112843 0.182464 -0.162898
C35   C     C_3   0.090733 0.172574 0.262680 0.336784
C36   C     C_R   0.309686 0.129526 0.336446 0.023776
H8    H     H_    0.460731 0.037146 0.209331 0.184966
H9    H     H_    0.939662 0.035048 0.170646 0.148594
H10   H     H_    0.094161 0.197105 0.131853 0.188303
O14   O     O_R   0.163320 0.092900 0.874450 -0.429157
O15   O     O_R   0.934650 0.822080 0.882840 -0.504681
C37   C     C_R   0.882997 0.698175 0.857830 0.565558
O16   O     O_R   0.915520 0.604140 0.893670 -0.435999
O17   O     O_R   0.191760 0.638110 0.923230 -0.443869
C38   C     C_R   0.317167 0.707030 0.898265 0.600539
O18   O     O_R   0.406180 0.826930 0.920660 -0.489171
O19   O     O_R   0.358620 0.062870 0.901950 -0.498966
C39   C     C_R   0.284886 0.115320 0.858008 0.574260
O20   O     O_R   0.163910 0.085460 0.050210 -0.474448
O21   O     O_R   0.935200 0.815170 0.045770 -0.536997
C40   C     C_R   0.887850 0.691115 0.083847 0.533658
O22   O     O_R   0.916120 0.596690 0.069430 -0.486873
O23   O     O_R   0.192310 0.631200 0.086170 -0.494168
C41   C     C_R   0.284105 0.739654 0.125164 0.510300
O24   O     O_R   0.406770 0.819480 0.096420 -0.501844
O25   O     O_R   0.359170 0.055960 0.064880 -0.476064
C42   C     C_R   0.244927 0.035583 0.094734 0.547418
Cr4   Cr    Cr6+3 0.052530 0.947560 0.964210 1.095996
Cr5   Cr    Cr6+3 0.059970 0.626800 0.992920 1.129232
Cr6   Cr    Cr6+3 0.373320 0.938440 0.995370 1.078600
O26   O     O_3   0.161940 0.837600 0.984160 -0.330137
N1    N     N_R   0.759120 0.361508 0.190565 0.110410
O27   O     O_R   0.639275 0.359315 0.199601 -0.367959
O28   O     O_R   0.758139 0.282759 0.139695 -0.285651
N2    N     N_2   0.539864 0.116730 0.357116 -0.496492
H11   H     H_    0.617826 0.124039 0.325359 0.299769
C43   C     C_3   0.532788 0.036089 0.435299 -0.217565
H12   H     H_    0.598835 0.980587 0.440304 0.185598
H13   H     H_    0.420524 0.956259 0.446383 0.158880
H14   H     H_    0.580162 0.109869 0.483071 0.174221
N3    N     N_2   0.172453 0.328175 0.254288 -0.517463
H15   H     H_    0.153323 0.380859 0.292248 0.283719
C44   C     C_3   0.313931 0.400554 0.225129 -0.281349
H16   H     H_    0.320888 0.489263 0.179592 0.181140
H17   H     H_    0.335826 0.329906 0.195324 0.178443
H18   H     H_    0.398789 0.443937 0.275529 0.155174
N4    N     N_R   0.964867 0.119653 0.306875 0.074068
O29   O     O_R   0.857962 0.144091 0.275841 -0.357829
O30   O     O_R   0.958441 0.048289 0.377325 -0.333250
N5    N     N_2   0.604236 0.873060 0.839252 -0.489271
H19   H     H_    0.704088 0.877197 0.847656 0.271958
C45   C     C_3   0.609802 0.005997 0.800096 -0.198316
H20   H     H_    0.657204 0.034439 0.742161 0.160098
H21   H     H_    0.677055 0.092570 0.839661 0.211949
H22   H     H_    0.500494 0.997688 0.788578 0.165893
N6    N     N_R   0.016039 0.499487 0.778910 0.128729
O31   O     O_R   0.877507 0.418156 0.774271 -0.306385
O32   O     O_R   0.066933 0.636477 0.759929 -0.338403
N7    N     N_R   0.066189 0.309880 0.849157 0.067709
O33   O     O_R   0.120519 0.326146 0.923729 -0.321713
O34   O     O_R   0.955680 0.189369 0.831566 -0.347874
N8    N     N_R   0.061744 0.446474 0.637258 0.125370
O35   O     O_R   0.964028 0.349162 0.592858 -0.322479
O36   O     O_R   0.095089 0.579906 0.615302 -0.257527

loop_
_geom_bond_atom_site_label_1
_geom_bond_atom_site_label_2
_geom_bond_distance
_ccdc_geom_bond_type
C26   H5    1.109862 S    
C32   C33   1.415045 A    
O11   Cr3   2.045668 S    
C32   C36   1.422796 A    
O21   C40   1.274541 A    
N2    C43   1.451177 S    
C17   C18   1.192376 T    
N7    O34   1.300781 A    
C34   C35   1.511426 S    
C34   H10   1.110412 S    
O4    Cr2   1.934934 S    
C41   O24   1.296612 A    
C12   N7    1.462290 S    
C4    O9    1.266831 A    
C45   H21   1.109409 S    
O8    Cr1   1.921081 S    
C10   C11   1.400422 A    
O14   Cr4   2.048242 S    
C12   C13   1.544358 S    
C13   H2    1.112363 S    
N6    O32   1.302232 A    
O4    C2    1.294975 A    
C27   H7    1.111502 S    
C5    O11   1.257561 A    
C44   H18   1.109727 S    
C24   C28   1.415370 A    
C21   C40   1.426946 S    
C32   N2    1.427873 S    
C5    C19   1.415076 S    
C4    C36   1.469404 S    
O24   Cr6   2.051242 S    
C34   H9    1.103321 S    
C38   O18   1.251265 A    
N8    O36   1.302432 A    
C44   H17   1.106790 S    
C7    C8    1.397503 A    
O19   C39   1.258133 A    
C7    C11   1.434801 A    
C25   H4    1.083165 S    
O20   Cr4   2.041525 S    
C18   C39   1.410222 S    
C13   N8    1.468642 S    
C10   H1    1.084020 S    
Cr3   O13   1.974940 S    
C3    C15   1.427244 S    
C6    C28   1.432894 S    
C16   C37   1.423786 S    
O21   Cr4   1.929095 S    
N7    O33   1.301903 A    
C15   C16   1.202223 T    
C31   C36   1.402236 A    
N1    O28   1.300579 A    
C9    C13   1.503420 S    
C45   H22   1.111420 S    
O1    Cr1   2.038865 S    
C40   O22   1.258115 A    
O17   C38   1.284743 A    
O10   Cr2   1.933439 S    
Cr1   O13   1.984667 S    
O1    C3    1.312158 A    
C8    C9    1.373188 A    
O23   Cr5   1.924761 S    
C21   C22   1.396206 A    
C30   C34   1.501880 S    
O6    C3    1.290379 A    
C21   C25   1.391616 A    
N1    O27   1.302362 A    
O12   Cr3   1.934550 S    
C1    O3    1.249402 A    
C33   H8    1.083144 S    
C7    C38   1.469583 S    
C19   C20   1.194808 T    
O18   Cr6   2.055432 S    
O16   Cr5   2.041347 S    
C43   H13   1.112511 S    
Cr6   O26   1.965678 S    
C1    C17   1.408821 S    
O7    Cr1   2.046884 S    
C23   C28   1.392705 A    
C44   H16   1.103603 S    
N4    O30   1.301776 A    
O12   C6    1.265864 A    
C35   N4    1.467143 S    
N5    C45   1.449842 S    
O23   C41   1.300014 A    
N3    C44   1.456548 S    
O19   Cr6   1.933985 S    
C22   C23   1.367228 A    
C2    C14   1.451466 S    
O14   C39   1.271906 A    
C10   C14   1.398556 A    
Cr5   O26   1.975103 S    
C24   C25   1.390738 A    
C26   N1    1.467296 S    
Cr4   O26   1.984688 S    
C29   C30   1.393210 A    
C43   H14   1.108433 S    
C31   C35   1.509792 S    
C9    C14   1.398258 A    
O9    Cr2   2.050279 S    
O2    Cr1   1.929586 S    
C26   C27   1.516578 S    
C8    C12   1.502528 S    
Cr2   O13   1.965998 S    
O6    Cr3   1.926797 S    
O8    C4    1.274713 A    
O22   Cr5   2.050059 S    
C30   C31   1.378492 A    
C2    O5    1.303016 A    
C20   C41   1.417424 S    
C12   N6    1.461001 S    
C45   H20   1.111359 S    
O15   C37   1.286966 A    
O2    C1    1.274599 A    
C35   N3    1.460167 S    
O20   C42   1.302873 A    
O5    Cr3   2.054730 S    
N6    O31   1.300932 A    
O25   Cr6   1.935512 S    
C43   H12   1.108306 S    
C27   H6    1.108398 S    
O7    C6    1.270145 A    
C11   N5    1.423768 S    
N4    O29   1.299231 A    
C24   H3    1.083212 S    
N3    H15   1.026577 S    
O15   Cr4   1.923326 S    
O25   C42   1.306037 A    
O3    Cr2   2.051512 S    
C22   C26   1.494703 S    
N2    H11   1.031232 S    
O17   Cr5   1.934294 S    
C37   O16   1.254772 A    
N5    H19   1.030991 S    
C23   C27   1.504281 S    
O10   C5    1.271152 A    
N8    O35   1.300548 A    
C29   C42   1.462300 S    
C29   C33   1.412058 A    
