data_mof_unit_7085.cif
_audit_creation_date              2012-12-11T15:46:53-0500
_audit_creation_method            fapswitch 2.2
_symmetry_space_group_name_H-M    P1
_symmetry_Int_Tables_number       1
_space_group_crystal_system       triclinic
_cell_length_a                    11.520868
_cell_length_b                    11.513988
_cell_length_c                    19.52719
_cell_angle_alpha                 90.680679
_cell_angle_beta                  90.431828
_cell_angle_gamma                 60.473448
_cell_volume                      2253.73117397

loop_
_atom_site_label
_atom_site_type_symbol
_atom_type_description
_atom_site_fract_x
_atom_site_fract_y
_atom_site_fract_z
_atom_type_partial_charge
C1    C     C_R   0.640750 0.117204 0.599145 0.534395
C2    C     C_1   0.653731 0.149397 0.668547 0.007775
C3    C     C_R   0.670395 0.673677 0.191050 -0.046914
C4    C     C_R   0.612657 0.745721 0.598572 0.541755
C5    C     C_R   0.545841 0.740718 0.220858 0.047373
C6    C     C_R   0.531396 0.762825 0.289120 -0.083888
C7    C     C_R   0.770519 0.636275 0.304913 0.238138
C8    C     C_R   0.784327 0.636691 0.233832 0.214146
C9    C     C_3   0.412470 0.750367 0.211855 0.450003
C10   C     C_3   0.393153 0.780987 0.288573 -0.189351
C11   C     C_R   0.640919 0.697711 0.332979 -0.023428
C12   C     C_1   0.641666 0.703764 0.667969 0.006902
C13   C     C_R   0.053424 0.250295 0.205784 0.037683
C14   C     C_R   0.110329 0.318641 0.237619 0.054669
C15   C     C_R   0.161092 0.287021 0.302495 0.153862
C16   C     C_R   0.241008 0.145114 0.598162 0.540400
C17   C     C_R   0.086730 0.126213 0.312316 -0.159475
C18   C     C_R   0.030252 0.162149 0.246012 -0.084984
C19   C     C_3   0.215690 0.348874 0.213458 -0.191095
C20   C     C_3   0.272622 0.313665 0.285377 0.444230
C21   C     C_R   0.161781 0.182606 0.338866 -0.033442
C22   C     C_R   0.669859 0.193293 0.194564 -0.026991
C23   C     C_1   0.126605 0.198785 0.859338 0.008889
C24   C     C_R   0.710839 0.065845 0.218678 -0.020494
C25   C     C_R   0.711260 0.044072 0.287530 0.059805
C26   C     C_R   0.613921 0.280109 0.312014 0.236104
C27   C     C_R   0.615298 0.301242 0.241441 -0.090061
C28   C     C_R   0.646940 0.114028 0.403960 0.539624
C29   C     C_3   0.835354 0.935852 0.206901 -0.233530
C30   C     C_3   0.837976 0.913837 0.283485 0.101534
C31   C     C_R   0.668149 0.147424 0.335686 0.087540
C32   C     C_R   0.081784 0.231215 0.928627 0.567803
C33   C     C_R   0.683848 0.604697 0.929596 0.555853
C34   C     C_1   0.171577 0.170038 0.727686 -0.028403
C35   C     C_R   0.708274 0.206578 0.930257 0.543923
C36   C     C_R   0.021607 0.270983 0.132745 0.584471
C37   C     C_R   0.684533 0.612333 0.125107 0.572941
C38   C     C_R   0.708720 0.212436 0.127202 0.524398
C39   C     C_R   0.616487 0.737793 0.403107 0.540932
C40   C     C_R   0.240548 0.142463 0.402077 0.552924
C41   C     C_1   0.670134 0.646793 0.860240 0.010219
C42   C     C_1   0.655060 0.683706 0.728466 -0.029187
C43   C     C_1   0.663377 0.666912 0.799772 -0.028791
C44   C     C_1   0.150102 0.182170 0.798962 -0.028506
C45   C     C_1   0.195409 0.160622 0.667340 0.007021
C46   C     C_1   0.678254 0.191123 0.860859 0.007268
C47   C     C_1   0.659041 0.166999 0.729000 -0.029116
C48   C     C_1   0.665589 0.180720 0.800336 -0.028865
Cr1   Cr    Cr6+3 0.404720 0.198220 0.499960 1.094632
Cr2   Cr    Cr6+3 0.698290 0.897110 0.500380 1.065326
Cr3   Cr    Cr6+3 0.396970 0.904720 0.499610 1.045614
Cr4   Cr    Cr6+3 0.926290 0.152010 0.028150 1.081758
Cr5   Cr    Cr6+3 0.921440 0.451830 0.027490 1.031082
Cr6   Cr    Cr6+3 0.626370 0.446880 0.028730 1.082362
H1    H     H_    0.281270 0.277873 0.173351 0.151484
H2    H     H_    0.174663 0.455975 0.200921 0.163065
H3    H     H_    0.863007 0.558765 0.390306 0.323248
H4    H     H_    0.398793 0.125691 0.263851 0.319764
H5    H     H_    0.323308 0.448998 0.299115 0.348379
H6    H     H_    0.591737 0.359255 0.402967 0.328956
H7    H     H_    0.023588 0.831375 0.308402 0.345042
H8    H     H_    0.904340 0.644146 0.167937 0.321032
H9    H     H_    0.327940 0.641650 0.203531 0.310377
H10   H     H_    0.154503 0.831713 0.131603 0.334396
H11   H     H_    0.586061 0.400649 0.224316 0.200696
H12   H     H_    0.920962 0.945596 0.188932 0.204640
H13   H     H_    0.814068 0.867258 0.175961 0.099852
H14   H     H_    0.826111 0.828561 0.299241 0.186619
H15   H     H_    0.317094 0.885230 0.301013 0.150957
H16   H     H_    0.385691 0.703798 0.318959 0.167286
H17   H     H_    0.077454 0.051246 0.340827 0.177169
H18   H     H_    0.976566 0.115182 0.224802 0.181163
O1    O     O_R   0.267750 0.231960 0.575440 -0.505371
O2    O     O_R   0.596230 0.579400 0.952760 -0.485506
O3    O     O_R   0.639160 0.321170 0.958690 -0.493523
O4    O     O_R   0.527290 0.186640 0.570530 -0.502316
O5    O     O_R   0.821370 0.124220 0.104400 -0.528284
O6    O     O_R   0.037020 0.167050 0.097880 -0.414320
O7    O     O_R   0.056310 0.349620 0.102920 -0.503750
O8    O     O_R   0.797790 0.564880 0.097980 -0.529590
O9    O     O_R   0.596000 0.584270 0.104310 -0.421779
O10   O     O_R   0.638950 0.325690 0.099180 -0.494684
O11   O     O_3   0.824700 0.350240 0.028120 -0.306061
O12   O     O_R   0.685950 0.784660 0.430010 -0.494306
O13   O     O_R   0.728110 0.003450 0.576380 -0.503892
O14   O     O_R   0.682980 0.789190 0.570500 -0.495491
O15   O     O_R   0.499300 0.771880 0.575540 -0.502824
O16   O     O_R   0.285350 0.030870 0.569740 -0.496258
O17   O     O_R   0.270960 0.227070 0.423890 -0.438500
O18   O     O_R   0.530270 0.182120 0.430040 -0.459288
O19   O     O_R   0.731320 0.998570 0.424830 -0.484042
O20   O     O_3   0.884841 0.578924 0.344571 -0.639020
O21   O     O_3   0.400245 0.200358 0.289050 -0.689538
O22   O     O_3   0.263914 0.422566 0.322566 -0.602558
O23   O     O_R   0.502510 0.767000 0.423980 -0.506061
O24   O     O_3   0.566295 0.389738 0.355256 -0.699976
O25   O     O_3   0.943553 0.919895 0.316210 -0.701832
O26   O     O_3   0.910961 0.591240 0.208767 -0.670043
O27   O     O_3   0.418510 0.628738 0.195493 -0.695522
O28   O     O_2   0.309967 0.006955 0.174929 -0.325131
O29   O     O_2   0.359534 0.843883 0.082889 -0.245908
O30   O     O_3   0.152488 0.906089 0.158591 -0.550208
O31   O     O_R   0.288320 0.026340 0.429250 -0.511699
O32   O     O_3   0.499990 0.000020 0.499980 -0.270044
O33   O     O_R   0.821590 0.119350 0.952850 -0.503974
O34   O     O_R   0.037230 0.162540 0.957390 -0.477049
O35   O     O_R   0.056530 0.344750 0.951370 -0.503469
O36   O     O_R   0.798000 0.560370 0.957490 -0.501588
S1    S     S_3+6 0.308504 0.881421 0.154932 0.022446

loop_
_geom_bond_atom_site_label_1
_geom_bond_atom_site_label_2
_ccdc_geom_bond_type
C19   H2    S    
C25   C31   A    
C20   O21   S    
Cr2   O32   S    
H3    O20   S    
C19   C20   S    
Cr1   O18   S    
Cr1   O32   S    
Cr2   O12   S    
C7    C8    A    
C4    O15   A    
C7    C11   A    
C30   O25   S    
C35   O3    A    
C26   C27   A    
C13   C18   A    
C27   H11   S    
Cr5   O7    S    
H4    O21   S    
C39   O12   A    
C5    C6    A    
C4    O14   A    
O29   S1    D    
C22   C38   S    
C1    C2    S    
C8    O26   S    
C24   C29   S    
C12   C42   T    
Cr2   O13   S    
C29   H13   S    
C18   H18   S    
H9    O27   S    
Cr6   O2    S    
H5    O22   S    
C40   O17   A    
C4    C12   S    
C9    C10   S    
Cr4   O34   S    
O28   S1    D    
C9    O27   S    
C32   O34   A    
C13   C14   A    
C38   O10   A    
C26   O24   S    
C41   C43   T    
C37   O9    A    
C33   O36   A    
Cr4   O6    S    
Cr6   O11   S    
C9    S1    S    
C15   C20   S    
C37   O8    A    
C46   C48   T    
C16   O1    A    
Cr5   O8    S    
C34   C44   S    
C24   C25   A    
C13   C36   S    
C3    C8    A    
Cr3   O15   S    
C6    C11   A    
Cr3   O32   S    
C32   O35   A    
C17   C21   A    
C23   C44   T    
Cr6   O3    S    
C16   C45   S    
Cr4   O11   S    
H10   O30   S    
C5    C9    S    
C29   C30   S    
C35   O33   A    
Cr5   O35   S    
C47   C48   S    
C17   C18   A    
Cr1   O4    S    
C34   C45   T    
C11   C39   S    
C39   O23   A    
C10   H16   S    
Cr4   O33   S    
C17   H17   S    
C22   C27   A    
Cr1   O1    S    
C1    O13   A    
C42   C43   S    
Cr4   O5    S    
H6    O24   S    
Cr6   O10   S    
C19   H1    S    
C25   C30   S    
C20   O22   S    
C1    O4    A    
C26   C31   A    
C14   C19   S    
C28   C31   S    
H7    O25   S    
Cr1   O17   S    
C3    C5    A    
C36   O7    A    
Cr3   O16   S    
C6    C10   S    
C38   O5    A    
C2    C47   T    
Cr5   O11   S    
C33   C41   S    
C23   C32   S    
C36   O6    A    
C40   O31   A    
Cr5   O36   S    
C21   C40   S    
C7    O20   S    
C28   O19   A    
C22   C24   A    
Cr2   O14   S    
C29   H12   S    
C10   H15   S    
C33   O2    A    
C15   C21   A    
H8    O26   S    
C3    C37   S    
C16   O16   A    
C14   C15   A    
O30   S1    S    
C28   O18   A    
C35   C46   S    
Cr3   O31   S    
Cr2   O19   S    
Cr6   O9    S    
C30   H14   S    
Cr3   O23   S    
