data_mof_unit_64151.cif
_audit_creation_date              2012-10-26T17:37:40-0400
_audit_creation_method            fapswitch 2.2
_symmetry_space_group_name_H-M    P1
_symmetry_Int_Tables_number       1
_space_group_crystal_system       triclinic
_cell_length_a                    18.778908
_cell_length_b                    18.779248
_cell_length_c                    18.838272
_cell_angle_alpha                 109.463442
_cell_angle_beta                  109.553217
_cell_angle_gamma                 109.383785
_cell_volume                      5114.90787352

loop_
_atom_site_label
_atom_site_type_symbol
_atom_type_description
_atom_site_fract_x
_atom_site_fract_y
_atom_site_fract_z
_atom_type_partial_charge
C1    C     C_R   0.617664 0.618801 0.498958 0.582970
C2    C     C_R   0.312914 0.793754 0.267625 -0.105516
C3    C     C_R   0.271062 0.825685 0.307231 -0.122388
C4    C     C_R   0.379474 0.498471 0.381203 0.582766
C5    C     C_R   0.223442 0.778233 0.334653 -0.103360
C6    C     C_R   0.215879 0.697190 0.321927 0.067040
C7    C     C_R   0.258169 0.664623 0.280700 0.005865
C8    C     C_R   0.763546 0.743512 0.572821 -0.154385
C9    C     C_R   0.829088 0.806663 0.573727 -0.117983
C10   C     C_R   0.813264 0.813549 0.499001 0.038581
C11   C     C_R   0.731885 0.756265 0.422960 -0.097001
C12   C     C_R   0.200672 0.166282 0.197049 -0.097906
C13   C     C_R   0.665314 0.691831 0.420616 0.038284
C14   C     C_R   0.682207 0.685766 0.496902 0.004487
C15   C     C_R   0.678268 0.499968 0.757214 -0.122283
C16   C     C_R   0.381410 0.381011 0.500289 0.538478
C17   C     C_R   0.741629 0.498481 0.820569 -0.123665
C18   C     C_R   0.814056 0.499699 0.813951 0.028075
C19   C     C_R   0.822195 0.500789 0.743038 -0.124405
C20   C     C_R   0.757321 0.499247 0.678159 -0.126523
C21   C     C_R   0.685702 0.499640 0.685598 0.027828
C22   C     C_R   0.250635 0.325936 0.514288 -0.141536
C23   C     C_R   0.179722 0.421791 0.175078 -0.116532
C24   C     C_R   0.185777 0.259974 0.511219 -0.153862
C25   C     C_R   0.185958 0.181828 0.496308 0.002974
C26   C     C_R   0.251393 0.168582 0.482554 0.034876
C27   C     C_R   0.315583 0.235433 0.484902 -0.136462
C28   C     C_R   0.618893 0.499904 0.618843 0.539334
C29   C     C_R   0.315298 0.313577 0.500650 -0.013416
C30   C     C_R   0.000485 0.619016 0.119392 0.548364
C31   C     C_R   0.118835 0.500903 0.119609 0.586929
C32   C     C_R   0.001519 0.381072 0.882706 0.585015
C33   C     C_R   0.881066 0.499886 0.880975 0.541037
C34   C     C_R   0.185621 0.501480 0.187023 0.041195
C35   C     C_R   0.998826 0.879907 0.381205 0.615503
C36   C     C_R   0.880888 0.881185 0.500108 0.617485
C37   C     C_R   0.998399 0.117211 0.618689 0.569035
C38   C     C_R   0.118907 0.117217 0.498467 0.572298
C39   C     C_R   0.026221 0.768461 0.196184 -0.148748
C40   C     C_R   0.213791 0.192924 0.139322 -0.107919
C41   C     C_R   0.023342 0.830477 0.258959 -0.136688
C42   C     C_R   0.996942 0.811050 0.314593 0.015010
C43   C     C_R   0.971497 0.727532 0.306628 0.044358
C44   C     C_R   0.974061 0.665681 0.242456 -0.109344
C45   C     C_R   0.253288 0.579776 0.263816 -0.004475
C46   C     C_R   0.000894 0.685669 0.187268 -0.013593
C47   C     C_R   0.081462 0.318378 0.823841 0.035503
C48   C     C_R   0.077260 0.252937 0.756805 -0.158746
C49   C     C_R   0.996908 0.182423 0.685925 -0.025914
C50   C     C_R   0.918057 0.175962 0.681143 0.036470
C51   C     C_R   0.922338 0.242861 0.746796 -0.154536
C52   C     C_R   0.227439 0.275347 0.152924 -0.082033
C53   C     C_R   0.002716 0.313576 0.817450 -0.025498
C54   C     C_R   0.229008 0.332088 0.225124 0.041935
C55   C     C_R   0.215461 0.304749 0.282724 -0.063771
C56   C     C_R   0.315619 0.577012 0.326991 -0.087711
C57   C     C_R   0.201121 0.221985 0.268443 -0.094111
C58   C     C_2   0.164470 0.649975 0.353160 0.559879
C59   C     C_2   0.579281 0.634928 0.338838 0.573583
C60   C     C_2   0.253798 0.086018 0.462817 0.567022
C61   C     C_2   0.938955 0.701010 0.360863 0.586280
C62   C     C_2   0.168370 0.387396 0.901009 0.586829
C63   C     C_2   0.830697 0.099459 0.611836 0.587144
C64   C     C_R   0.310776 0.497320 0.314551 0.027702
C65   C     C_R   0.241474 0.418594 0.238455 -0.031950
C66   C     C_R   0.306884 0.713937 0.254756 -0.086475
Cu1   Cu    Cu3+1 0.500020 0.438210 0.438220 0.999999
Cu2   Cu    Cu3+1 0.499980 0.561790 0.561780 0.975409
Cu3   Cu    Cu3+1 0.938210 0.438200 0.999980 0.993876
Cu4   Cu    Cu3+1 0.061840 0.561770 0.999960 0.977633
Cu5   Cu    Cu3+1 0.061800 0.999890 0.561700 1.038900
Cu6   Cu    Cu3+1 0.938200 0.999930 0.438120 1.014927
H1    H     H_    0.189744 0.102326 0.186236 0.114926
H2    H     H_    0.136007 0.270414 0.521974 0.133114
H3    H     H_    0.365793 0.226586 0.473686 0.173703
H4    H     H_    0.046895 0.784734 0.153791 0.139314
H5    H     H_    0.042680 0.894257 0.264848 0.151323
H6    H     H_    0.237166 0.295136 0.107544 0.125901
H7    H     H_    0.862512 0.239497 0.743741 0.171344
H8    H     H_    0.215215 0.347152 0.338064 0.104033
H9    H     H_    0.189921 0.200802 0.312438 0.119810
H10   H     H_    0.368422 0.637329 0.385801 0.145851
H11   H     H_    0.339646 0.689926 0.223668 0.129579
H12   H     H_    0.275586 0.887500 0.316861 0.128708
H13   H     H_    0.350046 0.830883 0.246725 0.121512
H14   H     H_    0.107307 0.655461 0.427007 0.370348
H15   H     H_    0.720268 0.762423 0.365496 0.176827
H16   H     H_    0.512563 0.583100 0.208636 0.346463
H17   H     H_    0.622857 0.499926 0.763225 0.132648
H18   H     H_    0.249492 0.385944 0.525804 0.141959
H19   H     H_    0.325954 0.026734 0.462933 0.338457
H20   H     H_    0.914596 0.616841 0.405497 0.345384
H21   H     H_    0.954488 0.601221 0.234831 0.188389
H22   H     H_    0.240735 0.466520 0.031295 0.336918
H23   H     H_    0.191703 0.804907 0.365204 0.174840
H24   H     H_    0.137174 0.256081 0.760329 0.161673
H25   H     H_    0.701877 0.053676 0.540159 0.346021
H26   H     H_    0.126182 0.361750 0.116382 0.139344
H27   H     H_    0.776606 0.738783 0.631162 0.123101
H28   H     H_    0.891640 0.850822 0.633050 0.137548
H29   H     H_    0.735044 0.497959 0.875404 0.131306
H30   H     H_    0.877871 0.501367 0.737294 0.129212
H31   H     H_    0.213058 0.149572 0.083836 0.116789
H32   H     H_    0.763674 0.499338 0.623099 0.127236
O1    O     O_R   0.590200 0.537990 0.447840 -0.487097
O2    O     O_R   0.947800 0.909770 0.357550 -0.516824
O3    O     O_R   0.962000 0.909720 0.552080 -0.500782
O4    O     O_R   0.590170 0.642360 0.552180 -0.503996
O5    O     O_R   0.857620 0.909750 0.447720 -0.492922
O6    O     O_R   0.052200 0.090060 0.642270 -0.525535
O7    O     O_R   0.947820 0.090090 0.537910 -0.485038
O8    O     O_R   0.142380 0.090070 0.552100 -0.484872
O9    O     O_R   0.038000 0.090100 0.447740 -0.523111
O10   O     O_R   0.409840 0.447810 0.357640 -0.475245
O11   O     O_R   0.409810 0.552180 0.461990 -0.513274
O12   O     O_R   0.052220 0.642350 0.090110 -0.513964
O13   O     O_R   0.409830 0.357640 0.447820 -0.516190
O14   O     O_R   0.409800 0.462010 0.552160 -0.510204
O15   O     O_R   0.590190 0.447820 0.538010 -0.511458
O16   O     O_R   0.590160 0.552190 0.642360 -0.513981
O17   O     O_R   0.947830 0.537990 0.090130 -0.510879
O18   O     O_2   0.141718 0.573297 0.329912 -0.512053
O19   O     O_R   0.141493 0.693824 0.409681 -0.693699
O20   O     O_2   0.512407 0.600971 0.340482 -0.525046
O21   O     O_R   0.574496 0.622222 0.259500 -0.694952
O22   O     O_2   0.187340 0.017182 0.430115 -0.536845
O23   O     O_R   0.038000 0.447810 0.090170 -0.495352
O24   O     O_R   0.332506 0.086691 0.479555 -0.702091
O25   O     O_2   0.910043 0.739977 0.397778 -0.526015
O26   O     O_R   0.938854 0.628992 0.367554 -0.699019
O27   O     O_2   0.232145 0.412933 0.892207 -0.513962
O28   O     O_R   0.178256 0.420828 0.984140 -0.698433
O29   O     O_2   0.821534 0.026598 0.578503 -0.511099
O30   O     O_R   0.757838 0.110434 0.587005 -0.698281
O31   O     O_R   0.142390 0.552170 0.090150 -0.497563
O32   O     O_R   0.947830 0.357620 0.909840 -0.512497
O33   O     O_R   0.052230 0.461980 0.909820 -0.479858
O34   O     O_R   0.857660 0.447800 0.909790 -0.508783
O35   O     O_R   0.962050 0.552160 0.909780 -0.517573
O36   O     O_R   0.052180 0.909730 0.461910 -0.457228

loop_
_geom_bond_atom_site_label_1
_geom_bond_atom_site_label_2
_ccdc_geom_bond_type
C22   C29   A    
Cu5   O3    S    
C27   C29   A    
C41   C42   A    
C6    C58   S    
C4    O11   A    
C19   C20   A    
C31   O23   A    
C47   C62   S    
C39   C41   A    
C54   C65   S    
C30   O12   A    
C26   C27   A    
C63   O29   D    
C4    O10   A    
Cu1   O10   S    
C41   H5    S    
C5    C6    A    
C35   O36   A    
C19   H30   S    
C27   H3    S    
Cu5   O6    S    
Cu3   O34   S    
C2    H13   S    
C18   C19   A    
C35   C42   S    
C17   H29   S    
C44   H21   S    
Cu2   O14   S    
C66   H11   S    
Cu6   O5    S    
C45   C56   A    
C11   H15   S    
C8    C9    A    
C56   C64   A    
C9    C10   A    
C61   O25   D    
C47   C53   A    
C52   C54   A    
Cu6   O7    S    
C36   O5    A    
Cu4   O35   S    
C13   C14   A    
C36   O3    A    
C50   C63   S    
H25   O30   S    
C52   H6    S    
C5    H23   S    
C44   C46   A    
C50   C51   A    
C22   H18   S    
C58   O18   D    
H19   O24   S    
Cu1   Cu2   S    
C63   O30   S    
C62   O28   S    
C60   O24   S    
C24   C25   A    
C31   O31   A    
C28   O16   A    
C32   O32   A    
C38   O9    A    
Cu1   O1    S    
C1    O4    A    
Cu4   O12   S    
C16   C29   S    
C40   C52   A    
Cu6   O9    S    
H22   O28   S    
C51   C53   A    
C12   C40   A    
H20   O26   S    
C43   C44   A    
H16   O21   S    
C16   O14   A    
C25   C38   S    
C15   H17   S    
C37   C49   S    
C47   C48   A    
C30   O17   A    
Cu3   O17   S    
C33   O34   A    
C23   C34   A    
Cu5   O8    S    
C3    C5    A    
C17   C18   A    
C58   O19   S    
C31   C34   S    
C34   C45   A    
C39   H4    S    
Cu1   O13   S    
C37   O6    A    
C6    C7    A    
C61   O26   S    
C39   C46   A    
C20   H32   S    
C12   C57   A    
C48   C49   A    
C21   C28   S    
Cu6   O2    S    
Cu3   O32   S    
C55   C57   A    
Cu4   O31   S    
C57   H9    S    
C59   O21   S    
C42   C43   A    
C38   O8    A    
C7    C45   S    
C32   C53   S    
H14   O19   S    
C43   C61   S    
C59   O20   D    
C15   C17   A    
C54   C55   A    
C8    C14   A    
C48   H24   S    
C62   O27   D    
C8    H27   S    
C2    C66   A    
C28   O15   A    
C56   H10   S    
Cu5   O36   S    
C13   C59   S    
C9    H28   S    
C4    C64   S    
C30   C46   S    
C64   C65   A    
C23   C65   A    
C60   O22   D    
C2    C3    A    
C25   C26   A    
C32   O33   A    
C35   O2    A    
C16   O13   A    
Cu2   O16   S    
C40   H31   S    
C55   H8    S    
C11   C13   A    
C24   H2    S    
C15   C21   A    
C26   C60   S    
C33   O35   A    
C22   C24   A    
Cu3   Cu4   S    
C18   C33   S    
C51   H7    S    
C37   O7    A    
C10   C11   A    
Cu2   O11   S    
Cu5   Cu6   S    
C23   H26   S    
C20   C21   A    
Cu3   O23   S    
Cu4   O33   S    
C49   C50   A    
C3    H12   S    
C10   C36   S    
C1    C14   S    
Cu2   O4    S    
C12   H1    S    
Cu1   O15   S    
C1    O1    A    
C7    C66   A    
