data_mof_unit_10193.cif
_audit_creation_date              2012-12-11T15:39:38-0500
_audit_creation_method            fapswitch 2.2
_symmetry_space_group_name_H-M    P1
_symmetry_Int_Tables_number       1
_space_group_crystal_system       triclinic
_cell_length_a                    17.230435
_cell_length_b                    24.194092
_cell_length_c                    14.899086
_cell_angle_alpha                 90.150117
_cell_angle_beta                  125.666723
_cell_angle_gamma                 90.029908
_cell_volume                      5045.96417796

loop_
_atom_site_label
_atom_site_type_symbol
_atom_type_description
_atom_site_fract_x
_atom_site_fract_y
_atom_site_fract_z
_atom_type_partial_charge
Br1   Br    Br    0.292575 0.596844 0.461381 -0.389381
Br2   Br    Br    0.361277 0.389617 0.633314 -0.496937
Br3   Br    Br    0.060004 0.892249 0.361569 -0.422134
Br4   Br    Br    0.861323 0.889585 0.633384 -0.496881
Br5   Br    Br    0.188747 0.613357 0.651928 -0.517186
Br6   Br    Br    0.737790 0.618026 0.355368 -0.582703
Br7   Br    Br    0.688715 0.113371 0.652000 -0.517152
Br8   Br    Br    0.237818 0.118027 0.355379 -0.582684
Br9   Br    Br    0.065118 0.385898 0.729282 -0.470423
Br10  Br    Br    0.831003 0.391985 0.543005 -0.375438
Br11  Br    Br    0.565116 0.885895 0.729292 -0.470400
Br12  Br    Br    0.306311 0.602965 0.247553 -0.465776
Br13  Br    Br    0.330992 0.891950 0.542938 -0.375363
Br14  Br    Br    0.791971 0.096454 0.461130 -0.389304
Br15  Br    Br    0.806482 0.103025 0.247850 -0.465873
Br16  Br    Br    0.339050 0.379785 0.286150 -0.379665
Br17  Br    Br    0.519264 0.391649 0.576271 -0.412288
Br18  Br    Br    0.839085 0.879800 0.286135 -0.379726
Br19  Br    Br    0.019297 0.891605 0.576306 -0.412354
Br20  Br    Br    0.559950 0.392243 0.361537 -0.422129
C1    C     C_R   0.350681 0.347869 0.907586 -0.056777
C2    C     C_R   0.436323 0.498424 0.632194 0.104547
C3    C     C_R   0.189754 0.863586 0.001031 0.027453
C4    C     C_R   0.952275 0.997889 0.278883 0.037705
C5    C     C_R   0.936325 0.998387 0.632211 0.104479
C6    C     C_R   0.170153 0.498340 0.705952 0.038667
C7    C     C_R   0.794541 0.500697 0.375819 0.054199
C8    C     C_R   0.670151 0.998339 0.705979 0.038652
C9    C     C_R   0.294546 0.000693 0.375817 0.054227
C10   C     C_R   0.018709 0.548493 0.620103 0.204147
C11   C     C_R   0.919558 0.550734 0.542660 0.175115
C12   C     C_R   0.518699 0.048486 0.620159 0.204224
C13   C     C_R   0.691052 0.376135 0.092929 -0.095128
C14   C     C_R   0.419549 0.050723 0.542695 0.175256
C15   C     C_R   0.065811 0.497772 0.651402 -0.129592
C16   C     C_R   0.868686 0.501498 0.496619 -0.109802
C17   C     C_R   0.565808 0.997767 0.651438 -0.129582
C18   C     C_R   0.368688 0.001487 0.496622 -0.109914
C19   C     C_R   0.010651 0.450176 0.635948 0.247698
C20   C     C_R   0.910480 0.452361 0.557161 0.257996
C21   C     C_R   0.510649 0.950167 0.635963 0.247682
C22   C     C_R   0.410478 0.952349 0.557160 0.258020
C23   C     C_3   0.911372 0.586743 0.619290 -0.383040
C24   C     C_R   0.850687 0.847868 0.907589 -0.056787
C25   C     C_3   0.017503 0.585252 0.699889 -0.479909
C26   C     C_3   0.411333 0.086707 0.619332 -0.383142
C27   C     C_3   0.517461 0.085219 0.699955 -0.479944
C28   C     C_R   0.294271 0.769618 0.902520 -0.109962
C29   C     C_R   0.844857 0.684779 0.099552 -0.111407
C30   C     C_R   0.794276 0.269616 0.902521 -0.109959
C31   C     C_R   0.344857 0.184771 0.099540 -0.111377
C32   C     C_R   0.746114 0.315431 0.902287 -0.115025
C33   C     C_R   0.391800 0.231070 0.099206 -0.091163
C34   C     C_R   0.246123 0.815438 0.902291 -0.115026
C35   C     C_R   0.191055 0.876141 0.092930 -0.095097
C36   C     C_R   0.891808 0.731073 0.099215 -0.091148
C37   C     C_R   0.764434 0.334321 0.001937 0.103722
C38   C     C_R   0.358178 0.257422 0.998949 0.100373
C39   C     C_R   0.264441 0.834327 0.001942 0.103712
C40   C     C_R   0.858190 0.757422 0.998958 0.100371
C41   C     C_R   0.444060 0.652103 0.092824 -0.060112
C42   C     C_R   0.598237 0.624171 0.907898 -0.088300
C43   C     C_R   0.944068 0.152104 0.092825 -0.060150
C44   C     C_R   0.098240 0.124156 0.907891 -0.088312
C45   C     C_R   0.845502 0.315238 0.102228 -0.122121
C46   C     C_R   0.384660 0.684957 0.002146 0.019686
C47   C     C_R   0.291002 0.230464 0.899128 -0.112076
C48   C     C_R   0.345498 0.815238 0.102233 -0.122089
C49   C     C_R   0.791017 0.730462 0.899139 -0.112059
C50   C     C_R   0.393724 0.769381 0.102579 -0.099153
C51   C     C_R   0.744342 0.683999 0.899612 -0.128090
C52   C     C_R   0.893743 0.269388 0.102577 -0.099168
C53   C     C_R   0.244334 0.183996 0.899600 -0.128108
C54   C     C_R   0.361566 0.743063 0.002570 0.105171
C55   C     C_R   0.763716 0.665196 0.999759 0.109626
C56   C     C_R   0.861586 0.243068 0.002572 0.105174
C57   C     C_R   0.689574 0.635968 0.999964 0.017214
C58   C     C_R   0.263716 0.165187 0.999748 0.109633
C59   C     C_R   0.361783 0.540609 0.443153 0.267898
C60   C     C_R   0.363211 0.542077 0.349499 0.259843
C61   C     C_R   0.861711 0.040530 0.443183 0.267921
C62   C     C_R   0.863266 0.042069 0.349620 0.259876
C63   C     C_R   0.396338 0.495097 0.325291 -0.174248
C64   C     C_R   0.407674 0.495830 0.518078 -0.206860
C65   C     C_R   0.896432 0.995105 0.325400 -0.174341
C66   C     C_R   0.907663 0.995770 0.518105 -0.206809
C67   C     C_R   0.398602 0.445556 0.373525 0.316617
C68   C     C_R   0.884678 0.184961 0.002149 0.019660
C69   C     C_R   0.427372 0.447425 0.481124 0.314885
C70   C     C_R   0.898685 0.945546 0.373582 0.316611
C71   C     C_R   0.927426 0.947389 0.481169 0.314968
C72   C     C_R   0.493395 0.452798 0.262021 0.350450
C73   C     C_R   0.442762 0.453728 0.693550 0.336138
C74   C     C_R   0.993429 0.952804 0.262059 0.350429
C75   C     C_R   0.942784 0.953705 0.693580 0.336182
C76   C     C_R   0.228276 0.545192 0.732453 0.315272
C77   C     C_R   0.747916 0.546169 0.308466 0.287533
C78   C     C_R   0.728272 0.045191 0.732474 0.315398
C79   C     C_R   0.189577 0.135957 0.999956 0.017211
C80   C     C_R   0.247918 0.046168 0.308470 0.287546
C81   C     C_R   0.479112 0.544992 0.248695 -0.091725
C82   C     C_R   0.455880 0.544867 0.697302 -0.153101
C83   C     C_R   0.979138 0.044998 0.248723 -0.091759
C84   C     C_R   0.955846 0.044852 0.697268 -0.153178
C85   C     C_R   0.230127 0.452935 0.739820 -0.065927
C86   C     C_R   0.752511 0.454852 0.307368 -0.154271
C87   C     C_R   0.730128 0.952935 0.739836 -0.065920
C88   C     C_R   0.252523 0.954851 0.307360 -0.154219
C89   C     C_R   0.355307 0.653296 0.910349 -0.081215
C90   C     C_R   0.452226 0.497879 0.278827 0.037643
C91   C     C_R   0.691809 0.622862 0.092174 -0.071214
C92   C     C_R   0.855326 0.153300 0.910354 -0.081170
C93   C     C_R   0.191810 0.122857 0.092169 -0.071208
C94   C     C_R   0.443183 0.347546 0.090546 -0.054810
C95   C     C_R   0.598997 0.376375 0.908184 -0.098231
C96   C     C_R   0.943186 0.847547 0.090550 -0.054776
C97   C     C_R   0.099002 0.876379 0.908187 -0.098234
C98   C     C_R   0.381101 0.315559 0.998764 0.029159
C99   C     C_R   0.689749 0.363579 0.001028 0.027459
C100  C     C_R   0.881109 0.815559 0.998769 0.029150
H1    H     H_    0.884930 0.628924 0.586257 0.249179
H2    H     H_    0.267289 0.247754 0.820186 0.134695
H3    H     H_    0.365891 0.831405 0.180907 0.128166
H4    H     H_    0.767310 0.747750 0.820197 0.134706
H5    H     H_    0.449291 0.751889 0.181453 0.134692
H6    H     H_    0.686559 0.667135 0.820948 0.125934
H7    H     H_    0.949320 0.251901 0.181452 0.134691
H8    H     H_    0.186550 0.167134 0.820934 0.125902
H9    H     H_    0.466433 0.587551 0.257271 0.168319
H10   H     H_    0.447007 0.587418 0.672126 0.173892
H11   H     H_    0.966466 0.087559 0.257303 0.168330
H12   H     H_    0.042030 0.564320 0.778697 0.215696
H13   H     H_    0.946876 0.087396 0.671979 0.173811
H14   H     H_    0.211432 0.409896 0.724155 0.173294
H15   H     H_    0.763239 0.412216 0.332276 0.179701
H16   H     H_    0.711433 0.909895 0.724179 0.173298
H17   H     H_    0.263279 0.912212 0.332256 0.179686
H18   H     H_    0.491958 0.332721 0.173532 0.154218
H19   H     H_    0.572001 0.372045 0.822538 0.156543
H20   H     H_    0.991958 0.832725 0.173538 0.154226
H21   H     H_    0.072009 0.872046 0.822543 0.156546
H22   H     H_    0.312809 0.334101 0.822906 0.123464
H23   H     H_    0.384885 0.128891 0.586324 0.249174
H24   H     H_    0.749336 0.371347 0.178829 0.108648
H25   H     H_    0.812818 0.834098 0.822910 0.123486
H26   H     H_    0.249339 0.871352 0.178830 0.108642
H27   H     H_    0.873426 0.566068 0.650079 0.208133
H28   H     H_    0.051774 0.625957 0.710293 0.242171
H29   H     H_    0.373373 0.066009 0.650083 0.208127
H30   H     H_    0.551728 0.125930 0.710404 0.242164
H31   H     H_    0.688103 0.331677 0.823400 0.163646
H32   H     H_    0.447502 0.248715 0.178096 0.153039
H33   H     H_    0.188123 0.831690 0.823404 0.163662
H34   H     H_    0.541973 0.064266 0.778738 0.215695
H35   H     H_    0.947509 0.748719 0.178105 0.153041
H36   H     H_    0.490897 0.665330 0.177966 0.126450
H37   H     H_    0.570178 0.630253 0.822532 0.106406
H38   H     H_    0.990906 0.165330 0.177968 0.126453
H39   H     H_    0.070182 0.130218 0.822516 0.106385
H40   H     H_    0.325713 0.669395 0.829367 0.160018
H41   H     H_    0.751845 0.626192 0.177471 0.144475
H42   H     H_    0.825757 0.169404 0.829380 0.159997
H43   H     H_    0.251848 0.126187 0.177465 0.144487
H44   H     H_    0.271124 0.752339 0.823596 0.154613
H45   H     H_    0.866070 0.668756 0.178471 0.141880
H46   H     H_    0.771126 0.252335 0.823600 0.154614
H47   H     H_    0.366076 0.168745 0.178460 0.141895
H48   H     H_    0.865896 0.331404 0.180902 0.128158
N1    N     N_R   0.394180 0.396910 0.943210 -0.051056
N2    N     N_R   0.474350 0.471570 0.793850 -0.091574
N3    N     N_R   0.025650 0.971570 0.206150 -0.085135
N4    N     N_R   0.974350 0.971570 0.793850 -0.091584
N5    N     N_R   0.319480 0.528420 0.793810 -0.076249
N6    N     N_R   0.680520 0.528420 0.206190 -0.080183
N7    N     N_R   0.819480 0.028420 0.793810 -0.076253
N8    N     N_R   0.180520 0.028420 0.206190 -0.080191
N9    N     N_R   0.525640 0.528390 0.206120 -0.063648
N10   N     N_R   0.474360 0.528390 0.793880 -0.072635
N11   N     N_R   0.025640 0.028390 0.206120 -0.063669
N12   N     N_R   0.605820 0.396910 0.056790 -0.048964
N13   N     N_R   0.974360 0.028390 0.793880 -0.072594
N14   N     N_R   0.319490 0.471590 0.793840 -0.067699
N15   N     N_R   0.680510 0.471590 0.206160 -0.071035
N16   N     N_R   0.819490 0.971590 0.793840 -0.067695
N17   N     N_R   0.180510 0.971590 0.206160 -0.071037
N18   N     N_R   0.394130 0.603080 0.943110 -0.052873
N19   N     N_R   0.605870 0.603080 0.056890 -0.040240
N20   N     N_R   0.894130 0.103080 0.943110 -0.052885
N21   N     N_R   0.105870 0.103080 0.056890 -0.040241
N22   N     N_R   0.450990 0.396900 0.056840 -0.058479
N23   N     N_R   0.894180 0.896910 0.943210 -0.051061
N24   N     N_R   0.549010 0.396900 0.943160 -0.045041
N25   N     N_R   0.950990 0.896900 0.056840 -0.058474
N26   N     N_R   0.049010 0.896900 0.943160 -0.045040
N27   N     N_R   0.105820 0.896910 0.056790 -0.048963
N28   N     N_R   0.450950 0.603070 0.056740 -0.048805
N29   N     N_R   0.549050 0.603070 0.943260 -0.048072
N30   N     N_R   0.950950 0.103070 0.056740 -0.048810
N31   N     N_R   0.049050 0.103070 0.943260 -0.048074
N32   N     N_R   0.525650 0.471570 0.206150 -0.085134
Ni1   Ni    Ni4+2 0.434860 0.434850 0.869700 0.262851
Ni2   Ni    Ni4+2 0.565140 0.434850 0.130300 0.255762
Ni3   Ni    Ni4+2 0.934860 0.934850 0.869700 0.262868
Ni4   Ni    Ni4+2 0.065140 0.934850 0.130300 0.255785
Ni5   Ni    Ni4+2 0.565130 0.565140 0.130240 0.267399
Ni6   Ni    Ni4+2 0.434870 0.565140 0.869760 0.262437
Ni7   Ni    Ni4+2 0.065130 0.065140 0.130240 0.267376
Ni8   Ni    Ni4+2 0.934870 0.065140 0.869760 0.262409

loop_
_geom_bond_atom_site_label_1
_geom_bond_atom_site_label_2
_ccdc_geom_bond_type
C35   N27   A    
C47   H2    S    
C94   N22   A    
Br7   C78   S    
C43   C68   A    
N14   Ni1   S    
C21   C22   A    
C42   C57   A    
C63   C67   A    
C91   H41   S    
Br9   C19   S    
C30   C56   A    
C52   C56   A    
C34   H33   S    
C61   C62   A    
N8    N17   A    
C28   C34   A    
Br20  C72   S    
C45   H48   S    
N19   N29   A    
C87   H16   S    
N25   Ni4   S    
C11   C23   S    
C10   C15   A    
N2    N10   A    
N1    N22   A    
N8    Ni7   S    
N18   N28   A    
C1    H22   S    
C18   C22   A    
N12   Ni2   S    
C66   C71   A    
C36   H35   S    
C24   N23   A    
C10   C11   A    
C74   N3    A    
Br14  C61   S    
C93   H43   S    
C24   C100  A    
C8    C87   A    
C46   C54   S    
Br12  C60   S    
C38   C98   S    
C48   H3    S    
C49   C51   A    
N3    Ni4   S    
C57   C91   A    
C5    C66   S    
N2    Ni1   S    
C97   N26   A    
C10   C25   S    
C31   H47   S    
C41   C46   A    
C44   C79   A    
C7    C77   A    
N9    N32   A    
C9    C18   S    
C50   C54   A    
N6    Ni5   S    
C30   C32   A    
N24   Ni1   S    
C29   C55   A    
C9    C88   A    
Br11  C21   S    
N5    Ni6   S    
C14   C26   S    
C85   N14   A    
C4    C65   S    
C23   H1    S    
C11   C16   A    
C61   C66   A    
C33   C38   A    
C37   C99   S    
N21   N31   A    
N26   N27   A    
N16   Ni3   S    
C13   N12   A    
N3    N11   A    
N29   Ni6   S    
N28   Ni5   S    
N23   Ni3   S    
N7    Ni8   S    
C60   C63   A    
N4    N13   A    
C6    C85   A    
C25   H28   S    
Br13  C22   S    
Br15  C62   S    
C34   C39   A    
C13   H24   S    
C6    C76   A    
C97   H21   S    
N11   Ni7   S    
C73   N2    A    
C42   H37   S    
C76   N5    A    
N18   Ni6   S    
C52   H7    S    
Br18  C70   S    
Br6   C77   S    
C28   C54   A    
C88   N17   A    
C16   C20   A    
N13   Ni8   S    
Br17  C69   S    
N12   N24   A    
C19   C20   A    
N22   Ni2   S    
C35   H26   S    
N27   Ni4   S    
C49   H4    S    
C81   C90   A    
N1    Ni1   S    
C96   C100  A    
C31   C33   A    
C2    C64   S    
C3    C97   A    
N4    Ni3   S    
C3    C39   S    
C41   H36   S    
N23   N25   A    
C29   H45   S    
C1    C98   A    
C4    C74   A    
C39   C48   A    
C33   H32   S    
Br4   C75   S    
C55   C57   S    
C38   C47   A    
C27   H30   S    
N20   N30   A    
C53   C58   A    
N19   Ni5   S    
C24   H25   S    
C63   C90   S    
C51   H6    S    
C12   C17   A    
C81   N9    A    
C23   C25   S    
C41   N28   A    
C94   C98   A    
C47   C53   A    
C95   N24   A    
C50   H5    S    
C40   C49   A    
C86   H15   S    
C95   H19   S    
N5    N14   A    
C13   C99   A    
C95   C99   A    
C67   C69   A    
C82   N10   A    
C12   C27   S    
C5    C75   A    
C64   C69   A    
C96   N25   A    
N26   Ni3   S    
C45   C52   A    
Br16  C67   S    
Br5   C76   S    
C93   N21   A    
N17   Ni4   S    
Br1   C59   S    
C75   N4    A    
C8    C78   A    
C7    C86   A    
C56   C68   S    
C26   C27   S    
N20   Ni8   S    
C77   N6    A    
C9    C80   A    
N30   Ni7   S    
C14   C18   A    
N15   Ni2   S    
Br2   C73   S    
C82   H10   S    
C42   N29   A    
C37   C45   A    
N6    N15   A    
C92   N20   A    
C65   C70   A    
C5    C84   A    
C3    C35   A    
C26   H23   S    
C28   H44   S    
C27   H34   S    
C89   N18   A    
C62   C65   A    
C92   H42   S    
C91   N19   A    
C2    C82   A    
C43   N30   A    
C87   N16   A    
C7    C16   S    
C80   N8    A    
C4    C83   A    
Br8   C80   S    
C31   C58   A    
C29   C36   A    
C51   C55   A    
C78   N7    A    
C72   C90   A    
C70   C71   A    
C59   C64   A    
C8    C17   S    
N21   Ni7   S    
C32   H31   S    
C1    N1    A    
C15   C19   A    
N10   Ni6   S    
C44   H39   S    
N31   Ni8   S    
C2    C73   A    
C53   H8    S    
N9    Ni5   S    
C84   N13   A    
Br3   C74   S    
C83   N11   A    
C94   H18   S    
C46   C89   A    
C17   C21   A    
C30   H46   S    
C86   N15   A    
C23   H27   S    
C32   C37   A    
C40   C100  S    
C88   H17   S    
C59   C60   A    
C68   C92   A    
C84   H13   S    
C36   C40   A    
C6    C15   S    
C26   H29   S    
C25   H12   S    
C48   C50   A    
C44   N31   A    
C58   C79   S    
Br19  C71   S    
C85   H14   S    
Br10  C20   S    
C43   H38   S    
C72   N32   A    
C89   H40   S    
C83   H11   S    
N32   Ni2   S    
C12   C14   A    
N7    N16   A    
C96   H20   S    
C79   C93   A    
C81   H9    S    
