data_mof_unit_34917.cif
_audit_creation_date              2012-12-11T14:17:44-0500
_audit_creation_method            fapswitch 2.2
_symmetry_space_group_name_H-M    P1
_symmetry_Int_Tables_number       1
_space_group_crystal_system       triclinic
_cell_length_a                    6.95828
_cell_length_b                    13.713369
_cell_length_c                    20.447146
_cell_angle_alpha                 102.313503
_cell_angle_beta                  90.52637
_cell_angle_gamma                 90.660679
_cell_volume                      1905.95007493

loop_
_atom_site_label
_atom_site_type_symbol
_atom_type_description
_atom_site_fract_x
_atom_site_fract_y
_atom_site_fract_z
_atom_type_partial_charge
O1    O     O_R   0.506860 0.599390 0.449240 -0.522202
O2    O     O_R   0.180220 0.594600 0.586780 -0.548394
O3    O     O_R   0.004500 0.400610 0.550760 -0.539086
C1    C     C_R   0.349655 0.613384 0.614262 0.755579
O4    O     O_R   0.177490 0.611290 0.451970 -0.552684
O5    O     O_R   0.001750 0.417420 0.414990 -0.535904
C2    C     C_R   0.346214 0.635679 0.433961 0.832217
O6    O     O_R   0.509610 0.582580 0.585010 -0.546358
O7    O     O_3   0.337420 0.436370 0.488020 -0.372528
V1    V     V_3+5 0.064680 0.511800 0.502220 1.451910
O8    O     O_R   0.671710 0.405400 0.413220 -0.533445
C3    C     C_R   0.838960 0.384879 0.386358 0.750027
O9    O     O_R   0.674440 0.388710 0.548030 -0.546180
C4    C     C_R   0.843120 0.363808 0.566055 0.686860
V2    V     V_3+5 0.564010 0.488200 0.497780 1.473470
O10   O     O_3   0.841140 0.563630 0.511980 -0.376112
C5    C     C_R   0.900546 0.116229 0.613326 -0.158093
H1    H     H_    0.913274 0.168400 0.522115 0.129963
H2    H     H_    0.925425 0.040585 0.586904 0.131091
C6    C     C_R   0.852937 0.287406 0.606248 -0.031894
C7    C     C_R   0.833704 0.314372 0.929517 -0.175117
C8    C     C_R   0.814688 0.389479 0.893892 -0.105681
C9    C     C_R   0.818895 0.367178 0.824128 -0.128957
C10   C     C_R   0.843011 0.267893 0.787783 0.066666
C11   C     C_R   0.863387 0.191455 0.824847 -0.000986
C12   C     C_R   0.850769 0.242281 0.716204 0.027785
C13   C     C_R   0.881561 0.141025 0.683450 0.029451
C14   C     C_R   0.896513 0.066585 0.721339 0.370200
C15   C     C_R   0.889385 0.092409 0.790731 -0.258848
C16   C     C_R   0.832294 0.314053 0.675814 -0.182838
C17   C     C_R   0.890972 0.189030 0.575536 -0.175904
C18   C     C_R   0.858292 0.215560 0.895787 -0.042425
H3    H     H_    0.804967 0.391555 0.696666 0.095506
H4    H     H_    0.828488 0.333313 0.983692 0.088639
H5    H     H_    0.803933 0.429659 0.800407 0.121991
H6    H     H_    0.796061 0.465867 0.920583 0.134576
H7    H     H_    0.906898 0.033076 0.817695 0.155414
C19   C     C_2   0.994511 0.306491 0.279521 -0.073726
C20   C     C_2   0.840745 0.316126 0.319925 -0.220637
H8    H     H_    0.125408 0.348287 0.296940 0.151215
H9    H     H_    0.711696 0.271651 0.304887 0.200407
C21   C     C_2   0.004720 0.233551 0.214163 -0.201459
C22   C     C_2   0.854289 0.201644 0.172649 0.281854
H10   H     H_    0.146174 0.207102 0.199184 0.160492
C23   C     C_2   0.206896 0.758277 0.791618 0.188621
C24   C     C_2   0.356347 0.818127 0.818785 -0.304219
H11   H     H_    0.484513 0.821212 0.789542 0.122922
C25   C     C_2   0.206243 0.698291 0.721485 -0.133452
C26   C     C_2   0.362839 0.675004 0.683236 -0.351343
H12   H     H_    0.068081 0.667991 0.701421 0.153928
H13   H     H_    0.504701 0.696046 0.703792 0.142301
C27   C     C_R   0.333064 0.886459 0.390493 0.363630
C28   C     C_R   0.353702 0.712663 0.394659 -0.191773
C29   C     C_R   0.337875 0.690109 0.074018 -0.161216
C30   C     C_R   0.291797 0.616029 0.108208 -0.123222
C31   C     C_R   0.275819 0.639229 0.177461 -0.089812
C32   C     C_R   0.314947 0.736524 0.214567 0.114408
C33   C     C_R   0.333770 0.815453 0.179277 -0.015173
C34   C     C_R   0.326710 0.758669 0.285983 -0.037207
C35   C     C_R   0.302646 0.859190 0.320499 -0.135200
C36   C     C_R   0.266676 0.932518 0.284031 0.211157
C37   C     C_R   0.317660 0.915167 0.216764 0.053476
C38   C     C_R   0.368352 0.686322 0.324578 0.036512
C39   C     C_R   0.343477 0.812420 0.428014 0.268694
C40   C     C_R   0.354185 0.789885 0.108082 -0.065609
H14   H     H_    0.348154 0.670408 0.019932 0.115396
H15   H     H_    0.225288 0.581012 0.201425 0.144518
H16   H     H_    0.264968 0.540412 0.080713 0.116691
O11   O     O_R   0.203230 0.917310 0.915020 -0.522408
O12   O     O_R   0.535500 0.888690 0.048040 -0.533475
O13   O     O_R   0.711080 0.082610 0.085000 -0.508813
C41   C     C_R   0.366483 0.863874 0.066136 0.747887
O14   O     O_R   0.532630 0.905370 0.913230 -0.537427
O15   O     O_R   0.708190 0.099410 0.949230 -0.545198
C42   C     C_R   0.362611 0.882623 0.887028 0.768257
O16   O     O_R   0.206120 0.900510 0.050790 -0.529048
O17   O     O_3   0.375360 0.063570 0.011990 -0.374867
V3    V     V_3+5 0.648170 0.988200 0.997780 1.519948
O18   O     O_R   0.038240 0.111390 0.951940 -0.547435
C43   C     C_R   0.869210 0.138230 0.935575 0.657015
O19   O     O_R   0.041120 0.094710 0.086750 -0.555350
C44   C     C_R   0.872265 0.120397 0.111594 0.674927
V4    V     V_3+5 0.148810 0.011930 0.002180 1.487314
O20   O     O_3   0.871750 0.936430 0.988010 -0.351902
O21   O     O_3   0.676044 0.244988 0.185965 -0.535674
C45   C     C_3   0.645408 0.312673 0.143617 0.158271
H17   H     H_    0.700227 0.285567 0.091892 0.056519
H18   H     H_    0.717448 0.385175 0.165678 0.148286
C46   C     C_3   0.430835 0.329150 0.137494 -0.665896
H19   H     H_    0.367806 0.354579 0.187803 0.234266
H20   H     H_    0.358581 0.258455 0.111976 0.219382
H21   H     H_    0.405838 0.386569 0.107581 0.162381
I1    I     I_    0.952503 0.740133 0.845294 -0.460363
O22   O     O_3   0.388660 0.836749 0.495636 -0.563383
C47   C     C_3   0.235985 0.887024 0.532794 0.125400
H22   H     H_    0.132441 0.831308 0.544591 0.116616
H23   H     H_    0.155939 0.937755 0.506782 0.150836
C48   C     C_3   0.320097 0.949057 0.597372 -0.673781
H24   H     H_    0.437524 0.997902 0.585688 0.215680
H25   H     H_    0.211774 0.997986 0.625711 0.221743
H26   H     H_    0.374599 0.898879 0.629100 0.207171
I2    I     I_    0.101207 0.061526 0.326515 -0.437300
O23   O     O_3   0.363058 0.985222 0.422446 -0.539951
C49   C     C_3   0.556939 0.012309 0.414843 0.154506
H27   H     H_    0.607979 0.986353 0.362527 0.139629
H28   H     H_    0.650699 0.980656 0.449292 0.131306
C50   C     C_3   0.576648 0.125577 0.432262 -0.646742
H29   H     H_    0.538586 0.154524 0.485435 0.213334
H30   H     H_    0.726514 0.148149 0.423942 0.173494
H31   H     H_    0.480220 0.159087 0.399782 0.248272
O24   O     O_3   0.937134 0.968602 0.692204 -0.559226
C51   C     C_3   0.764421 0.917186 0.669817 0.067956
H32   H     H_    0.714770 0.937933 0.623112 0.135548
H33   H     H_    0.649322 0.932478 0.708194 0.120085
C52   C     C_3   0.800541 0.805788 0.653745 -0.670967
H34   H     H_    0.813040 0.778827 0.700959 0.213879
H35   H     H_    0.679298 0.766409 0.623223 0.189592
H36   H     H_    0.934587 0.788822 0.624927 0.224578
I3    I     I_    0.517586 0.549865 0.285886 -0.491426
I4    I     I_    0.406680 0.046245 0.186207 -0.323330

loop_
_geom_bond_atom_site_label_1
_geom_bond_atom_site_label_2
_ccdc_geom_bond_type
C33   C37   A    
O18   V4    S    
C30   C31   A    
C27   O23   S    
O12   V3    S    
O14   C42   A    
O24   C51   S    
C41   O16   A    
C23   I1    S    
C49   H28   S    
O19   C44   A    
C47   C48   S    
C20   H9    S    
C29   C40   A    
C6    C16   A    
O17   V3    S    
C12   C13   A    
C14   C15   A    
C10   C12   A    
C19   C21   S    
O5    C3    A    
C19   C20   D    
C28   C39   A    
C45   H18   S    
C32   C34   A    
O17   V4    S    
V2    O10   S    
C31   C32   A    
C49   H27   S    
C27   C35   A    
C24   H11   S    
O8    V2    S    
C47   H22   S    
C26   H13   S    
C50   H29   S    
O1    V2    S    
C46   H20   S    
O7    V1    S    
C37   I4    S    
C1    O6    A    
O13   C44   A    
C11   C18   A    
C25   H12   S    
C34   C35   A    
O15   C43   A    
C7    C8    A    
C50   H30   S    
C36   C37   A    
C21   H10   S    
O16   V4    S    
C51   H33   S    
C24   C42   S    
O19   V4    S    
C30   H16   S    
C14   O24   S    
C11   C15   A    
C7    C18   A    
C5    C13   A    
C4    C6    S    
C10   C11   A    
C27   C39   A    
O4    C2    A    
C45   H17   S    
C7    H4    S    
C52   H35   S    
O21   C45   S    
C35   C36   A    
C22   O21   S    
O2    C1    A    
O11   V4    S    
C18   C43   S    
C38   I3    S    
C33   C40   A    
V4    O20   S    
O14   V3    S    
C52   H36   S    
C49   C50   S    
C46   H21   S    
O3    C4    A    
C31   H15   S    
C25   C26   D    
C12   C16   A    
O6    V2    S    
C48   H25   S    
O9    V2    S    
C5    C17   A    
C50   H31   S    
C23   C24   D    
C21   C22   D    
C2    C28   S    
O2    V1    S    
C13   C14   A    
C23   C25   S    
C29   C30   A    
C16   H3    S    
O1    C2    A    
C45   C46   S    
O5    V1    S    
O8    C3    A    
C47   H23   S    
C29   H14   S    
C40   C41   S    
C8    H6    S    
C34   C38   A    
C48   H26   S    
C1    C26   S    
C3    C20   S    
C36   I2    S    
O7    V2    S    
C39   O22   S    
O4    V1    S    
O3    V1    S    
V1    O10   S    
C19   H8    S    
C28   C38   A    
C32   C33   A    
C5    H2    S    
O11   C42   A    
C51   H32   S    
C51   C52   S    
O22   C47   S    
C9    H5    S    
C9    C10   A    
O18   C43   A    
V3    O20   S    
C48   H24   S    
O15   V3    S    
C15   H7    S    
O23   C49   S    
C22   C44   S    
C8    C9    A    
O12   C41   A    
H1    C17   S    
C46   H19   S    
O9    C4    A    
O13   V3    S    
C52   H34   S    
C6    C17   A    
