data_mof_unit_25894.cif
_audit_creation_date              2012-12-10T20:26:29-0500
_audit_creation_method            fapswitch 2.2
_symmetry_space_group_name_H-M    P1
_symmetry_Int_Tables_number       1
_space_group_crystal_system       triclinic
_cell_length_a                    10.755888
_cell_length_b                    10.63362
_cell_length_c                    9.878388
_cell_angle_alpha                 89.864471
_cell_angle_beta                  89.577818
_cell_angle_gamma                 91.281736
_cell_volume                      1129.51402752

loop_
_atom_site_label
_atom_site_type_symbol
_atom_type_description
_atom_site_fract_x
_atom_site_fract_y
_atom_site_fract_z
_atom_type_partial_charge
C1    C     C_R   0.494568 0.260754 0.500080 0.910477
C2    C     C_R   0.598871 0.548069 0.070672 0.563869
C3    C     C_R   0.597696 0.549076 0.926529 -0.235294
C4    C     C_R   0.262936 0.506623 0.500438 0.803227
C5    C     C_R   0.399513 0.455206 0.930186 0.149973
C6    C     C_3   0.348912 0.323361 0.928254 0.871388
C7    C     C_3   0.332018 0.336553 0.082583 -0.646180
C8    C     C_R   0.499525 0.739913 0.499275 0.905622
C9    C     C_R   0.736733 0.491372 0.499667 0.873518
C10   C     C_2   0.934299 0.499743 0.388556 -0.164344
C11   C     C_2   0.867608 0.474288 0.499414 -0.289518
C12   C     C_R   0.492440 0.129388 0.497949 -0.098782
C13   C     C_2   0.067458 0.493886 0.392937 -0.312335
C14   C     C_2   0.132586 0.533769 0.500539 0.343247
C15   C     C_R   0.602154 0.068986 0.520576 0.051811
C16   C     C_3   0.718200 0.713636 0.140049 -0.370921
C17   C     C_3   0.203014 0.199368 0.807955 0.097965
C18   C     C_3   0.094096 0.208569 0.710505 -0.352350
C19   C     C_3   0.059037 0.079974 0.652121 -0.945736
C20   C     C_3   0.450379 0.126515 0.946674 -0.016034
C21   C     C_3   0.569533 0.122372 0.030467 -0.308405
C22   C     C_3   0.577808 0.998064 0.105756 -0.977239
C23   C     C_R   0.388662 0.063862 0.448042 -0.388608
C24   C     C_3   0.142219 0.702223 0.653521 0.103115
C25   C     C_3   0.169014 0.693828 0.805024 -0.284590
C26   C     C_3   0.255451 0.801435 0.850463 -1.015562
C27   C     C_3   0.212937 0.915573 0.306106 0.060417
C28   C     C_3   0.131106 0.815598 0.237684 -0.300270
C29   C     C_3   0.044350 0.874411 0.134881 -0.994804
C30   C     C_3   0.825400 0.777877 0.547025 -0.268530
C31   C     C_R   0.389992 0.931557 0.443019 0.471045
C32   C     C_R   0.496217 0.872435 0.494075 -0.228991
C33   C     C_R   0.605646 0.941512 0.515583 -0.024507
C34   C     C_3   0.701986 0.936921 0.624671 0.365482
C35   C     C_3   0.691470 0.079190 0.634336 -0.495720
C36   C     C_R   0.395946 0.462101 0.072180 -0.004483
H1    H     H_    0.891802 0.523125 0.292807 0.224711
H2    H     H_    0.646309 0.110942 0.729053 0.185057
H3    H     H_    0.798002 0.740043 0.205285 0.200100
H4    H     H_    0.634503 0.756412 0.185551 0.202167
H5    H     H_    0.737327 0.752374 0.037121 0.154404
H6    H     H_    0.174845 0.139443 0.895928 0.115456
H7    H     H_    0.279826 0.155558 0.750181 0.178010
H8    H     H_    0.012335 0.247869 0.763787 0.231048
H9    H     H_    0.120879 0.272931 0.625838 0.226982
H10   H     H_    0.142047 0.033810 0.609184 0.258302
H11   H     H_    0.991180 0.091824 0.569395 0.294579
H12   H     H_    0.776944 0.133430 0.604999 0.214459
H13   H     H_    0.017012 0.018619 0.732147 0.287543
H14   H     H_    0.454638 0.052031 0.868139 0.163507
H15   H     H_    0.367067 0.102701 0.010048 0.119376
H16   H     H_    0.651896 0.133899 0.962856 0.220048
H17   H     H_    0.573215 0.200523 0.104632 0.233638
H18   H     H_    0.499572 0.987036 0.178876 0.274801
H19   H     H_    0.666644 0.995560 0.162189 0.270404
H20   H     H_    0.574150 0.919173 0.032355 0.251775
H21   H     H_    0.083758 0.785193 0.636272 0.169361
H22   H     H_    0.230469 0.721837 0.597706 0.173082
H23   H     H_    0.677926 0.585030 0.870907 0.165669
H24   H     H_    0.080155 0.697157 0.862865 0.216364
H25   H     H_    0.213147 0.603070 0.827848 0.256286
H26   H     H_    0.345215 0.799255 0.794396 0.280736
H27   H     H_    0.275199 0.791794 0.959984 0.268805
H28   H     H_    0.211536 0.893440 0.832577 0.259126
H29   H     H_    0.269732 0.964859 0.226438 0.136058
H30   H     H_    0.151178 0.983029 0.358018 0.157262
H31   H     H_    0.190943 0.746448 0.185869 0.228365
H32   H     H_    0.074400 0.764592 0.315478 0.226518
H33   H     H_    0.976427 0.935098 0.187186 0.271909
H34   H     H_    0.233088 0.345797 0.113557 0.191736
H35   H     H_    0.992684 0.798988 0.080115 0.268838
H36   H     H_    0.098153 0.931886 0.059885 0.266293
H37   H     H_    0.753325 0.747643 0.473552 0.154451
H38   H     H_    0.818155 0.722860 0.642740 0.179606
H39   H     H_    0.915614 0.758500 0.497947 0.204457
H40   H     H_    0.383052 0.271501 0.148386 0.206940
H41   H     H_    0.909745 0.442469 0.592683 0.199442
H42   H     H_    0.112578 0.455007 0.304102 0.155505
H43   H     H_    0.307430 0.115887 0.419848 0.136727
H44   H     H_    0.673153 0.885537 0.718697 0.075445
N1    N     N_R   0.499170 0.499140 0.142800 -0.131594
N2    N     N_R   0.499170 0.499180 0.857150 -0.125239
O1    O     O_R   0.500020 0.316790 0.614690 -0.564122
O2    O     O_3   0.237228 0.321341 0.852139 -0.660251
O3    O     O_3   0.444808 0.243958 0.879398 -0.647466
O4    O     O_3   0.075717 0.592465 0.610698 -0.662738
O5    O     O_3   0.289085 0.856449 0.402052 -0.676737
O6    O     O_3   0.820515 0.907306 0.573061 -0.610723
O7    O     O_R   0.500000 0.316760 0.385350 -0.629125
O8    O     O_R   0.319080 0.500020 0.614640 -0.586890
O9    O     O_R   0.319070 0.499980 0.385300 -0.631303
O10   O     O_R   0.500000 0.683240 0.614650 -0.648846
O11   O     O_R   0.499980 0.683210 0.385310 -0.594888
O12   O     O_R   0.680930 0.500020 0.614700 -0.632249
O13   O     O_R   0.680920 0.499980 0.385360 -0.556138
O14   O     O_3   0.706515 0.581736 0.137392 -0.598888
Zn1   Zn    Zn3+2 0.500010 0.500020 0.653130 0.976317
Zn2   Zn    Zn3+2 0.499990 0.499980 0.346870 0.977579

loop_
_geom_bond_atom_site_label_1
_geom_bond_atom_site_label_2
_ccdc_geom_bond_type
C30   H39   S    
C7    C36   S    
C7    H34   S    
C19   H10   S    
C22   H18   S    
C12   C23   A    
C6    O3    S    
C10   H1    S    
C28   C29   S    
C28   H32   S    
C18   C19   S    
C20   H15   S    
C5    C6    S    
C30   H38   S    
C19   H11   S    
N1    Zn2   S    
C5    C36   A    
C34   C35   S    
C26   H28   S    
C17   H6    S    
C20   H14   S    
C11   H41   S    
C34   H44   S    
C24   H21   S    
C34   O6    S    
C8    O10   A    
C25   H24   S    
C9    O13   A    
O8    Zn1   S    
C29   H33   S    
C29   H36   S    
C21   C22   S    
C1    C12   S    
C35   H12   S    
C15   C35   S    
O10   Zn1   S    
C17   C18   S    
C4    O8    A    
C16   O14   S    
C6    O2    S    
C8    C32   S    
C35   H2    S    
C31   O5    S    
C24   C25   S    
C14   O4    S    
C7    H40   S    
C30   H37   S    
C22   H20   S    
O12   Zn1   S    
C25   C26   S    
C23   C31   A    
C26   H27   S    
C17   H7    S    
C27   H29   S    
C18   H8    S    
C19   H13   S    
C31   C32   A    
C12   C15   A    
C36   N1    A    
C20   O3    S    
C28   H31   S    
C3    N2    A    
C33   C34   S    
C25   H25   S    
C27   O5    S    
C9    C11   S    
C6    C7    S    
C16   H4    S    
N2    Zn1   S    
C30   O6    S    
C18   H9    S    
C13   H42   S    
C1    O7    A    
C8    O11   A    
C9    O12   A    
C10   C13   S    
C22   H19   S    
C1    O1    A    
O7    Zn2   S    
C17   O2    S    
C32   C33   A    
C4    O9    A    
C2    O14   S    
C2    C3    A    
C26   H26   S    
C27   H30   S    
C21   H17   S    
C5    N2    A    
C24   O4    S    
C16   H5    S    
O9    Zn2   S    
C4    C14   S    
C10   C11   D    
C16   H3    S    
C20   C21   S    
C24   H22   S    
O1    Zn1   S    
C27   C28   S    
C2    N1    A    
C23   H43   S    
C13   C14   D    
O13   Zn2   S    
O11   Zn2   S    
C15   C33   A    
C21   H16   S    
C29   H35   S    
C3    H23   S    
