data_mof_unit_47175.cif
_audit_creation_date              2012-10-26T17:13:02-0400
_audit_creation_method            fapswitch 2.2
_symmetry_space_group_name_H-M    P1
_symmetry_Int_Tables_number       1
_space_group_crystal_system       triclinic
_cell_length_a                    16.873478
_cell_length_b                    16.771179
_cell_length_c                    16.828701
_cell_angle_alpha                 67.730325
_cell_angle_beta                  67.502166
_cell_angle_gamma                 67.649988
_cell_volume                      3914.52745277

loop_
_atom_site_label
_atom_site_type_symbol
_atom_type_description
_atom_site_fract_x
_atom_site_fract_y
_atom_site_fract_z
_atom_type_partial_charge
C1    C     C_R   0.322221 0.954144 0.453946 -0.001181
C2    C     C_R   0.308070 0.432295 0.009772 -0.002439
C3    C     C_R   0.544218 0.424675 0.967798 0.024515
C4    C     C_R   0.944158 0.475923 0.604980 0.027325
C5    C     C_R   0.929084 0.559998 0.430388 0.025372
C6    C     C_R   0.968709 0.700462 0.569940 -0.001893
C7    C     C_R   0.934420 0.326552 0.456843 -0.003288
C8    C     C_R   0.457775 0.972922 0.458019 -0.005242
C9    C     C_R   0.545415 0.014656 0.545023 -0.005010
C10   C     C_R   0.931998 0.468915 0.468073 -0.005420
C11   C     C_R   0.949058 0.564809 0.564908 -0.004578
C12   C     C_R   0.450488 0.450909 0.995113 -0.004567
C13   C     C_R   0.547189 0.548397 0.009242 -0.004858
C14   C     C_R   0.011573 0.832223 0.569762 0.560543
C15   C     C_R   0.679460 0.037929 0.547565 -0.000746
C16   C     C_R   0.971458 0.171794 0.435368 0.555529
C17   C     C_R   0.831282 0.569518 0.014583 0.548613
C18   C     C_R   0.168237 0.430230 0.986457 0.564826
C19   C     C_R   0.565034 0.026819 0.828376 0.552853
C20   C     C_R   0.435209 0.972294 0.171663 0.552091
C21   C     C_R   0.435031 0.171546 0.972583 0.552183
C22   C     C_R   0.564659 0.828442 0.028021 0.551270
C23   C     C_R   0.970916 0.435705 0.171772 0.552594
C24   C     C_R   0.013592 0.569144 0.831452 0.557949
C25   C     C_R   0.171611 0.972659 0.435066 0.564386
C26   C     C_R   0.933554 0.458613 0.326026 -0.003442
C27   C     C_R   0.828469 0.026388 0.565177 0.545532
C28   C     C_R   0.411259 0.959273 0.411665 0.023847
C29   C     C_R   0.591004 0.031067 0.590430 0.023581
C30   C     C_R   0.933172 0.417970 0.416793 0.024926
C31   C     C_R   0.965452 0.610329 0.610765 0.023622
C32   C     C_R   0.402218 0.402385 0.987563 0.025899
C33   C     C_R   0.595811 0.596951 0.016309 0.025280
C34   C     C_R   0.270492 0.957245 0.401673 -0.024720
C35   C     C_R   0.729964 0.039354 0.598788 -0.023404
C36   C     C_R   0.951245 0.402886 0.271059 -0.024079
C37   C     C_R   0.974985 0.566450 0.698461 -0.000030
C38   C     C_R   0.000756 0.609789 0.740298 -0.023023
C39   C     C_R   0.397890 0.269239 0.963646 -0.026487
C40   C     C_R   0.601115 0.730570 0.038263 -0.026659
C41   C     C_R   0.598846 0.040356 0.729497 -0.025710
C42   C     C_R   0.401668 0.956397 0.270810 -0.025804
C43   C     C_R   0.736900 0.609597 0.012833 -0.022343
C44   C     C_R   0.261960 0.389807 0.989599 -0.023596
C45   C     C_R   0.997619 0.741354 0.611307 -0.021392
C46   C     C_R   0.951672 0.271438 0.401907 -0.025617
C47   C     C_R   0.455002 0.046913 0.711786 -0.112262
C48   C     C_R   0.448116 0.323292 0.959015 -0.000200
C49   C     C_R   0.546945 0.943288 0.289968 -0.113482
C50   C     C_R   0.940263 0.746128 0.490660 -0.116382
C51   C     C_R   0.918775 0.293952 0.550770 -0.116943
C52   C     C_R   0.733666 0.495896 0.952946 -0.113377
C53   C     C_R   0.263931 0.502438 0.052157 -0.114465
C54   C     C_R   0.288348 0.948393 0.546705 -0.112976
C55   C     C_R   0.713885 0.041132 0.455287 -0.119535
C56   C     C_R   0.542123 0.301029 0.927276 -0.113971
C57   C     C_R   0.456077 0.698889 0.075949 -0.114016
C58   C     C_R   0.915493 0.553517 0.294772 -0.122002
C59   C     C_R   0.550260 0.676473 0.043958 -0.000398
C60   C     C_R   0.955845 0.481876 0.740748 -0.122230
C61   C     C_R   0.311683 0.957647 0.311704 -0.165699
C62   C     C_R   0.688234 0.041071 0.688114 -0.168221
C63   C     C_R   0.959321 0.310952 0.310429 -0.162176
C64   C     C_R   0.013380 0.694859 0.694752 -0.166862
C65   C     C_R   0.306765 0.306687 0.971586 -0.161567
C66   C     C_R   0.692326 0.692958 0.030258 -0.163722
C67   C     C_R   0.673421 0.015479 0.414099 0.009260
C68   C     C_R   0.329901 0.971372 0.589089 0.011649
C69   C     C_R   0.946271 0.434991 0.693777 0.009328
C70   C     C_R   0.547708 0.040228 0.678332 -0.000520
C71   C     C_R   0.916213 0.603516 0.344991 0.010137
C72   C     C_R   0.407803 0.648682 0.072506 0.014571
C73   C     C_R   0.590036 0.350415 0.932227 0.014660
C74   C     C_R   0.590263 0.964863 0.331774 0.013924
C75   C     C_R   0.412902 0.022392 0.671232 0.011869
C76   C     C_R   0.311467 0.550129 0.060479 0.012077
C77   C     C_R   0.685957 0.447953 0.945709 0.012937
C78   C     C_R   0.925695 0.341170 0.599250 0.014681
C79   C     C_R   0.929227 0.699982 0.443209 0.009500
C80   C     C_R   0.717456 0.001529 0.328847 -0.129920
C81   C     C_R   0.453867 0.952143 0.323063 -0.000991
C82   C     C_R   0.286328 0.984123 0.674807 -0.123047
C83   C     C_R   0.938251 0.347227 0.735120 -0.132304
C84   C     C_R   0.905055 0.696413 0.310993 -0.128689
C85   C     C_R   0.314323 0.671699 0.103864 -0.125738
C86   C     C_R   0.683496 0.325908 0.903119 -0.123326
C87   C     C_R   0.677258 0.973615 0.289190 -0.124467
C88   C     C_R   0.326395 0.012301 0.714364 -0.123099
C89   C     C_R   0.266594 0.622573 0.098323 -0.125281
C90   C     C_R   0.730861 0.374102 0.910297 -0.121654
C91   C     C_R   0.926044 0.301336 0.688851 -0.125451
C92   C     C_R   0.690052 0.566761 0.994078 -0.000452
C93   C     C_R   0.910891 0.744377 0.359988 -0.124459
C94   C     C_R   0.545249 0.980560 0.416073 0.025527
C95   C     C_R   0.458215 0.006179 0.587252 0.024815
C96   C     C_R   0.934674 0.428467 0.557160 0.025769
C97   C     C_R   0.936702 0.608102 0.479136 0.025005
C98   C     C_R   0.405121 0.525571 0.030149 0.024864
C99   C     C_R   0.592396 0.473408 0.974815 0.024196
C100  C     C_R   0.588365 0.002634 0.458861 0.026138
C101  C     C_R   0.415141 0.983994 0.544516 0.025019
C102  C     C_R   0.453411 0.574531 0.036827 0.024923
Cu1   Cu    Cu3+1 0.995180 0.995180 0.424630 0.892572
Cu2   Cu    Cu3+1 0.004820 0.004820 0.575370 0.900291
Cu3   Cu    Cu3+1 0.995180 0.424630 0.995180 0.900770
Cu4   Cu    Cu3+1 0.004820 0.575370 0.004820 0.901264
Cu5   Cu    Cu3+1 0.424630 0.995180 0.995180 0.907442
Cu6   Cu    Cu3+1 0.575370 0.004820 0.004820 0.903321
H1    H     H_    0.271744 0.963166 0.271539 0.157388
H2    H     H_    0.920057 0.233650 0.722139 0.099789
H3    H     H_    0.802719 0.352466 0.890190 0.098716
H4    H     H_    0.194424 0.642102 0.122478 0.108392
H5    H     H_    0.220099 0.975272 0.709913 0.104132
H6    H     H_    0.783811 0.010072 0.293836 0.097313
H7    H     H_    0.720043 0.268734 0.875988 0.103203
H8    H     H_    0.278030 0.728093 0.132159 0.107353
H9    H     H_    0.893421 0.731710 0.245887 0.100363
H10   H     H_    0.943290 0.313316 0.802729 0.090987
H11   H     H_    0.412522 0.072985 0.768035 0.147983
H12   H     H_    0.727327 0.038987 0.727446 0.155051
H13   H     H_    0.588243 0.918838 0.232432 0.145550
H14   H     H_    0.923137 0.817869 0.464897 0.155738
H15   H     H_    0.900407 0.232452 0.588501 0.145150
H16   H     H_    0.804578 0.479059 0.922284 0.133949
H17   H     H_    0.192750 0.518999 0.082454 0.147667
H18   H     H_    0.230632 0.925025 0.588875 0.150168
H19   H     H_    0.770489 0.065792 0.411875 0.151467
H20   H     H_    0.579002 0.247253 0.895584 0.135690
H21   H     H_    0.419474 0.753300 0.106818 0.136008
H22   H     H_    0.898786 0.590687 0.232599 0.147412
H23   H     H_    0.975210 0.268546 0.268256 0.159353
H24   H     H_    0.943790 0.450071 0.810884 0.143575
H25   H     H_    0.034913 0.726188 0.725627 0.155875
H26   H     H_    0.269628 0.269458 0.966244 0.158086
H27   H     H_    0.729807 0.730410 0.034690 0.155941
H28   H     H_    0.290762 0.023769 0.779717 0.104192
H29   H     H_    0.712901 0.962050 0.223878 0.100715
H30   H     H_    0.903411 0.815746 0.331690 0.101438
O1    O     O_R   0.124540 0.978640 0.385460 -0.501221
O2    O     O_R   0.124540 0.385460 0.978640 -0.503943
O3    O     O_R   0.021360 0.875460 0.614540 -0.509797
O4    O     O_R   0.978640 0.124540 0.385460 -0.508993
O5    O     O_R   0.013780 0.867370 0.487190 -0.521102
O6    O     O_R   0.986220 0.132630 0.512810 -0.513882
O7    O     O_R   0.867370 0.487190 0.013780 -0.523234
O8    O     O_R   0.132630 0.512810 0.986220 -0.511343
O9    O     O_R   0.487190 0.013780 0.867370 -0.517228
O10   O     O_R   0.512810 0.986220 0.132630 -0.516413
O11   O     O_R   0.512810 0.132630 0.986220 -0.509283
O12   O     O_R   0.875460 0.021360 0.614540 -0.514671
O13   O     O_R   0.487190 0.867370 0.013780 -0.508879
O14   O     O_R   0.986220 0.512810 0.132630 -0.527471
O15   O     O_R   0.013780 0.487190 0.867370 -0.527236
O16   O     O_R   0.132630 0.986220 0.512810 -0.514763
O17   O     O_R   0.867370 0.013780 0.487190 -0.534143
O18   O     O_R   0.978640 0.385460 0.124540 -0.505580
O19   O     O_R   0.021360 0.614540 0.875460 -0.502284
O20   O     O_R   0.385460 0.124540 0.978640 -0.510608
O21   O     O_R   0.614540 0.875460 0.021360 -0.512607
O22   O     O_R   0.614540 0.021360 0.875460 -0.510542
O23   O     O_R   0.385460 0.978640 0.124540 -0.510378
O24   O     O_R   0.875460 0.614540 0.021360 -0.516881

loop_
_geom_bond_atom_site_label_1
_geom_bond_atom_site_label_2
_ccdc_geom_bond_type
Cu3   O15   S    
C23   O14   A    
C6    C45   A    
C51   H15   S    
C21   O20   A    
C74   C94   A    
C17   O7    A    
C50   H14   S    
C61   H1    S    
C50   C79   A    
C60   H24   S    
C72   C85   A    
C75   C95   A    
Cu6   O21   S    
C54   H18   S    
C89   H4    S    
C19   O22   A    
C90   H3    S    
C83   H10   S    
C57   H21   S    
C16   O6    A    
C79   C93   A    
C80   C87   A    
C18   C44   S    
C58   C71   A    
C57   C59   A    
C54   C68   A    
C22   O21   A    
Cu2   O12   S    
C2    C32   A    
C80   H6    S    
C49   C81   A    
C93   H30   S    
C4    C96   A    
Cu5   O23   S    
C78   C96   A    
C84   H9    S    
C1    C28   A    
C24   C38   S    
Cu5   Cu6   S    
C20   O10   A    
C3    C12   A    
C63   H23   S    
C74   C87   A    
C36   C63   A    
C8    C101  A    
C9    C95   A    
C62   H12   S    
C65   H26   S    
C9    C29   A    
C25   C34   S    
Cu5   O13   S    
C47   H11   S    
C6    C31   A    
C28   C81   A    
C14   O3    A    
C11   C31   A    
C33   C59   A    
C7    C30   A    
C40   C66   A    
C23   O18   A    
C12   C32   A    
C32   C48   A    
C44   C65   A    
C42   C81   A    
C41   C62   A    
C87   H29   S    
C15   C35   A    
C4    C69   A    
C1    C34   A    
C15   C29   A    
C14   C45   S    
C38   C64   A    
C27   O17   A    
C49   H13   S    
C77   C90   A    
Cu4   O14   S    
C7    C46   A    
C8    C94   A    
C68   C101  A    
C88   H28   S    
C86   C90   A    
C33   C92   A    
C2    C44   A    
C85   C89   A    
C22   C40   S    
C27   C35   S    
C10   C96   A    
C98   C102  A    
C34   C61   A    
C19   O9    A    
C31   C37   A    
C86   H7    S    
C15   C55   A    
C13   C99   A    
C16   O4    A    
C1    C54   A    
C17   C43   S    
C47   C70   A    
C13   C33   A    
C37   C38   A    
C69   C83   A    
Cu1   O1    S    
Cu5   O9    S    
C10   C30   A    
C20   C42   S    
C21   C39   S    
C94   C100  A    
C66   H27   S    
Cu3   O7    S    
C71   C84   A    
Cu2   O6    S    
C49   C74   A    
C6    C50   A    
C4    C11   A    
C18   O2    A    
C26   C58   A    
C42   C61   A    
C53   H17   S    
C67   C100  A    
Cu1   O17   S    
C5    C97   A    
C26   C30   A    
C27   O12   A    
C21   O11   A    
C8    C28   A    
C52   C92   A    
C53   C76   A    
C22   O13   A    
C16   C46   S    
C52   C77   A    
Cu1   O4    S    
Cu5   O20   S    
C24   O15   A    
C91   H2    S    
C29   C70   A    
C26   C36   A    
C48   C56   A    
C64   H25   S    
C56   C73   A    
C25   O1    A    
C25   O16   A    
C24   O19   A    
C12   C98   A    
C79   C97   A    
C85   H8    S    
C67   C80   A    
C82   H5    S    
C55   H19   S    
C18   O8    A    
C2    C53   A    
Cu1   O5    S    
C55   C67   A    
Cu6   O22   S    
Cu4   O24   S    
C78   C91   A    
C9    C100  A    
Cu4   O19   S    
C83   C91   A    
Cu3   Cu4   S    
C39   C65   A    
C45   C64   A    
C95   C101  A    
C43   C92   A    
Cu4   O8    S    
C46   C63   A    
C11   C97   A    
C68   C82   A    
C14   O5    A    
C51   C78   A    
C7    C51   A    
C5    C10   A    
C5    C71   A    
Cu3   O2    S    
C52   H16   S    
C72   C102  A    
C60   C69   A    
C58   H22   S    
C43   C66   A    
C82   C88   A    
C20   O23   A    
C77   C99   A    
C35   C62   A    
C84   C93   A    
C56   H20   S    
C57   C72   A    
C3    C73   A    
C73   C86   A    
C37   C60   A    
C17   O24   A    
C47   C75   A    
Cu6   O11   S    
C3    C99   A    
C75   C88   A    
Cu3   O18   S    
C23   C36   S    
Cu1   Cu2   S    
C40   C59   A    
Cu2   O3    S    
C41   C70   A    
C76   C89   A    
Cu2   O16   S    
C13   C102  A    
C76   C98   A    
C19   C41   S    
C39   C48   A    
Cu6   O10   S    
