data_mof_unit_15876.cif
_audit_creation_date              2012-12-10T20:36:33-0500
_audit_creation_method            fapswitch 2.2
_symmetry_space_group_name_H-M    P1
_symmetry_Int_Tables_number       1
_space_group_crystal_system       triclinic
_cell_length_a                    10.564413
_cell_length_b                    10.682252
_cell_length_c                    9.881123
_cell_angle_alpha                 90.226226
_cell_angle_beta                  89.824478
_cell_angle_gamma                 90.746374
_cell_volume                      1114.99338286

loop_
_atom_site_label
_atom_site_type_symbol
_atom_type_description
_atom_site_fract_x
_atom_site_fract_y
_atom_site_fract_z
_atom_type_partial_charge
C1    C     C_R   0.499343 0.260206 0.499567 0.902027
C2    C     C_3   0.962823 0.605144 0.435644 -0.097878
C3    C     C_3   0.041603 0.499755 0.371398 -0.223951
C4    C     C_3   0.122329 0.497902 0.500809 -0.127488
C5    C     C_R   0.430088 0.063474 0.600230 0.231601
C6    C     C_R   0.490316 0.128270 0.495970 -0.096046
C7    C     C_R   0.533837 0.064330 0.381293 -0.286082
C8    C     C_R   0.533435 0.935458 0.381311 -0.186525
C9    C     C_R   0.490284 0.871444 0.496435 -0.100843
C10   C     C_R   0.429801 0.935555 0.600429 0.129109
C11   C     C_3   0.446604 0.929652 0.750247 -0.497494
C12   C     C_R   0.257353 0.498470 0.500165 1.007019
C13   C     C_3   0.446606 0.071672 0.749990 -0.494601
C14   C     C_R   0.425776 0.416828 0.071241 0.085793
C15   C     C_R   0.581776 0.573919 0.072751 -0.282137
C16   C     C_R   0.581245 0.576753 0.926690 0.597072
C17   C     C_R   0.426619 0.416236 0.928423 0.038135
C18   C     C_3   0.286659 0.407552 0.919151 -0.550112
C19   C     C_3   0.283409 0.412299 0.072576 0.351539
C20   C     C_R   0.499313 0.739771 0.499866 0.928676
C21   C     C_R   0.742416 0.502694 0.499984 0.967201
C22   C     C_3   0.035951 0.397182 0.564904 -0.096484
C23   C     C_3   0.953674 0.398805 0.436136 -0.259613
C24   C     C_3   0.877062 0.504804 0.500207 -0.133846
C25   C     C_3   0.958650 0.502688 0.628911 0.420173
C26   C     C_3   0.043956 0.603415 0.564125 0.384123
H1    H     H_    0.912253 0.315976 0.383425 0.170226
H2    H     H_    0.539197 0.890300 0.779299 0.229526
H3    H     H_    0.362126 0.111703 0.800244 0.222028
H4    H     H_    0.538938 0.114330 0.780145 0.204758
H5    H     H_    0.645728 0.632000 0.131398 0.193626
H6    H     H_    0.248008 0.492402 0.871214 0.187151
H7    H     H_    0.253818 0.317590 0.874226 0.238103
H8    H     H_    0.243489 0.501557 0.110558 0.087439
H9    H     H_    0.076818 0.498103 0.265760 0.182618
H10   H     H_    0.575198 0.113263 0.295711 0.169337
H11   H     H_    0.574122 0.886784 0.295449 0.192114
H12   H     H_    0.362789 0.887601 0.801998 0.216733
N1    N     N_R   0.499140 0.499140 0.142800 -0.145879
N2    N     N_R   0.499140 0.499180 0.857150 -0.138795
O1    O     O_R   0.500020 0.316790 0.614690 -0.611667
O2    O     O_R   0.500000 0.316760 0.385350 -0.638000
O3    O     O_R   0.313960 0.499990 0.614650 -0.600223
O4    O     O_R   0.313940 0.499950 0.385310 -0.633630
O5    O     O_R   0.500000 0.683240 0.614650 -0.589196
O6    O     O_R   0.499980 0.683210 0.385310 -0.625600
O7    O     O_R   0.686060 0.500050 0.614690 -0.546268
O8    O     O_R   0.686040 0.500010 0.385350 -0.606226
Zn1   Zn    Zn3+2 0.500010 0.500020 0.653130 1.032213
Zn2   Zn    Zn3+2 0.499990 0.499980 0.346870 0.966926
O9    O     O_3   0.661117 0.653443 0.849511 -0.543559
C27   C     C_3   0.718004 0.752331 0.923499 -0.357384
H13   H     H_    0.760600 0.819789 0.851060 0.179661
H14   H     H_    0.795679 0.716933 0.987936 0.181878
H15   H     H_    0.647320 0.805132 0.984058 0.144327
O10   O     O_3   0.221416 0.307041 0.133365 -0.588772
C28   C     C_3   0.292967 0.196173 0.131223 -0.232179
H16   H     H_    0.375135 0.204436 0.199962 0.190395
H17   H     H_    0.324720 0.171148 0.027732 0.133104
H18   H     H_    0.232404 0.118038 0.168677 0.179468
C29   C     C_2   0.074976 0.277913 0.630980 0.370714
H19   H     H_    0.004540 0.220045 0.681765 0.066989
O11   O     O_2   0.184832 0.244470 0.626713 -0.601884
O12   O     O_3   0.896990 0.506114 0.756005 -0.569896
C30   C     C_3   0.985617 0.503306 0.861126 -0.301607
H20   H     H_    0.934380 0.513164 0.958657 0.191313
H21   H     H_    0.053872 0.582909 0.854387 0.183136
H22   H     H_    0.033642 0.411767 0.863345 0.168109
O13   O     O_3   0.104709 0.704785 0.630533 -0.628315
C31   C     C_3   0.015194 0.795841 0.666085 -0.318514
H23   H     H_    0.925393 0.754446 0.705546 0.201617
H24   H     H_    0.995743 0.857085 0.578349 0.178888
H25   H     H_    0.055891 0.855774 0.747350 0.182198
C32   C     C_2   0.923356 0.719216 0.359569 0.360869
H26   H     H_    0.994968 0.779030 0.313446 0.065173
O14   O     O_2   0.811861 0.745783 0.349406 -0.602413

loop_
_geom_bond_atom_site_label_1
_geom_bond_atom_site_label_2
_ccdc_geom_bond_type
C19   O10   S    
C7    H10   S    
C3    C23   S    
C16   O9    S    
C7    C8    A    
O7    Zn1   S    
C32   O14   D    
C13   H3    S    
C12   O3    A    
C5    C6    A    
C28   H17   S    
N2    Zn1   S    
O10   C28   S    
C18   C19   S    
C29   O11   D    
C14   N1    A    
C8    C9    A    
C30   H21   S    
C22   C25   S    
C23   C24   S    
C31   H23   S    
C23   H1    S    
C4    C12   S    
C9    C10   A    
C5    C13   S    
C20   O5    A    
C2    C32   S    
C27   H15   S    
C21   O8    A    
O8    Zn2   S    
C14   C17   A    
C29   H19   S    
O1    Zn1   S    
C27   H14   S    
C32   H26   S    
O9    C27   S    
C13   H4    S    
C24   C25   S    
O3    Zn1   S    
C28   H18   S    
C25   C26   S    
C1    C6    S    
C17   N2    A    
C11   H12   S    
C4    C22   S    
C3    H9    S    
C9    C20   S    
O5    Zn1   S    
C30   H22   S    
C31   H25   S    
C17   C18   S    
C2    C26   S    
C15   N1    A    
O2    Zn2   S    
C1    O1    A    
C16   N2    A    
C2    C24   S    
C18   H6    S    
C8    H11   S    
C3    C4    S    
C27   H13   S    
O4    Zn2   S    
C14   C19   S    
C19   H8    S    
C4    C26   S    
C15   H5    S    
C6    C7    A    
O6    Zn2   S    
O12   C30   S    
C2    C3    S    
C5    C10   A    
C12   O4    A    
C22   C29   S    
C11   C13   S    
C28   H16   S    
C11   H2    S    
O13   C31   S    
C18   H7    S    
C10   C11   S    
C1    O2    A    
N1    Zn2   S    
C30   H20   S    
C21   C24   S    
C26   O13   S    
C22   C23   S    
C31   H24   S    
C25   O12   S    
C20   O6    A    
C15   C16   A    
C21   O7    A    
