data_mof_unit_7938.cif
_audit_creation_date              2012-12-10T16:49:24-0500
_audit_creation_method            fapswitch 2.2
_symmetry_space_group_name_H-M    P1
_symmetry_Int_Tables_number       1
_space_group_crystal_system       triclinic
_cell_length_a                    7.812526
_cell_length_b                    8.562068
_cell_length_c                    12.796048
_cell_angle_alpha                 89.22668
_cell_angle_beta                  87.33262
_cell_angle_gamma                 93.173854
_cell_volume                      853.595559482

loop_
_atom_site_label
_atom_site_type_symbol
_atom_type_description
_atom_site_fract_x
_atom_site_fract_y
_atom_site_fract_z
_atom_type_partial_charge
C1    C     C_R   0.455235 0.205633 0.497345 0.956270
C2    C     C_R   0.679140 0.393145 0.140993 0.467368
C3    C     C_R   0.554174 0.429086 0.869429 -0.325727
C4    C     C_R   0.445825 0.570912 0.130571 -0.325729
C5    C     C_R   0.557243 0.449487 0.975616 0.121158
C6    C     C_R   0.442756 0.550512 0.024384 0.121152
C7    C     C_2   0.431559 0.042288 0.495781 -0.342915
C8    C     C_2   0.568441 0.957712 0.504219 -0.342916
C9    C     C_3   0.956249 0.344643 0.176415 0.097877
C10   C     C_3   0.065557 0.256275 0.249948 -0.677368
C11   C     C_3   0.043756 0.655346 0.823575 0.097877
C12   C     C_R   0.544765 0.794367 0.502655 0.956270
C13   C     C_3   0.934449 0.743733 0.750052 -0.677377
C14   C     C_R   0.465017 0.504295 0.699623 0.908328
C15   C     C_R   0.534983 0.495705 0.300376 0.908329
C16   C     C_R   0.558360 0.488914 0.188929 -0.141680
C17   C     C_R   0.441639 0.511085 0.811071 -0.141685
C18   C     C_R   0.325187 0.628325 0.966724 -0.320375
C19   C     C_R   0.674812 0.371675 0.033276 -0.320385
C20   C     C_R   0.320861 0.606855 0.859007 0.467360
Cl1   Cl    Cl    0.980793 0.671359 0.382446 -0.546338
Cl2   Cl    Cl    0.019207 0.328639 0.617553 -0.546346
H1    H     H_    0.356146 0.646956 0.168663 0.192440
H2    H     H_    0.203626 0.285224 0.230213 0.201931
H3    H     H_    0.035651 0.288849 0.332170 0.272103
H4    H     H_    0.006420 0.688408 0.904886 0.123708
H5    H     H_    0.014838 0.527531 0.814139 0.173968
H6    H     H_    0.964370 0.711193 0.667825 0.272099
H7    H     H_    0.796380 0.714768 0.769776 0.201939
H8    H     H_    0.960418 0.871768 0.758018 0.247814
H9    H     H_    0.643852 0.353042 0.831337 0.192438
H10   H     H_    0.241131 0.708887 0.004833 0.153133
H11   H     H_    0.758868 0.291112 0.995166 0.153129
H12   H     H_    0.301893 0.992155 0.487690 0.209068
H13   H     H_    0.698107 0.007844 0.512310 0.209068
H14   H     H_    0.985176 0.472461 0.185832 0.173950
H15   H     H_    0.993575 0.311551 0.095109 0.123714
H16   H     H_    0.039575 0.128237 0.242006 0.247817
N1    N     N_2   0.054030 0.541640 0.471970 0.122178
N2    N     N_2   0.945970 0.458360 0.528030 0.122183
O1    O     O_R   0.609680 0.261530 0.506880 -0.596109
O2    O     O_3   0.218867 0.696030 0.798678 -0.598374
O3    O     O_R   0.390320 0.738470 0.493120 -0.596110
O4    O     O_R   0.323330 0.288220 0.488910 -0.593342
O5    O     O_R   0.676670 0.711780 0.511090 -0.593342
O6    O     O_R   0.619510 0.488830 0.661140 -0.630406
O7    O     O_R   0.380490 0.511170 0.338860 -0.630406
O8    O     O_R   0.333160 0.515520 0.643180 -0.545375
O9    O     O_R   0.666840 0.484480 0.356820 -0.545368
O10   O     O_3   0.781137 0.303974 0.201323 -0.598372
Zn1   Zn    Zn3+2 0.691200 0.482180 0.511990 1.070689
Zn2   Zn    Zn3+2 0.308800 0.517820 0.488010 1.070685

loop_
_geom_bond_atom_site_label_1
_geom_bond_atom_site_label_2
_ccdc_geom_bond_type
C4    C16   A    
C9    H14   S    
C20   O2    S    
C13   H6    S    
O7    Zn2   S    
C5    C19   A    
C11   H5    S    
C8    C12   S    
N2    Zn1   S    
C2    C16   A    
C9    C10   S    
C1    O4    A    
Cl1   N1    S    
C15   O7    A    
C10   H16   S    
Cl2   N2    S    
O4    Zn2   S    
C9    H15   S    
N1    Zn2   S    
C7    C8    D    
C14   O6    A    
C3    H9    S    
C11   C13   S    
C14   C17   S    
C10   H3    S    
C13   H7    S    
C3    C17   A    
C12   O3    A    
C18   C20   A    
C15   O9    A    
C5    C6    A    
C6    C18   A    
C7    H12   S    
O3    Zn2   S    
C18   H10   S    
O5    Zn1   S    
C15   C16   S    
C3    C5    A    
C13   H8    S    
O8    Zn2   S    
C17   C20   A    
C11   O2    S    
C4    C6    A    
C19   H11   S    
C1    O1    A    
N1    N2    D    
C4    H1    S    
C14   O8    A    
C2    O10   S    
C11   H4    S    
C10   H2    S    
C2    C19   A    
C1    C7    S    
O6    Zn1   S    
O1    Zn1   S    
C9    O10   S    
C12   O5    A    
O9    Zn1   S    
C8    H13   S    
