data_mof_unit_12479.cif
_audit_creation_date              2013-03-05T15:50:12-0500
_audit_creation_method            fapswitch 2.2
_symmetry_space_group_name_H-M    P1
_symmetry_Int_Tables_number       1
_space_group_crystal_system       triclinic
_cell_length_a                    18.374458
_cell_length_b                    25.91889
_cell_length_c                    18.217801
_cell_angle_alpha                 90.011552
_cell_angle_beta                  90.028122
_cell_angle_gamma                 90.038543
_cell_volume                      8676.143576

loop_
_atom_site_label
_atom_site_type_symbol
_atom_site_description
_atom_site_fract_x
_atom_site_fract_y
_atom_site_fract_z
_atom_type_partial_charge
Zn1   Zn    Zn3+2 0.249990 0.293780 0.913250 0.993472
Zn2   Zn    Zn3+2 0.249990 0.706220 0.086750 1.009376
Zn3   Zn    Zn3+2 0.249990 0.706220 0.913250 1.008904
Zn4   Zn    Zn3+2 0.249990 0.293780 0.086750 1.040730
Zn5   Zn    Zn3+2 0.749990 0.793780 0.413250 1.008585
Zn6   Zn    Zn3+2 0.749990 0.206220 0.586750 1.021437
Zn7   Zn    Zn3+2 0.749990 0.206220 0.413250 1.009480
Zn8   Zn    Zn3+2 0.749990 0.793780 0.586750 1.010735
Zn9   Zn    Zn3+2 0.336760 0.206240 0.000000 0.975677
Zn10  Zn    Zn3+2 0.336760 0.793760 0.000000 1.010038
Zn11  Zn    Zn3+2 0.836760 0.706240 0.500000 1.009179
Zn12  Zn    Zn3+2 0.836760 0.293760 0.500000 1.005918
Zn13  Zn    Zn3+2 0.163250 0.206230 0.000000 1.078299
Zn14  Zn    Zn3+2 0.163250 0.793770 0.000000 1.040466
Zn15  Zn    Zn3+2 0.663250 0.706230 0.500000 1.039844
Zn16  Zn    Zn3+2 0.663250 0.293770 0.500000 1.047972
O1    O     O_3   0.249990 0.250010 0.000000 -0.502651
O2    O     O_3   0.249990 0.749990 0.000000 -0.501540
O3    O     O_3   0.749990 0.750010 0.500000 -0.501479
O4    O     O_3   0.749990 0.249990 0.500000 -0.499851
O5    O     O_R   0.335430 0.280650 0.146160 -0.610912
O6    O     O_R   0.335430 0.719350 0.853840 -0.605108
O7    O     O_R   0.335430 0.719350 0.146160 -0.606129
O8    O     O_R   0.335430 0.280650 0.853840 -0.650079
O9    O     O_R   0.835430 0.780650 0.646160 -0.604457
O10   O     O_R   0.835430 0.219350 0.353840 -0.603653
O11   O     O_R   0.835430 0.219350 0.646160 -0.584264
O12   O     O_R   0.835430 0.780650 0.353840 -0.605868
O13   O     O_R   0.164550 0.280640 0.853840 -0.632859
O14   O     O_R   0.164550 0.719360 0.146160 -0.604981
O15   O     O_R   0.164550 0.719360 0.853840 -0.596203
O16   O     O_R   0.164550 0.280640 0.146160 -0.612450
O17   O     O_R   0.664550 0.780640 0.353840 -0.604844
O18   O     O_R   0.664550 0.219360 0.646160 -0.605434
O19   O     O_R   0.664550 0.219360 0.353840 -0.603296
O20   O     O_R   0.664550 0.780640 0.646160 -0.595640
O21   O     O_R   0.396160 0.219380 0.914560 -0.635375
O22   O     O_R   0.396160 0.780620 0.085440 -0.646599
O23   O     O_R   0.396160 0.780620 0.914560 -0.641776
O24   O     O_R   0.396160 0.219380 0.085440 -0.645212
O25   O     O_R   0.896160 0.719380 0.414560 -0.646831
O26   O     O_R   0.896160 0.280620 0.585440 -0.653667
O27   O     O_R   0.896160 0.280620 0.414560 -0.650142
O28   O     O_R   0.896160 0.719380 0.585440 -0.642473
O29   O     O_R   0.103840 0.219370 0.085450 -0.587093
O30   O     O_R   0.103840 0.780630 0.914550 -0.651168
O31   O     O_R   0.103840 0.780630 0.085450 -0.626650
O32   O     O_R   0.103840 0.219370 0.914550 -0.606549
O33   O     O_R   0.603840 0.719370 0.585450 -0.651502
O34   O     O_R   0.603840 0.280630 0.414550 -0.631319
O35   O     O_R   0.603840 0.280630 0.585450 -0.638163
O36   O     O_R   0.603840 0.719370 0.414550 -0.626975
O37   O     O_R   0.310730 0.133160 0.000000 -0.656767
O38   O     O_R   0.310730 0.866840 0.000000 -0.647714
O39   O     O_R   0.810730 0.633160 0.500000 -0.648108
O40   O     O_R   0.810730 0.366840 0.500000 -0.651281
O41   O     O_R   0.249970 0.366860 0.060720 -0.655397
O42   O     O_R   0.249970 0.633140 0.939280 -0.658227
O43   O     O_R   0.249970 0.633140 0.060720 -0.655289
O44   O     O_R   0.249970 0.366860 0.939280 -0.627073
O45   O     O_R   0.749970 0.866860 0.560720 -0.654608
O46   O     O_R   0.749970 0.133140 0.439280 -0.659271
O47   O     O_R   0.749970 0.133140 0.560720 -0.654245
O48   O     O_R   0.749970 0.866860 0.439280 -0.658705
O49   O     O_R   0.189290 0.133150 0.000000 -0.618705
O50   O     O_R   0.189290 0.866850 0.000000 -0.617719
O51   O     O_R   0.689290 0.633150 0.500000 -0.617995
O52   O     O_R   0.689290 0.366850 0.500000 -0.608301
C1    C     C_R   0.389469 0.249901 0.140098 0.802590
C2    C     C_R   0.389575 0.749979 0.859949 0.805847
C3    C     C_R   0.389503 0.750063 0.140081 0.805950
C4    C     C_R   0.389237 0.249807 0.859751 0.765323
C5    C     C_R   0.889561 0.750040 0.640039 0.805740
C6    C     C_R   0.889543 0.249975 0.359954 0.804436
C7    C     C_R   0.889785 0.249988 0.639803 0.822281
C8    C     C_R   0.889487 0.749943 0.359902 0.806515
C9    C     C_R   0.109789 0.250498 0.860624 0.864207
C10   C     C_R   0.110978 0.750494 0.140589 0.871409
C11   C     C_R   0.111565 0.750856 0.858840 0.847501
C12   C     C_R   0.110919 0.249611 0.140573 0.907521
C13   C     C_R   0.611002 0.749458 0.359393 0.871739
C14   C     C_R   0.611394 0.250869 0.641100 0.870499
C15   C     C_R   0.611053 0.250569 0.359350 0.867876
C16   C     C_R   0.611573 0.749107 0.641189 0.847346
C17   C     C_R   0.250087 0.109421 0.000288 0.825248
C18   C     C_R   0.249879 0.890695 0.999727 0.861080
C19   C     C_R   0.749857 0.609341 0.500258 0.859163
C20   C     C_R   0.750111 0.390616 0.499626 0.855357
C21   C     C_R   0.249898 0.391459 0.999923 0.792811
C22   C     C_R   0.249925 0.608546 0.999908 0.718534
C23   C     C_R   0.750018 0.891455 0.499912 0.718191
C24   C     C_R   0.750024 0.108542 0.499902 0.717759
C25   C     C_3   0.318989 0.470178 0.038372 -0.410782
C26   C     C_3   0.181829 0.529866 0.040291 -0.410580
C27   C     C_3   0.319012 0.529907 0.038364 -0.385657
C28   C     C_3   0.181811 0.470141 0.040322 -0.374107
C29   C     C_3   0.681426 0.970102 0.539170 -0.394846
C30   C     C_3   0.750191 0.029653 0.419733 -0.376050
C31   C     C_3   0.681430 0.029823 0.539158 -0.393035
C32   C     C_3   0.750184 0.970314 0.419741 -0.376150
H1    H     H_    0.368560 0.455803 0.009872 0.149872
H2    H     H_    0.131465 0.544234 0.013185 0.151338
H3    H     H_    0.368596 0.544306 0.009864 0.146535
H4    H     H_    0.131419 0.455788 0.013259 0.195315
H5    H     H_    0.679869 0.955900 0.596798 0.187780
H6    H     H_    0.799115 0.043818 0.389827 0.181917
H7    H     H_    0.679877 0.044044 0.596782 0.187438
H8    H     H_    0.799100 0.956180 0.389831 0.181864
H9    H     H_    0.321293 0.455970 0.095972 0.187390
H10   H     H_    0.181169 0.544092 0.097931 0.188526
H11   H     H_    0.321319 0.544141 0.095960 0.186591
H12   H     H_    0.181139 0.455939 0.097965 0.182103
H13   H     H_    0.631484 0.955683 0.511279 0.147816
H14   H     H_    0.701361 0.043771 0.389628 0.181221
H15   H     H_    0.631493 0.044177 0.511250 0.149452
H16   H     H_    0.701346 0.956145 0.389642 0.180782
H17   H     H_    0.165704 0.906025 0.887315 0.189739
H18   H     H_    0.182086 0.095535 0.878687 0.124649
H19   H     H_    0.827053 0.405248 0.382724 0.165391
H20   H     H_    0.824813 0.595274 0.382210 0.166221
H21   H     H_    0.297035 0.456180 0.889062 0.176154
H22   H     H_    0.199416 0.543806 0.890465 0.182703
H23   H     H_    0.297161 0.543783 0.889088 0.180781
H24   H     H_    0.199291 0.456152 0.890544 0.199090
H25   H     H_    0.820053 0.955961 0.597045 0.186780
H26   H     H_    0.868644 0.044302 0.511670 0.147004
H27   H     H_    0.820062 0.044124 0.597028 0.187451
H28   H     H_    0.868641 0.955787 0.511695 0.146854
C33   C     C_3   0.248633 0.470320 0.919799 -0.373050
C34   C     C_3   0.248698 0.529656 0.919781 -0.377977
C35   C     C_3   0.818633 0.970164 0.539414 -0.396205
C36   C     C_3   0.818638 0.029897 0.539401 -0.394624
C37   C     C_3   0.249824 0.449193 0.999628 0.176240
C38   C     C_3   0.249865 0.550822 0.999603 0.203846
C39   C     C_3   0.750070 0.949180 0.499585 0.201616
C40   C     C_3   0.750075 0.050809 0.499570 0.200464
H29   H     H_    0.154756 0.109419 0.690718 0.124330
H30   H     H_    0.948809 0.605382 0.098442 0.129241
H31   H     H_    0.954094 0.602069 0.896409 0.130964
H32   H     H_    0.955625 0.399140 0.105516 0.147382
H33   H     H_    0.447539 0.893363 0.403268 0.127661
H34   H     H_    0.395827 0.166791 0.543274 0.136856
H35   H     H_    0.444164 0.108998 0.406424 0.126162
H36   H     H_    0.452666 0.896734 0.601755 0.129660
C41   C     C_R   0.993360 0.329284 0.861830 0.361274
C42   C     C_R   0.110311 0.829716 0.257839 0.357757
C43   C     C_R   0.115912 0.824713 0.734980 0.333544
C44   C     C_R   0.107926 0.168670 0.255329 0.353777
C45   C     C_R   0.610721 0.670631 0.241609 0.356950
C46   C     C_R   0.639834 0.294558 0.790298 0.346033
C47   C     C_R   0.613208 0.327574 0.239123 0.358668
C48   C     C_R   0.616488 0.675877 0.765840 0.332722
C49   C     C_R   0.944134 0.370071 0.854020 -0.196550
C50   C     C_R   0.102041 0.870381 0.307649 -0.166432
C51   C     C_R   0.107115 0.866533 0.687111 -0.197204
C52   C     C_R   0.098173 0.127183 0.303465 -0.165623
C53   C     C_R   0.602721 0.630210 0.191331 -0.165511
C54   C     C_R   0.648704 0.316917 0.859625 -0.172297
C55   C     C_R   0.606849 0.366985 0.187055 -0.164102
C56   C     C_R   0.608083 0.634326 0.814254 -0.195291
C57   C     C_R   0.544111 0.628841 0.143573 -0.213677
C58   C     C_R   0.591689 0.318719 0.909017 -0.215014
C59   C     C_R   0.548544 0.368263 0.138917 -0.228624
C60   C     C_R   0.545995 0.629681 0.856899 -0.218233
C61   C     C_R   0.897331 0.372177 0.794510 -0.206788
C62   C     C_R   0.043363 0.871800 0.355253 -0.214804
C63   C     C_R   0.044876 0.871195 0.644643 -0.217893
C64   C     C_R   0.039343 0.125771 0.350878 -0.220076
C65   C     C_R   0.492992 0.668196 0.144577 -0.147472
C66   C     C_R   0.525077 0.297313 0.890526 -0.143243
C67   C     C_R   0.496003 0.329850 0.141427 -0.152563
C68   C     C_R   0.492579 0.667471 0.853884 -0.146629
C69   C     C_R   0.897877 0.332997 0.742629 -0.058954
C70   C     C_R   0.992453 0.832255 0.354570 -0.147221
C71   C     C_R   0.991741 0.833139 0.647217 -0.145711
C72   C     C_R   0.989762 0.166106 0.351669 -0.151787
C73   C     C_R   0.497811 0.709094 0.195942 0.048158
C74   C     C_R   0.513719 0.273631 0.821300 0.049827
C75   C     C_R   0.499264 0.289954 0.194453 0.051653
C76   C     C_R   0.498131 0.709293 0.804225 0.051979
C77   C     C_R   0.947288 0.291277 0.747888 0.041767
C78   C     C_R   0.997516 0.791118 0.303632 0.047917
C79   C     C_R   0.997707 0.791018 0.696315 0.051424
C80   C     C_R   0.996189 0.208048 0.302245 0.052257
C81   C     C_R   0.998379 0.290237 0.806195 -0.054387
C82   C     C_R   0.055699 0.790303 0.252502 -0.049101
C83   C     C_R   0.057830 0.788531 0.744831 -0.045370
C84   C     C_R   0.054480 0.208894 0.251253 -0.048879
C85   C     C_R   0.555944 0.709865 0.247179 -0.049615
C86   C     C_R   0.570890 0.272972 0.768906 -0.063077
C87   C     C_R   0.557251 0.289225 0.245874 -0.050527
C88   C     C_R   0.558162 0.711765 0.755621 -0.045880
C89   C     C_R   0.445934 0.749349 0.196017 -0.124999
C90   C     C_R   0.445823 0.251031 0.804141 -0.116195
C91   C     C_R   0.446024 0.250579 0.195906 -0.125510
C92   C     C_R   0.445986 0.749327 0.803971 -0.123433
C93   C     C_R   0.945924 0.250650 0.696048 -0.121517
C94   C     C_R   0.945876 0.750656 0.303918 -0.125302
C95   C     C_R   0.945938 0.750689 0.696060 -0.122910
C96   C     C_R   0.945788 0.249234 0.303859 -0.121502
C97   C     C_R   0.447827 0.788887 0.249186 0.067464
C98   C     C_R   0.432082 0.229022 0.734758 0.078390
C99   C     C_R   0.446970 0.211666 0.249998 0.065786
C100  C     C_R   0.449298 0.789706 0.752133 0.053506
C101  C     C_R   0.999332 0.211636 0.696331 0.075983
C102  C     C_R   0.948077 0.710845 0.251166 0.068330
C103  C     C_R   0.949672 0.709980 0.747345 0.054262
C104  C     C_R   0.949273 0.289871 0.252517 0.071139
C105  C     C_R   0.054174 0.212485 0.750466 0.080735
C106  C     C_R   0.002770 0.711423 0.196947 0.071912
C107  C     C_R   0.004010 0.710807 0.801960 0.077112
C108  C     C_R   0.004878 0.289958 0.199273 0.052382
C109  C     C_R   0.502457 0.788234 0.303495 0.072079
C110  C     C_R   0.487565 0.229054 0.681363 0.071500
C111  C     C_R   0.501416 0.212487 0.304490 0.074752
C112  C     C_R   0.503622 0.788850 0.697544 0.077753
C113  C     C_R   0.052718 0.251033 0.805581 -0.151903
C114  C     C_R   0.056333 0.750709 0.198132 -0.152455
C115  C     C_R   0.057295 0.750235 0.800843 -0.140039
C116  C     C_R   0.056626 0.249497 0.198497 -0.163000
C117  C     C_R   0.556310 0.749214 0.301908 -0.152640
C118  C     C_R   0.556309 0.250983 0.698349 -0.166560
C119  C     C_R   0.556327 0.250784 0.301888 -0.153367
C120  C     C_R   0.557269 0.749727 0.699140 -0.140589
C121  C     C_R   0.394802 0.828516 0.250611 -0.101326
C122  C     C_R   0.363939 0.206225 0.717724 -0.150440
C123  C     C_R   0.393423 0.172354 0.251900 -0.100775
C124  C     C_R   0.398314 0.830582 0.752629 -0.077085
C125  C     C_R   0.000704 0.172593 0.641856 -0.149250
C126  C     C_R   0.895289 0.671001 0.250056 -0.101886
C127  C     C_R   0.899079 0.668809 0.746305 -0.076842
C128  C     C_R   0.896805 0.329892 0.251755 -0.099809
C129  C     C_R   0.394441 0.865406 0.306209 -0.132296
C130  C     C_R   0.351135 0.184267 0.649146 -0.133596
C131  C     C_R   0.392292 0.136007 0.308189 -0.131681
C132  C     C_R   0.399686 0.868777 0.698865 -0.099566
C133  C     C_R   0.056184 0.136016 0.640300 -0.130878
C134  C     C_R   0.895312 0.633741 0.194958 -0.133764
C135  C     C_R   0.900843 0.630292 0.799588 -0.100399
C136  C     C_R   0.898436 0.368234 0.198237 -0.156731
C137  C     C_R   0.111128 0.137432 0.692645 -0.158530
C138  C     C_R   0.948741 0.634463 0.141110 -0.145708
C139  C     C_R   0.952983 0.631865 0.854784 -0.157413
C140  C     C_R   0.953815 0.368901 0.146468 -0.125539
C141  C     C_R   0.447774 0.864574 0.360201 -0.146690
C142  C     C_R   0.405693 0.184132 0.596439 -0.131597
C143  C     C_R   0.445110 0.137269 0.362697 -0.161246
C144  C     C_R   0.451841 0.867181 0.643737 -0.158479
C145  C     C_R   0.110139 0.174835 0.747580 -0.155336
C146  C     C_R   0.002195 0.672592 0.141975 -0.147925
C147  C     C_R   0.004223 0.671513 0.856196 -0.145954
C148  C     C_R   0.006943 0.330620 0.147147 -0.090108
C149  C     C_R   0.501532 0.826718 0.358956 -0.147741
C150  C     C_R   0.473244 0.205981 0.612090 -0.151648
C151  C     C_R   0.499410 0.174784 0.360977 -0.151986
C152  C     C_R   0.503466 0.827828 0.642849 -0.145715
H37   H     H_    0.940708 0.399706 0.895813 0.162617
H38   H     H_    0.143105 0.900286 0.311279 0.164317
H39   H     H_    0.150545 0.894362 0.680003 0.167841
H40   H     H_    0.138324 0.096654 0.306154 0.164742
H41   H     H_    0.643910 0.600445 0.187519 0.164939
H42   H     H_    0.700829 0.333094 0.875331 0.169238
H43   H     H_    0.649027 0.396014 0.182269 0.163812
H44   H     H_    0.651706 0.606719 0.821627 0.169060
H45   H     H_    0.539243 0.597762 0.104145 0.148705
H46   H     H_    0.599299 0.336439 0.962313 0.162146
H47   H     H_    0.544945 0.398533 0.098129 0.147759
H48   H     H_    0.540771 0.597883 0.895072 0.147692
H49   H     H_    0.859058 0.403726 0.789467 0.165385
H50   H     H_    0.038309 0.903058 0.394355 0.147328
H51   H     H_    0.039333 0.903221 0.606906 0.146950
H52   H     H_    0.033217 0.093898 0.388792 0.146462
H53   H     H_    0.449495 0.665923 0.104664 0.124382
H54   H     H_    0.482500 0.299809 0.931376 0.128408
H55   H     H_    0.452698 0.331997 0.101282 0.120281
H56   H     H_    0.446993 0.663418 0.890992 0.125338
H57   H     H_    0.859280 0.336079 0.698079 0.183465
H58   H     H_    0.948936 0.834567 0.394404 0.124686
H59   H     H_    0.946063 0.837223 0.610200 0.126010
H60   H     H_    0.946190 0.163747 0.391428 0.125499
H61   H     H_    0.352724 0.831118 0.209333 0.173714
H62   H     H_    0.319912 0.204922 0.757107 0.118252
H63   H     H_    0.351714 0.169470 0.210276 0.173878
H64   H     H_    0.357107 0.833407 0.794597 0.188572
H65   H     H_    0.959746 0.170384 0.599259 0.105041
H66   H     H_    0.853099 0.668503 0.291193 0.173645
H67   H     H_    0.857872 0.665992 0.704287 0.187931
H68   H     H_    0.853478 0.331605 0.291744 0.176974
H69   H     H_    0.056890 0.106764 0.597878 0.125015
H70   H     H_    0.853584 0.604251 0.193973 0.146591
H71   H     H_    0.861440 0.599234 0.798144 0.155574
H72   H     H_    0.856655 0.397635 0.197079 0.149156
H73   H     H_    0.352469 0.894672 0.307497 0.145657
H74   H     H_    0.298761 0.167081 0.637028 0.136358
H75   H     H_    0.350148 0.106822 0.309575 0.145865
H76   H     H_    0.359978 0.899609 0.699896 0.155711
H77   H     H_    0.154120 0.174141 0.787083 0.094212
H78   H     H_    0.042498 0.671400 0.098726 0.104444
H79   H     H_    0.044014 0.670745 0.899982 0.108811
H80   H     H_    0.049174 0.333222 0.106038 0.174013
H81   H     H_    0.541770 0.827820 0.402313 0.103773
H82   H     H_    0.513985 0.204100 0.569337 0.110601
H83   H     H_    0.539342 0.173960 0.404635 0.100986
H84   H     H_    0.543263 0.828575 0.599103 0.108413
H85   H     H_    0.112844 0.048531 0.787577 0.144696
H86   H     H_    0.104700 0.953794 0.792182 0.145879
H87   H     H_    0.895277 0.547982 0.292984 0.140437
H88   H     H_    0.896764 0.453310 0.293511 0.140235
C153  C     C_R   0.324122 0.053595 0.114173 -0.078990
C154  C     C_R   0.324220 0.946490 0.113791 -0.082766
C155  C     C_R   0.671240 0.552809 0.611107 -0.100614
C156  C     C_R   0.677445 0.446032 0.614271 -0.126672
C157  C     C_R   0.361804 0.026727 0.168221 -0.155032
C158  C     C_R   0.361979 0.973305 0.167934 -0.153108
C159  C     C_R   0.636028 0.525782 0.666735 -0.135464
C160  C     C_R   0.639593 0.472433 0.668639 -0.141123
C161  C     C_R   0.287468 0.972934 0.056414 0.067012
C162  C     C_R   0.287584 0.027225 0.056543 0.070532
C163  C     C_R   0.712396 0.472628 0.555947 0.056100
C164  C     C_R   0.710530 0.526832 0.555071 0.055037
C165  C     C_R   0.249212 0.946450 0.000388 -0.164023
C166  C     C_R   0.250395 0.053850 0.000056 -0.148893
C167  C     C_R   0.750400 0.446252 0.499855 -0.164474
C168  C     C_R   0.749228 0.553649 0.499622 -0.162561
C169  C     C_R   0.210580 0.973280 0.944829 0.050537
C170  C     C_R   0.212980 0.027499 0.943562 0.070666
C171  C     C_R   0.788596 0.472961 0.444100 0.070852
C172  C     C_R   0.788132 0.527249 0.444082 0.071142
C173  C     C_R   0.170678 0.947324 0.889178 -0.098311
C174  C     C_R   0.178794 0.054136 0.884728 -0.136931
C175  C     C_R   0.826687 0.446739 0.387438 -0.087404
C176  C     C_R   0.825544 0.553807 0.387238 -0.084129
C177  C     C_R   0.135252 0.974359 0.833724 -0.126952
C178  C     C_R   0.139747 0.027659 0.831193 -0.152037
C179  C     C_R   0.865915 0.473780 0.334683 -0.154784
C180  C     C_R   0.865222 0.527169 0.334482 -0.154639
H89   H     H_    0.324167 0.095104 0.118780 0.168127
H90   H     H_    0.324142 0.904987 0.118330 0.166182
H91   H     H_    0.666911 0.594135 0.613311 0.190062
H92   H     H_    0.679251 0.404683 0.619308 0.192390
H93   H     H_    0.390697 0.047413 0.210758 0.140350
H94   H     H_    0.391118 0.952595 0.210188 0.139550
H95   H     H_    0.606335 0.546382 0.708818 0.147013
H96   H     H_    0.613071 0.451364 0.712433 0.149348
N1    N     N_R   0.032496 0.326439 0.929602 0.164887
O53   O     O_R   0.012853 0.292398 0.978191 -0.416092
O54   O     O_R   0.073163 0.365011 0.949927 -0.480328
N2    N     N_R   0.177682 0.827231 0.218776 0.161079
O55   O     O_R   0.225633 0.792953 0.238164 -0.423791
O56   O     O_R   0.198192 0.866255 0.178955 -0.461736
N3    N     N_R   0.187423 0.815862 0.763630 0.164926
O57   O     O_R   0.224072 0.854272 0.790789 -0.513076
O58   O     O_R   0.222780 0.775016 0.742458 -0.380263
N4    N     N_R   0.175811 0.171205 0.217149 0.156442
O59   O     O_R   0.196768 0.132252 0.177444 -0.460687
O60   O     O_R   0.223564 0.205479 0.237221 -0.433143
N5    N     N_R   0.677925 0.673016 0.281058 0.161088
O61   O     O_R   0.726106 0.707248 0.261974 -0.422982
O62   O     O_R   0.698121 0.633915 0.320877 -0.461373
N6    N     N_R   0.703198 0.292550 0.745163 0.177599
O63   O     O_R   0.757891 0.264398 0.766285 -0.386003
O64   O     O_R   0.713950 0.328470 0.696611 -0.509805
N7    N     N_R   0.679947 0.325181 0.279324 0.160166
O65   O     O_R   0.699942 0.364385 0.319105 -0.462577
O66   O     O_R   0.728162 0.290860 0.260820 -0.418925
N8    N     N_R   0.687858 0.684795 0.736922 0.165355
O67   O     O_R   0.724439 0.646383 0.709819 -0.512834
O68   O     O_R   0.723264 0.725711 0.757898 -0.378371

loop_
_geom_bond_atom_site_label_1
_geom_bond_atom_site_label_2
_geom_bond_distance
_ccdc_geom_bond_type
C53   H41   1.083331 S    
N5    O61   1.300483 A    
C87   C119  1.426434 A    
C94   C102  1.410547 A    
C62   H50   1.082769 S    
C109  C149  1.419752 A    
C148  H80   1.080763 S    
C172  C176  1.420975 A    
C149  H81   1.082017 S    
C99   C123  1.416383 A    
C41   N1    1.430430 S    
C75   C91   1.413491 A    
C177  C178  1.384657 A    
C97   C121  1.416446 A    
O26   C7    1.274841 A    
C73   C89   1.413713 A    
C66   C74   1.417775 A    
C130  H74   1.082793 S    
C99   C111  1.409172 A    
C4    C90   1.452391 S    
O30   C11   1.282847 A    
C22   C38   1.496156 S    
C30   H14   1.113448 S    
C91   C99   1.410325 A    
C136  C140  1.387860 A    
C89   C97   1.410360 A    
C153  H89   1.079125 S    
Zn12  O26   1.931077 S    
C110  C118  1.418772 A    
C51   C63   1.385782 A    
H34   C142  1.082822 S    
C169  C173  1.419987 A    
C92   C100  1.411127 A    
C43   C51   1.400723 A    
C76   C92   1.412814 A    
C32   C39   1.554407 S    
H29   C137  1.082497 S    
C49   H37   1.083300 S    
C96   C104  1.410206 A    
C34   C38   1.554250 S    
C31   H7    1.112922 S    
O11   C7    1.280846 A    
O34   C15   1.279007 A    
C136  H72   1.082274 S    
C163  C167  1.414312 A    
C62   C70   1.387241 A    
C137  C145  1.393335 A    
Zn14  O30   1.930960 S    
Zn1   O44   1.952518 S    
C25   H1    1.113035 S    
C153  C157  1.390740 A    
Zn2   O43   1.952518 S    
C108  C116  1.416136 A    
C141  C149  1.392923 A    
Zn5   O48   1.952518 S    
H32   C140  1.082675 S    
Zn6   O47   1.952518 S    
C112  C120  1.414963 A    
Zn7   O46   1.952703 S    
O16   C12   1.275569 A    
C60   H48   1.082720 S    
C11   C115  1.452562 S    
C42   C50   1.399079 A    
C104  C108  1.409159 A    
C155  C164  1.420489 A    
Zn12  O4    1.956157 S    
Zn1   O13   1.936362 S    
C156  C163  1.420194 A    
C98   C110  1.409435 A    
C26   C28   1.547993 S    
Zn4   O16   1.937300 S    
O41   C21   1.278103 A    
C104  C128  1.416677 A    
C33   C37   1.554259 S    
C6    C96   1.453906 S    
C28   H4    1.112586 S    
C125  C133  1.392880 A    
C164  C168  1.417542 A    
C48   N8    1.432132 S    
C71   C79   1.415772 A    
C154  C158  1.391303 A    
C72   C80   1.416581 A    
C71   H59   1.081681 S    
C14   C118  1.453716 S    
C44   C84   1.434620 A    
C45   C85   1.434879 A    
C30   H6    1.113476 S    
Zn10  O22   1.931077 S    
C47   N7    1.429411 S    
C132  H76   1.082614 S    
C105  C113  1.416605 A    
C48   C88   1.431664 A    
C133  H69   1.082614 S    
O25   C8    1.278438 A    
Zn13  O29   1.932081 S    
C129  C141  1.388312 A    
C15   C119  1.451217 S    
Zn10  O2    1.956157 S    
N2    O55   1.300480 A    
C31   C40   1.551452 S    
O29   C12   1.280289 A    
C167  C171  1.415571 A    
Zn15  O33   1.932081 S    
C18   C165  1.445213 S    
C151  H83   1.082074 S    
C152  H84   1.082024 S    
C67   H55   1.081956 S    
C179  C180  1.383854 A    
C80   C84   1.418310 A    
C43   N3    1.432275 S    
C26   H2    1.113094 S    
C41   C81   1.435215 A    
C135  C139  1.389110 A    
O48   C23   1.275217 A    
C130  C142  1.388485 A    
C171  C175  1.420718 A    
C155  C159  1.391642 A    
C132  C144  1.389155 A    
C101  C125  1.417471 A    
N3    O57   1.299213 A    
Zn16  O35   1.931932 S    
C9    C113  1.450641 S    
C70   C78   1.416506 A    
C82   C114  1.426168 A    
Zn7   O10   1.937256 S    
O33   C16   1.282497 A    
C25   C37   1.551516 S    
C86   C118  1.431085 A    
Zn8   O20   1.937300 S    
O40   C20   1.273323 A    
C52   C64   1.384482 A    
C1    C91   1.453540 S    
C44   N4    1.429949 S    
H85   C178  1.080994 S    
C102  C106  1.409517 A    
N8    O67   1.299168 A    
C129  H73   1.082364 S    
C80   C96   1.413997 A    
Zn5   O17   1.936362 S    
H33   C141  1.082644 S    
H31   C139  1.082639 S    
C50   H38   1.083332 S    
C57   C65   1.387212 A    
C25   C27   1.548096 S    
C103  C107  1.409338 A    
C67   C75   1.416497 A    
O28   C5    1.278886 A    
C65   C73   1.416530 A    
N6    O63   1.300430 A    
C27   H3    1.113098 S    
C32   H8    1.113469 S    
Zn8   O3    1.945235 S    
C21   C37   1.496390 S    
O38   C18   1.278052 A    
C146  H78   1.081998 S    
O5    C1    1.278458 A    
C47   C55   1.399056 A    
O32   C9    1.276056 A    
C51   H39   1.083149 S    
C153  C162  1.420746 A    
H25   C35   1.112949 S    
H26   C36   1.113095 S    
C36   C40   1.551638 S    
Zn15  O51   1.953962 S    
C111  C151  1.419737 A    
C75   C87   1.418529 A    
Zn11  O28   1.930707 S    
Zn12  O40   1.953919 S    
C20   C167  1.442030 S    
H17   C173  1.074801 S    
H23   C34   1.113465 S    
C60   C68   1.388165 A    
N1    O54   1.301353 A    
C29   C39   1.551347 S    
C155  H91   1.074867 S    
H28   C35   1.113100 S    
O8    C4    1.276387 A    
C63   C71   1.388205 A    
C33   C34   1.537926 S    
C122  H62   1.082065 S    
C64   C72   1.387234 A    
C49   C61   1.384590 A    
C123  H63   1.080403 S    
O50   C18   1.272982 A    
O37   C17   1.272525 A    
C154  C161  1.420775 A    
C107  C115  1.414931 A    
C100  C112  1.409559 A    
Zn1   O1    1.945608 S    
C122  C130  1.392600 A    
C133  C137  1.388859 A    
Zn2   O14   1.937594 S    
C29   H5    1.112953 S    
C166  C170  1.413054 A    
C45   C53   1.399102 A    
C157  H93   1.081137 S    
O9    C5    1.277611 A    
O39   C19   1.277210 A    
O36   C13   1.278867 A    
O13   C9    1.279519 A    
Zn1   O8    1.937551 S    
N5    O62   1.300603 A    
N4    O59   1.300511 A    
Zn2   O7    1.936319 S    
C56   H44   1.083154 S    
C173  C177  1.391252 A    
Zn3   O6    1.937256 S    
O18   C14   1.276884 A    
O31   C10   1.279325 A    
C106  C146  1.419729 A    
C25   H9    1.112948 S    
C66   H54   1.081976 S    
C110  C150  1.420807 A    
C93   C101  1.409587 A    
C32   H16   1.113455 S    
C42   N2    1.429668 S    
C134  H70   1.082420 S    
C98   C122  1.418356 A    
Zn15  O3    1.955856 S    
C74   C90   1.412724 A    
Zn11  O3    1.957401 S    
C61   H49   1.082756 S    
C56   C60   1.385736 A    
Zn16  O34   1.930960 S    
C72   H60   1.081617 S    
C31   H15   1.113049 S    
C74   C86   1.419817 A    
C3    C89   1.453587 S    
Zn2   O2    1.945607 S    
C90   C98   1.409268 A    
C78   C82   1.418461 A    
H87   C180  1.080615 S    
C109  C117  1.415712 A    
C170  C174  1.421355 A    
N7    O65   1.300632 A    
C121  H61   1.080421 S    
C108  C148  1.419269 A    
C59   C67   1.387134 A    
C68   C76   1.415686 A    
C84   C116  1.425904 A    
C69   C77   1.415639 A    
C159  C160  1.384793 A    
C112  C152  1.419113 A    
Zn8   O9    1.936766 S    
C127  H67   1.078841 S    
C24   C40   1.496382 S    
C128  H68   1.080315 S    
C68   H56   1.081724 S    
C19   C168  1.443573 S    
C69   H57   1.080563 S    
C7    C93   1.453688 S    
H20   C176  1.078794 S    
C162  C166  1.415054 A    
C138  C146  1.392927 A    
O7    C3    1.277590 A    
C65   H53   1.081818 S    
C88   C120  1.423925 A    
C95   C103  1.411159 A    
C16   C120  1.453099 S    
O19   C15   1.277408 A    
C83   C115  1.423720 A    
C142  C150  1.393286 A    
C43   C83   1.431627 A    
C58   H46   1.082968 S    
C27   C38   1.551444 S    
C147  H79   1.081995 S    
Zn6   O18   1.937594 S    
C111  C119  1.415725 A    
Zn10  O23   1.931831 S    
C79   C83   1.415944 A    
C58   C66   1.384907 A    
C168  C172  1.415648 A    
C45   N5    1.429729 S    
N2    O56   1.300553 A    
Zn15  O36   1.931329 S    
O15   C11   1.274232 A    
O42   C22   1.275366 A    
C97   C109  1.409186 A    
C28   C37   1.551727 S    
Zn4   O1    1.945235 S    
C30   C32   1.538011 S    
Zn9   O37   1.953295 S    
C35   C36   1.548218 S    
O12   C8    1.277973 A    
H86   C177  1.082147 S    
C53   C57   1.384562 A    
Zn11  O39   1.953295 S    
C46   C54   1.398889 A    
C59   H47   1.082749 S    
C42   C82   1.434721 A    
H21   C33   1.113406 S    
N3    O58   1.300997 A    
C55   H43   1.083331 S    
Zn5   O3    1.945608 S    
Zn13  O1    1.955856 S    
C13   C117  1.451077 S    
C121  C129  1.392765 A    
C139  C147  1.393489 A    
C171  C172  1.407103 A    
C8    C94   1.454338 S    
C10   C114  1.451966 S    
C157  C158  1.384646 A    
C26   H10   1.112932 S    
H24   C33   1.113502 S    
Zn9   O24   1.930707 S    
C169  C170  1.406155 A    
C159  H95   1.082205 S    
C17   C166  1.440351 S    
C163  C164  1.405448 A    
Zn3   O42   1.952703 S    
C161  C165  1.416149 A    
C23   C39   1.496188 S    
Zn7   O4    1.945236 S    
O21   C4    1.278835 A    
C50   C62   1.384523 A    
C44   C52   1.399177 A    
C175  C179  1.390939 A    
C105  C145  1.419117 A    
C143  C151  1.393081 A    
C145  H77   1.082017 S    
C48   C56   1.400675 A    
C102  C126  1.416456 A    
Zn14  O2    1.957099 S    
C78   C94   1.413800 A    
N6    O64   1.299405 A    
C160  H96   1.082787 S    
Zn13  O49   1.953962 S    
O44   C21   1.275456 A    
C28   H12   1.112915 S    
C81   C113  1.425105 A    
C63   H51   1.082740 S    
Zn12  O27   1.931831 S    
C35   C39   1.551599 S    
C64   H52   1.082769 S    
C85   C117  1.426141 A    
C46   C86   1.438108 A    
C61   C69   1.387200 A    
C30   C40   1.554284 S    
H19   C175  1.078835 S    
Zn3   O2    1.945236 S    
C127  C135  1.392970 A    
H27   C36   1.112933 S    
O10   C6    1.276676 A    
O46   C24   1.275336 A    
Zn4   O41   1.952704 S    
Zn16  O52   1.953337 S    
C100  C124  1.414729 A    
H88   C179  1.079831 S    
H30   C138  1.082647 S    
Zn16  O4    1.957099 S    
Zn8   O45   1.952704 S    
C41   C49   1.398993 A    
C124  H64   1.078801 S    
O27   C6    1.278566 A    
C47   C87   1.434917 A    
C125  H65   1.082240 S    
N7    O66   1.300417 A    
C158  H94   1.080500 S    
C131  C143  1.388529 A    
C29   C31   1.547905 S    
C156  H92   1.076190 S    
C131  H75   1.082474 S    
C73   C85   1.418310 A    
O24   C1    1.277637 A    
C46   N6    1.426665 S    
C76   C88   1.416243 A    
C57   H45   1.082783 S    
C77   C81   1.417539 A    
C54   H42   1.083576 S    
C79   C95   1.412845 A    
C156  C160  1.390694 A    
O43   C22   1.278049 A    
O47   C24   1.278197 A    
Zn3   O15   1.936810 S    
Zn5   O12   1.937551 S    
Zn6   O11   1.936319 S    
C101  C105  1.409811 A    
Zn6   O4    1.945607 S    
C126  H66   1.080420 S    
Zn9   O21   1.931683 S    
Zn14  O50   1.953337 S    
C135  H71   1.082626 S    
O35   C14   1.281580 A    
H18   C174  1.080336 S    
Zn9   O1    1.957401 S    
C70   H58   1.081761 S    
N4    O60   1.300484 A    
H36   C144  1.082641 S    
O52   C20   1.275745 A    
C55   C59   1.384572 A    
C126  C134  1.392769 A    
C29   H13   1.113090 S    
H35   C143  1.082613 S    
C154  H90   1.078916 S    
O22   C3    1.278050 A    
C140  C148  1.392439 A    
Zn7   O19   1.936810 S    
C176  C180  1.390333 A    
C150  H82   1.081666 S    
C12   C116  1.452516 S    
Zn13  O32   1.931329 S    
C144  C152  1.393473 A    
C2    C92   1.454549 S    
O49   C17   1.275604 A    
Zn14  O31   1.931932 S    
C123  C131  1.392804 A    
C134  C138  1.388321 A    
O51   C19   1.272907 A    
C106  C114  1.415830 A    
O20   C16   1.273783 A    
C27   H11   1.112953 S    
Zn4   O5    1.936766 S    
C103  C127  1.414888 A    
C77   C93   1.414525 A    
C165  C169  1.418509 A    
C5    C95   1.453903 S    
C26   C38   1.551589 S    
O23   C2    1.278515 A    
O6    C2    1.277188 A    
Zn11  O25   1.931683 S    
C161  C162  1.407164 A    
Zn10  O38   1.953919 S    
N8    O68   1.300985 A    
C124  C132  1.392984 A    
C54   C58   1.382149 A    
O14   C10   1.277272 A    
C174  C178  1.391128 A    
C128  C136  1.392633 A    
C107  C147  1.419131 A    
N1    O53   1.300958 A    
O17   C13   1.276929 A    
H22   C34   1.113451 S    
O45   C23   1.278214 A    
C52   H40   1.083313 S    
