data_mof_unit_60490.cif
_audit_creation_date              2012-12-10T17:26:34-0500
_audit_creation_method            fapswitch 2.2
_symmetry_space_group_name_H-M    P1
_symmetry_Int_Tables_number       1
_space_group_crystal_system       triclinic
_cell_length_a                    42.5763
_cell_length_b                    29.421591
_cell_length_c                    30.772936
_cell_angle_alpha                 90.000275
_cell_angle_beta                  136.285177
_cell_angle_gamma                 89.999806
_cell_volume                      26639.4150866

loop_
_atom_site_label
_atom_site_type_symbol
_atom_type_description
_atom_site_fract_x
_atom_site_fract_y
_atom_site_fract_z
_atom_type_partial_charge
C1    C     C_R   0.585494 0.500000 0.585925 0.825482
C2    C     C_R   0.085494 0.000000 0.585924 0.825429
C3    C     C_3   0.446449 0.496808 0.167055 0.324574
C4    C     C_3   0.952308 0.024555 0.172917 0.324519
C5    C     C_3   0.446955 0.491984 0.219953 0.325004
C6    C     C_3   0.950285 0.020140 0.223286 0.324791
C7    C     C_1   0.500004 0.500004 0.157853 0.001097
C8    C     C_1   0.000008 0.000007 0.157857 0.001098
C9    C     C_1   0.499999 0.500002 0.335757 0.000867
C10   C     C_1   0.000009 0.999995 0.335767 0.000862
C11   C     C_1   0.499997 0.500001 0.373988 -0.232619
C12   C     C_1   0.000004 0.999997 0.373995 -0.232622
C13   C     C_1   0.636541 0.500000 0.636876 -0.208425
C14   C     C_1   0.136541 0.000000 0.636873 -0.208471
C15   C     C_1   0.678863 0.500000 0.679122 0.001247
C16   C     C_1   0.178863 0.000001 0.679119 0.001281
C17   C     C_1   0.729028 0.500000 0.729208 0.002973
C18   C     C_1   0.229028 0.000001 0.729205 0.002992
C19   C     C_1   0.771351 0.500000 0.771471 0.002979
C20   C     C_1   0.271350 0.000001 0.771470 0.002986
C21   C     C_1   0.821516 0.500000 0.821579 0.002412
C22   C     C_1   0.321516 0.000001 0.821578 0.002421
C23   C     C_R   0.499991 0.500000 0.418908 0.864839
C24   C     C_R   0.999994 1.000000 0.418911 0.864842
C25   C     C_1   0.863839 0.500000 0.863865 -0.199883
C26   C     C_1   0.363839 0.000000 0.863865 -0.199873
C27   C     C_1   0.499984 0.500000 0.635300 -0.204787
C28   C     C_1   0.999984 0.000000 0.635300 -0.204788
C29   C     C_1   0.499993 0.500000 0.676683 0.012655
C30   C     C_1   0.999993 0.000000 0.676683 0.012655
C31   C     C_1   0.500005 0.500000 0.726121 0.001404
C32   C     C_1   0.000005 0.000000 0.726121 0.001403
C33   C     C_1   0.500015 0.500000 0.767505 0.001390
C34   C     C_1   0.000015 0.000000 0.767505 0.001390
C35   C     C_1   0.500026 0.500000 0.816942 0.012429
C36   C     C_1   0.000026 0.000000 0.816942 0.012429
C37   C     C_1   0.500032 0.500000 0.858322 -0.203929
C38   C     C_1   0.000032 0.000000 0.858322 -0.203929
C39   C     C_1   0.363414 0.500000 0.363735 -0.208471
C40   C     C_1   0.863414 0.000000 0.363738 -0.208418
C41   C     C_1   0.321094 0.500000 0.321342 0.001257
C42   C     C_1   0.821094 0.000001 0.321345 0.001237
C43   C     C_1   0.270931 0.500000 0.271106 0.002945
C44   C     C_1   0.770931 0.000001 0.271108 0.002929
C45   C     C_R   0.414458 0.500000 0.414876 0.825497
C46   C     C_R   0.914458 0.000000 0.414877 0.825544
C47   C     C_1   0.228611 0.500000 0.228732 0.002928
C48   C     C_1   0.728611 0.000001 0.228734 0.002920
C49   C     C_1   0.178448 0.500000 0.178517 0.002354
C50   C     C_1   0.678447 0.000000 0.178518 0.002343
C51   C     C_1   0.136127 0.500000 0.136163 -0.199947
C52   C     C_1   0.636127 0.000000 0.136164 -0.199958
C53   C     C_R   0.500033 0.585446 0.994585 0.825098
C54   C     C_R   0.500033 0.414554 0.994583 0.825161
C55   C     C_R   0.000033 0.085446 0.994583 0.825115
C56   C     C_R   0.000033 0.914554 0.994585 0.825135
C57   C     C_R   0.500017 0.500001 0.074710 0.865024
C58   C     C_R   0.000017 0.000003 0.074710 0.865029
C59   C     C_R   0.500032 0.500000 0.908663 0.812747
C60   C     C_R   0.000032 0.000000 0.908663 0.812747
C61   C     C_R   0.000015 0.414876 0.999131 0.815828
C62   C     C_R   0.000015 0.585124 0.999131 0.815833
C63   C     C_R   0.500015 0.914876 0.999131 0.815840
C64   C     C_R   0.500015 0.085124 0.999131 0.815818
C65   C     C_R   0.914887 0.500000 0.914899 0.815989
C66   C     C_R   0.414887 0.000000 0.914898 0.815997
C67   C     C_R   0.085082 0.500000 0.085104 0.816029
C68   C     C_R   0.585082 0.000000 0.085104 0.816019
C69   C     C_1   0.500047 0.636498 0.995432 -0.208774
C70   C     C_1   0.500047 0.363502 0.995430 -0.208696
C71   C     C_1   0.000047 0.136498 0.995429 -0.208745
C72   C     C_1   0.000047 0.863502 0.995433 -0.208701
C73   C     C_R   0.499975 0.500000 0.584950 0.812887
C74   C     C_R   0.999975 0.000000 0.584950 0.812886
C75   C     C_1   0.500050 0.678822 0.996160 0.001306
C76   C     C_1   0.500050 0.321178 0.996157 0.001260
C77   C     C_1   0.000049 0.178822 0.996156 0.001263
C78   C     C_1   0.000049 0.821178 0.996160 0.001305
C79   C     C_1   0.500046 0.728992 0.997014 0.002899
C80   C     C_1   0.500046 0.271008 0.997011 0.002849
C81   C     C_1   0.000046 0.228992 0.997010 0.002879
C82   C     C_1   0.000046 0.771008 0.997015 0.002850
C83   C     C_1   0.000041 0.271316 0.997699 0.002892
C84   C     C_1   0.000041 0.728684 0.997703 0.002846
C85   C     C_1   0.500041 0.771316 0.997702 0.002893
C86   C     C_1   0.500041 0.228684 0.997700 0.002854
C87   C     C_1   0.000033 0.321488 0.998436 0.002435
C88   C     C_1   0.000033 0.678512 0.998439 0.002402
C89   C     C_1   0.500033 0.821488 0.998438 0.002441
C90   C     C_1   0.500033 0.178512 0.998437 0.002399
C91   C     C_1   0.000026 0.363816 0.998912 -0.199884
C92   C     C_1   0.000026 0.636184 0.998914 -0.199904
C93   C     C_1   0.500026 0.863816 0.998913 -0.199874
C94   C     C_1   0.500026 0.136184 0.998913 -0.199912
C95   C     C_3   0.519579 0.549954 0.292578 0.324754
C96   C     C_3   0.533469 0.458073 0.306468 0.324589
C97   C     C_3   0.042315 0.032990 0.315317 0.325018
C98   C     C_3   0.007428 0.946863 0.280423 0.324551
C99   C     C_3   0.529545 0.455221 0.250152 0.324665
C100  C     C_3   0.524010 0.547983 0.244618 0.325010
C101  C     C_3   0.002597 0.946414 0.223199 0.324903
C102  C     C_3   0.045120 0.029040 0.265730 0.324837
C103  C     C_1   0.500010 0.500003 0.119627 -0.233636
C104  C     C_1   0.000011 0.000006 0.119628 -0.233637
C105  C     C_3   0.500000 0.500003 0.289172 0.053775
C106  C     C_3   0.000010 0.999997 0.289181 0.053771
C107  C     C_3   0.500001 0.500004 0.204437 0.053809
C108  C     C_3   0.000008 0.000004 0.204444 0.053807
Cu1   Cu    Cu3+1 0.499970 0.542470 0.500570 0.953916
Cu2   Cu    Cu3+1 0.499970 0.457530 0.500570 0.953760
Cu3   Cu    Cu3+1 0.999970 0.042470 0.500570 0.953901
Cu4   Cu    Cu3+1 0.999970 0.957530 0.500570 0.953774
Cu5   Cu    Cu3+1 0.542500 0.500000 0.035600 0.953848
Cu6   Cu    Cu3+1 0.042500 0.000000 0.035600 0.953922
Cu7   Cu    Cu3+1 0.457550 0.500000 0.950640 0.953843
Cu8   Cu    Cu3+1 0.957550 0.000000 0.950640 0.953772
Cu9   Cu    Cu3+1 0.999990 0.500000 0.958110 0.961217
Cu10  Cu    Cu3+1 0.499990 0.000000 0.958110 0.961219
Cu11  Cu    Cu3+1 0.999980 0.500000 0.041890 0.957682
Cu12  Cu    Cu3+1 0.499980 0.000000 0.041890 0.957689
O1    O     O_R   0.561950 0.535860 0.562460 -0.561940
O2    O     O_R   0.561950 0.464140 0.562460 -0.561894
O3    O     O_R   0.061950 0.035860 0.562460 -0.561871
O4    O     O_R   0.061950 0.964140 0.562460 -0.561801
O5    O     O_R   0.464160 0.500000 0.896130 -0.558298
O6    O     O_R   0.964160 0.000000 0.896130 -0.558315
O7    O     O_R   0.000010 0.438010 0.963800 -0.558168
O8    O     O_R   0.000010 0.561990 0.963800 -0.558141
O9    O     O_R   0.500010 0.938010 0.963800 -0.558136
O10   O     O_R   0.500010 0.061990 0.963800 -0.558175
O11   O     O_R   0.000000 0.438000 0.034540 -0.559314
O12   O     O_R   0.000000 0.562000 0.034540 -0.559359
O13   O     O_R   0.500000 0.938000 0.034540 -0.559341
O14   O     O_R   0.500000 0.062000 0.034540 -0.559327
O15   O     O_R   0.938010 0.500000 0.902650 -0.558365
O16   O     O_R   0.438010 0.000000 0.902650 -0.558378
O17   O     O_R   0.938010 0.500000 0.973390 -0.559182
O18   O     O_R   0.438010 0.000000 0.973390 -0.559164
O19   O     O_R   0.061960 0.500000 0.026610 -0.558327
O20   O     O_R   0.561960 0.000000 0.026610 -0.558312
O21   O     O_R   0.061960 0.500000 0.097350 -0.559148
O22   O     O_R   0.561960 0.000000 0.097350 -0.559166
O23   O     O_R   0.499980 0.535870 0.439370 -0.578318
O24   O     O_R   0.499980 0.464130 0.439370 -0.578538
O25   O     O_R   0.999980 0.035870 0.439370 -0.578253
O26   O     O_R   0.999980 0.964130 0.439370 -0.578605
O27   O     O_R   0.438000 0.535860 0.438500 -0.561850
O28   O     O_R   0.438000 0.464140 0.438500 -0.561803
O29   O     O_R   0.938000 0.035860 0.438500 -0.561949
O30   O     O_R   0.938000 0.964140 0.438500 -0.561870
O31   O     O_R   0.499970 0.535850 0.561590 -0.557138
O32   O     O_R   0.499970 0.464150 0.561590 -0.557177
O33   O     O_R   0.999970 0.035850 0.561590 -0.557157
O34   O     O_R   0.999970 0.964150 0.561590 -0.557157
O35   O     O_R   0.535890 0.561890 0.029840 -0.561563
O36   O     O_R   0.535890 0.438110 0.029840 -0.561683
O37   O     O_R   0.035890 0.061890 0.029840 -0.561675
O38   O     O_R   0.035890 0.938110 0.029840 -0.561633
O39   O     O_R   0.464160 0.561920 0.958100 -0.561644
O40   O     O_R   0.464160 0.438080 0.958100 -0.561758
O41   O     O_R   0.964160 0.061920 0.958100 -0.561693
O42   O     O_R   0.964160 0.938080 0.958100 -0.561649
O43   O     O_R   0.535890 0.500000 0.090110 -0.577063
O44   O     O_R   0.035890 0.000000 0.090110 -0.576956
O45   O     O_R   0.464150 0.500000 0.018360 -0.577256
O46   O     O_R   0.964150 0.000000 0.018360 -0.577368
O47   O     O_R   0.535900 0.500000 0.967880 -0.558268
O48   O     O_R   0.035900 0.000000 0.967880 -0.558251
C109  C     C_3   0.574880 0.552988 0.280114 -0.822141
H1    H     H_    0.600518 0.537667 0.326305 0.210024
H2    H     H_    0.579309 0.541646 0.250380 0.235538
H3    H     H_    0.587362 0.588693 0.293289 0.223612
C110  C     C_3   0.576960 0.449709 0.273370 -0.805419
H4    H     H_    0.603327 0.475188 0.302416 0.212119
H5    H     H_    0.595183 0.418992 0.303475 0.222590
H6    H     H_    0.572102 0.445184 0.232928 0.233318
C111  C     C_3   0.091435 0.007415 0.296667 -0.821165
H7    H     H_    0.105681 0.981160 0.331464 0.209698
H8    H     H_    0.089462 0.995403 0.260531 0.236261
H9    H     H_    0.120374 0.031768 0.326302 0.223516
C112  C     C_3   0.040578 0.917501 0.236978 -0.806908
H10   H     H_    0.034089 0.916085 0.194905 0.230270
H11   H     H_    0.076250 0.925980 0.275326 0.212353
H12   H     H_    0.040600 0.881784 0.248879 0.223153
C113  C     C_3   0.564809 0.565212 0.362010 -0.807767
H13   H     H_    0.595902 0.545781 0.390424 0.211756
H14   H     H_    0.576241 0.599050 0.361563 0.223183
H15   H     H_    0.559114 0.568624 0.391899 0.233216
C114  C     C_3   0.584267 0.463764 0.372644 -0.823829
H16   H     H_    0.606156 0.484085 0.373981 0.210573
H17   H     H_    0.586239 0.475781 0.408779 0.232067
H18   H     H_    0.603906 0.431439 0.391594 0.223953
C115  C     C_3   0.089006 0.023057 0.386208 -0.808539
H19   H     H_    0.105851 0.990489 0.400370 0.212078
H20   H     H_    0.116090 0.046342 0.401415 0.223554
H21   H     H_    0.085849 0.028891 0.418636 0.230217
C116  C     C_3   0.054032 0.925862 0.342400 -0.822260
H22   H     H_    0.083220 0.932187 0.351035 0.210057
H23   H     H_    0.061855 0.935193 0.384386 0.234004
H24   H     H_    0.054451 0.888040 0.342125 0.223743
C117  C     C_3   0.524067 0.411271 0.321264 -0.805217
H25   H     H_    0.547654 0.384451 0.332971 0.222422
H26   H     H_    0.529869 0.414495 0.362650 0.234918
H27   H     H_    0.491693 0.394059 0.286210 0.211925
C118  C     C_3   0.489251 0.591103 0.277626 -0.821232
H28   H     H_    0.477860 0.586802 0.300398 0.235924
H29   H     H_    0.507424 0.624274 0.295107 0.223535
H30   H     H_    0.460708 0.599898 0.228530 0.209715
C119  C     C_3   0.975484 0.911390 0.272674 -0.806141
H31   H     H_    0.982120 0.911204 0.314894 0.235475
H32   H     H_    0.938859 0.913087 0.233368 0.211719
H33   H     H_    0.982104 0.876293 0.267412 0.222621
C120  C     C_3   0.037200 0.083851 0.325582 -0.821653
H34   H     H_    0.069743 0.103124 0.357434 0.223545
H35   H     H_    0.017127 0.105970 0.284958 0.209852
H36   H     H_    0.025209 0.085955 0.347754 0.236050
C121  C     C_3   0.508444 0.408660 0.213674 -0.824287
H37   H     H_    0.496408 0.410496 0.167474 0.231864
H38   H     H_    0.533123 0.379997 0.239043 0.223982
H39   H     H_    0.482358 0.394115 0.208139 0.210735
C122  C     C_3   0.505075 0.591804 0.201482 -0.808302
H40   H     H_    0.522564 0.622946 0.230851 0.223545
H41   H     H_    0.511422 0.589859 0.172245 0.229595
H42   H     H_    0.469828 0.601902 0.168913 0.212211
C123  C     C_3   0.960710 0.917116 0.165934 -0.823717
H43   H     H_    0.951290 0.924833 0.122352 0.233412
H44   H     H_    0.967330 0.879876 0.173243 0.223837
H45   H     H_    0.930854 0.917902 0.156631 0.210551
C124  C     C_3   0.051166 0.076395 0.247579 -0.808227
H46   H     H_    0.082087 0.094269 0.290381 0.223382
H47   H     H_    0.055631 0.071489 0.216460 0.232001
H48   H     H_    0.025991 0.103052 0.225087 0.211851
C125  C     C_3   0.411125 0.523526 0.208322 -0.807588
H49   H     H_    0.412409 0.560170 0.206930 0.212343
H50   H     H_    0.376107 0.516510 0.161421 0.223348
H51   H     H_    0.411012 0.516884 0.243792 0.229648
C126  C     C_3   0.426484 0.445143 0.214856 -0.823162
H52   H     H_    0.435904 0.437426 0.258438 0.234283
H53   H     H_    0.388672 0.444296 0.176351 0.223739
H54   H     H_    0.433139 0.416026 0.200956 0.210359
C127  C     C_3   0.935540 0.065541 0.232744 -0.805903
H55   H     H_    0.955323 0.096413 0.249852 0.212231
H56   H     H_    0.901837 0.077357 0.187159 0.222772
H57   H     H_    0.932061 0.059882 0.264847 0.232100
C128  C     C_3   0.908798 0.990277 0.197173 -0.824309
H58   H     H_    0.912973 0.978831 0.235508 0.232217
H59   H     H_    0.875836 0.008827 0.163527 0.223945
H60   H     H_    0.899675 0.961839 0.167492 0.210739
C129  C     C_3   0.416680 0.538363 0.121910 -0.821708
H61   H     H_    0.417128 0.568228 0.142912 0.209881
H62   H     H_    0.424289 0.547871 0.095357 0.234875
H63   H     H_    0.379519 0.531322 0.085439 0.223651
C130  C     C_3   0.417970 0.458500 0.114374 -0.806730
H64   H     H_    0.382257 0.458075 0.090540 0.222824
H65   H     H_    0.416483 0.464971 0.077303 0.234864
H66   H     H_    0.426849 0.422924 0.125931 0.211696
C131  C     C_3   0.947878 0.075483 0.153115 -0.823277
H67   H     H_    0.912319 0.088369 0.118247 0.223900
H68   H     H_    0.963487 0.100946 0.189280 0.210393
H69   H     H_    0.959270 0.079787 0.130345 0.232614
C132  C     C_3   0.908278 0.006118 0.104686 -0.805343
H70   H     H_    0.910294 0.012449 0.071119 0.235519
H71   H     H_    0.897784 0.970985 0.096865 0.211823
H72   H     H_    0.877338 0.023957 0.085630 0.222429

loop_
_geom_bond_atom_site_label_1
_geom_bond_atom_site_label_2
_ccdc_geom_bond_type
C95   C118  S    
C116  H24   S    
C83   C87   S    
C96   C105  S    
C4    C131  S    
C87   C91   T    
C129  H63   S    
C27   C29   T    
C45   O28   A    
C41   C43   S    
C109  H1    S    
C6    C128  S    
Cu3   Cu4   S    
C8    C104  T    
C65   O15   A    
C79   C85   T    
C58   O44   A    
C123  H45   S    
C113  H14   S    
C101  C112  S    
C96   C117  S    
C39   C41   T    
C5    C105  S    
C120  H34   S    
C121  H39   S    
C40   C46   S    
C4    C108  S    
C129  H61   S    
C60   O48   A    
C5    C126  S    
C63   O13   A    
Cu8   O42   S    
C35   C37   T    
Cu12  O13   S    
C122  H42   S    
Cu2   O32   S    
C24   O25   A    
Cu9   Cu11  S    
C54   O36   A    
C130  H64   S    
Cu2   O28   S    
C112  H12   S    
C57   O45   A    
C9    C105  S    
C96   C99   S    
C56   O42   A    
Cu1   O27   S    
C119  H33   S    
C74   O34   A    
C62   O8    A    
C101  C123  S    
C131  H67   S    
C117  H25   S    
C97   C115  S    
C50   C52   T    
C61   O7    A    
C1    O2    A    
Cu6   O38   S    
Cu4   O30   S    
C72   C78   T    
C95   C105  S    
C33   C35   S    
Cu12  O18   S    
C5    C125  S    
C58   O46   A    
C55   C71   S    
Cu9   O7    S    
C88   C92   T    
Cu4   O26   S    
C4    C132  S    
C56   C72   S    
C62   C92   S    
C102  C124  S    
C80   C86   T    
C76   C80   S    
C31   C33   T    
C6    C127  S    
C68   O22   A    
C98   C106  S    
Cu7   O45   S    
C67   O19   A    
C125  H49   S    
C54   C70   S    
C34   C36   S    
C97   C102  S    
C52   C68   S    
C39   C45   S    
C65   O17   A    
C111  H9    S    
C101  C108  S    
C48   C50   S    
C53   C69   S    
Cu6   O48   S    
C7    C103  T    
C128  H58   S    
C73   O31   A    
C7    C107  S    
C117  H26   S    
C23   O23   A    
Cu9   O19   S    
C42   C44   S    
Cu5   O35   S    
Cu10  O20   S    
C18   C20   T    
C8    C108  S    
C97   C120  S    
C69   C75   T    
C90   C94   T    
Cu10  Cu12  S    
C118  H29   S    
C126  H53   S    
C57   C103  S    
C98   C119  S    
C64   O14   A    
C129  H62   S    
C53   O39   A    
Cu3   O3    S    
C57   O43   A    
Cu11  O17   S    
C99   C121  S    
Cu8   O41   S    
C56   O38   A    
C25   C65   S    
C55   O41   A    
C47   C49   S    
C86   C90   S    
C112  H11   S    
C99   C110  S    
C132  H71   S    
C85   C89   S    
C95   C100  S    
C17   C19   T    
C113  H15   S    
C49   C51   T    
C121  H37   S    
C118  H28   S    
Cu3   O29   S    
Cu11  O11   S    
C114  H17   S    
C74   O33   A    
Cu7   O39   S    
Cu6   Cu8   S    
C131  H68   S    
C26   C66   S    
C96   C114  S    
C112  H10   S    
C114  H18   S    
Cu2   O24   S    
C3    C130  S    
Cu6   O37   S    
C124  H46   S    
Cu10  O10   S    
C62   O12   A    
Cu5   O43   S    
C122  H40   S    
Cu3   O33   S    
C81   C83   T    
C78   C82   S    
Cu6   O44   S    
C119  H31   S    
C66   O18   A    
C13   C15   T    
C77   C81   S    
C29   C31   S    
C115  H21   S    
C115  H20   S    
C123  H43   S    
C6    C106  S    
Cu12  O22   S    
Cu1   O23   S    
C51   C67   S    
C116  H23   S    
C102  C108  S    
C125  H50   S    
C37   C59   S    
C110  H5    S    
C10   C12   T    
C111  H7    S    
C38   C60   S    
C97   C106  S    
C4    C6    S    
C46   O30   A    
C20   C22   S    
C53   O35   A    
C82   C84   T    
C128  H59   S    
C73   O32   A    
C70   C76   T    
Cu11  O21   S    
C117  H27   S    
C14   C16   T    
C23   O24   A    
C10   C106  S    
C121  H38   S    
C27   C73   S    
Cu5   O36   S    
Cu9   O15   S    
C71   C77   T    
Cu10  O16   S    
C95   C113  S    
C130  H65   S    
C109  H2    S    
C118  H30   S    
C114  H16   S    
C15   C17   S    
C21   C25   T    
C126  H54   S    
C119  H32   S    
C100  C107  S    
C98   C116  S    
Cu1   O31   S    
C100  C109  S    
C45   O27   A    
C84   C88   S    
C11   C23   S    
C64   O10   A    
C40   C42   T    
C3    C5    S    
Cu11  O12   S    
Cu5   O47   S    
C132  H72   S    
C110  H6    S    
C124  H47   S    
Cu4   O4    S    
C120  H36   S    
C2    O4    A    
C124  H48   S    
C98   C101  S    
C99   C107  S    
C12   C24   S    
Cu9   O8    S    
Cu7   O5    S    
Cu3   O25   S    
Cu7   O40   S    
C127  H57   S    
C3    C107  S    
C131  H69   S    
C130  H66   S    
C60   O6    A    
Cu8   O6    S    
C120  H35   S    
C64   C94   S    
C28   C30   T    
C122  H41   S    
Cu10  O9    S    
C24   O26   A    
C59   O5    A    
Cu2   O2    S    
C30   C32   S    
Cu1   O1    S    
C113  H13   S    
C132  H70   S    
Cu5   Cu7   S    
C75   C79   S    
C100  C122  S    
C127  H55   S    
C28   C74   S    
C9    C11   T    
C59   O47   A    
C36   C38   T    
C123  H44   S    
C111  H8    S    
C66   O16   A    
Cu12  O14   S    
C63   O9    A    
C89   C93   T    
C116  H22   S    
C2    C14   S    
C125  H51   S    
C1    O1    A    
Cu8   O46   S    
C68   O20   A    
C61   O11   A    
C54   O40   A    
C44   C48   T    
C1    C13   S    
C55   O37   A    
C46   O29   A    
C58   C104  S    
C16   C18   S    
C115  H19   S    
C22   C26   T    
C128  H60   S    
Cu1   Cu2   S    
C102  C111  S    
Cu4   O34   S    
C109  H3    S    
C127  H56   S    
C63   C93   S    
C126  H52   S    
C110  H4    S    
C43   C47   T    
C2    O3    A    
C61   C91   S    
C32   C34   T    
C3    C129  S    
C19   C21   S    
C67   O21   A    
