data_mof_unit_49121.cif
_audit_creation_date              2012-12-11T15:34:49-0500
_audit_creation_method            fapswitch 2.2
_symmetry_space_group_name_H-M    P1
_symmetry_Int_Tables_number       1
_space_group_crystal_system       triclinic
_cell_length_a                    30.660455
_cell_length_b                    7.236242
_cell_length_c                    25.854058
_cell_angle_alpha                 89.72371
_cell_angle_beta                  112.262174
_cell_angle_gamma                 89.740018
_cell_volume                      5308.38903587

loop_
_atom_site_label
_atom_site_type_symbol
_atom_type_description
_atom_site_fract_x
_atom_site_fract_y
_atom_site_fract_z
_atom_type_partial_charge
O1    O     O_R   0.295360 0.592990 0.320420 -0.536443
O2    O     O_R   0.704640 0.407010 0.679580 -0.518599
O3    O     O_R   0.204640 0.092990 0.179580 -0.522859
O4    O     O_R   0.795360 0.907010 0.820420 -0.519353
O5    O     O_R   0.294060 0.265620 0.213230 -0.538537
O6    O     O_R   0.705940 0.734380 0.786770 -0.537706
O7    O     O_R   0.205940 0.765620 0.286770 -0.539183
O8    O     O_R   0.794060 0.234380 0.713230 -0.538411
C1    C     C_R   0.304767 0.432315 0.200200 0.698524
C2    C     C_R   0.695328 0.567716 0.799923 0.703540
C3    C     C_R   0.195505 0.932570 0.300121 0.688295
C4    C     C_R   0.804757 0.067627 0.700189 0.699151
O9    O     O_R   0.300850 0.263360 0.322080 -0.534876
O10   O     O_R   0.699150 0.736640 0.677920 -0.544664
O11   O     O_R   0.199150 0.763360 0.177920 -0.538546
O12   O     O_R   0.800850 0.236640 0.822080 -0.542719
O13   O     O_R   0.211480 0.091820 0.289210 -0.536252
O14   O     O_R   0.788520 0.908180 0.710790 -0.542416
O15   O     O_R   0.288520 0.591820 0.210790 -0.543198
O16   O     O_R   0.711480 0.408180 0.789210 -0.541327
C5    C     C_R   0.313166 0.431015 0.343576 0.742816
C6    C     C_R   0.686690 0.568344 0.656493 0.734364
C7    C     C_R   0.186523 0.933020 0.156591 0.728782
C8    C     C_R   0.813287 0.066618 0.843570 0.727363
O17   O     O_3   0.220670 0.426670 0.239090 -0.371654
O18   O     O_3   0.779330 0.573330 0.760910 -0.377149
O19   O     O_3   0.279330 0.926670 0.260910 -0.380176
O20   O     O_3   0.720670 0.073330 0.739090 -0.374999
V1    V     V_3+5 0.255440 0.152290 0.252020 1.423469
V2    V     V_3+5 0.744560 0.847710 0.747980 1.411633
V3    V     V_3+5 0.244560 0.652290 0.247980 1.409821
V4    V     V_3+5 0.755440 0.347710 0.752020 1.414025
C9    C     C_R   0.848774 0.045807 0.901420 -0.089901
C10   C     C_R   0.150019 0.946197 0.099179 -0.100160
C11   C     C_R   0.650958 0.555586 0.598818 -0.102335
C12   C     C_R   0.350018 0.436097 0.400601 -0.100501
C13   C     C_R   0.869545 0.906011 0.993178 -0.207874
C14   C     C_R   0.127505 0.008427 0.000327 -0.202983
C15   C     C_R   0.630011 0.468190 0.502162 -0.205675
C16   C     C_R   0.373570 0.408168 0.500786 -0.208343
C17   C     C_R   0.835046 0.965860 0.942787 0.301945
C18   C     C_R   0.162741 0.988053 0.053547 0.294482
C19   C     C_R   0.664623 0.501111 0.554868 0.294297
C20   C     C_R   0.338509 0.398943 0.447190 0.279728
C21   C     C_R   0.897204 0.063675 0.912085 -0.293735
C22   C     C_R   0.101947 0.932204 0.090544 -0.237693
C23   C     C_R   0.602649 0.569479 0.589152 -0.240528
C24   C     C_R   0.397081 0.474542 0.408542 -0.238718
C25   C     C_R   0.932470 0.983400 0.960600 0.090821
C26   C     C_R   0.065556 0.944406 0.036124 0.101550
C27   C     C_R   0.567138 0.513524 0.537568 0.102243
C28   C     C_R   0.434210 0.461108 0.462265 0.103306
C29   C     C_R   0.917544 0.913454 0.002213 0.055341
C30   C     C_R   0.079709 0.986521 0.991315 0.022784
C31   C     C_R   0.581962 0.475202 0.493202 0.040909
C32   C     C_R   0.420818 0.438800 0.508545 0.041813
C33   C     C_R   0.981774 0.969966 0.969455 -0.066938
C34   C     C_R   0.015843 0.923549 0.024548 -0.023633
C35   C     C_R   0.517956 0.490698 0.528419 -0.036818
C36   C     C_R   0.483763 0.468378 0.471927 -0.037013
C37   C     C_R   0.998566 0.847817 0.064230 0.287081
C38   C     C_R   0.998247 0.988766 0.924882 0.297772
C39   C     C_R   0.500882 0.435354 0.428440 0.287887
C40   C     C_R   0.502177 0.469663 0.573558 0.288649
C41   C     C_R   0.950143 0.842376 0.051934 -0.224728
C42   C     C_R   0.046496 0.002189 0.936991 -0.177392
C43   C     C_R   0.549216 0.435396 0.440296 -0.226499
C44   C     C_R   0.454522 0.440696 0.562623 -0.229885
H1    H     H_    0.937620 0.777985 0.081616 0.137448
H2    H     H_    0.058629 0.016629 0.902905 0.139786
H3    H     H_    0.561525 0.398980 0.407476 0.138029
H4    H     H_    0.443721 0.415013 0.597369 0.138643
H5    H     H_    0.094449 0.924202 0.127760 0.167814
H6    H     H_    0.906336 0.135394 0.881109 0.151612
H7    H     H_    0.403223 0.519504 0.372235 0.166868
H8    H     H_    0.594108 0.624573 0.622688 0.168669
H9    H     H_    0.858587 0.846463 0.024874 0.118827
H10   H     H_    0.137643 0.041862 0.965500 0.121031
H11   H     H_    0.640855 0.430920 0.468206 0.120987
H12   H     H_    0.363904 0.385827 0.536567 0.124474
C45   C     C_R   0.081997 0.865213 0.468819 0.567727
C46   C     C_R   0.919256 0.138534 0.532275 0.568650
C47   C     C_R   0.418887 0.365710 0.031976 0.569419
C48   C     C_R   0.581713 0.634873 0.968729 0.568937
N1    N     N_R   0.072406 0.975070 0.422413 -0.560283
N2    N     N_R   0.929287 0.030977 0.579280 -0.559207
N3    N     N_R   0.429118 0.470193 0.079214 -0.559077
N4    N     N_R   0.571585 0.529802 0.921634 -0.559223
C49   C     C_R   0.035102 0.096949 0.406223 0.583920
C50   C     C_R   0.967255 0.912031 0.596058 0.581737
C51   C     C_R   0.467147 0.586771 0.096107 0.579992
C52   C     C_R   0.533685 0.412633 0.904857 0.580429
C53   C     C_R   0.006512 0.116437 0.438113 -0.052693
C54   C     C_R   0.995500 0.891079 0.563818 -0.052098
C55   C     C_R   0.495264 0.608536 0.063756 -0.051185
C56   C     C_R   0.505492 0.391233 0.937130 -0.051447
C57   C     C_R   0.015396 0.998974 0.484990 -0.078849
C58   C     C_R   0.986416 0.007523 0.516718 -0.079447
C59   C     C_R   0.485948 0.495277 0.016366 -0.079431
C60   C     C_R   0.514766 0.504727 0.984470 -0.079270
C61   C     C_R   0.053301 0.872742 0.500273 -0.051319
C62   C     C_R   0.948272 0.132562 0.501183 -0.051212
C63   C     C_R   0.447732 0.372561 0.000699 -0.051041
C64   C     C_R   0.552930 0.627711 0.000080 -0.050913
C65   C     C_R   0.969058 0.247146 0.424447 0.288388
C66   C     C_R   0.032800 0.759729 0.577369 0.289427
C67   C     C_R   0.532652 0.737618 0.077460 0.289650
C68   C     C_R   0.468069 0.262301 0.923399 0.289349
C69   C     C_R   0.940012 0.250780 0.455253 -0.221734
C70   C     C_R   0.061540 0.754549 0.546200 -0.222356
C71   C     C_R   0.561409 0.742832 0.046313 -0.221749
C72   C     C_R   0.439245 0.257445 0.954464 -0.221560
O21   O     O_2   0.119468 0.749400 0.484842 -0.533931
O22   O     O_2   0.881002 0.250364 0.515190 -0.534530
O23   O     O_2   0.380583 0.256204 0.014829 -0.534035
O24   O     O_2   0.619846 0.745294 0.985638 -0.534552
O25   O     O_2   0.025164 0.195587 0.358690 -0.504396
O26   O     O_2   0.978280 0.817901 0.644548 -0.503337
O27   O     O_2   0.478358 0.677669 0.144813 -0.506239
O28   O     O_2   0.522696 0.320750 0.856345 -0.506057
H13   H     H_    0.911507 0.351084 0.443773 0.169183
H14   H     H_    0.089837 0.653372 0.557470 0.169110
H15   H     H_    0.589851 0.841916 0.057773 0.168976
H16   H     H_    0.410757 0.158556 0.942958 0.169050
C73   C     C_R   0.879599 0.879415 0.623505 -0.091625
C74   C     C_R   0.125348 0.122355 0.382252 -0.097497
C75   C     C_R   0.621711 0.378939 0.877933 -0.094122
C76   C     C_R   0.379598 0.621388 0.123734 -0.093725
H17   H     H_    0.887022 0.746210 0.609625 0.133720
H18   H     H_    0.120718 0.253544 0.399577 0.135721
H19   H     H_    0.614803 0.245659 0.892388 0.133064
H20   H     H_    0.387046 0.754975 0.109993 0.133760
C77   C     C_R   0.850345 0.888004 0.653817 -0.215215
C78   C     C_R   0.154739 0.112463 0.352120 -0.219307
C79   C     C_R   0.650870 0.387915 0.847530 -0.214054
C80   C     C_R   0.350365 0.612403 0.154045 -0.219598
H21   H     H_    0.837307 0.760168 0.663976 0.128125
H22   H     H_    0.171867 0.237599 0.346783 0.150254
H23   H     H_    0.664557 0.260342 0.838052 0.128036
H24   H     H_    0.337331 0.740259 0.164320 0.128624
C81   C     C_R   0.838093 0.058788 0.670574 -0.054896
C82   C     C_R   0.162764 0.943076 0.330434 -0.054583
C83   C     C_R   0.662253 0.558830 0.829838 -0.053549
C84   C     C_R   0.338089 0.441227 0.170607 -0.052916
C85   C     C_R   0.857994 0.220516 0.658512 -0.200434
C86   C     C_R   0.139445 0.784770 0.338492 -0.205084
C87   C     C_R   0.641826 0.720405 0.841352 -0.202412
C88   C     C_R   0.357928 0.279343 0.158350 -0.197962
H25   H     H_    0.850070 0.354611 0.671335 0.132832
H26   H     H_    0.144326 0.652325 0.322045 0.137458
H27   H     H_    0.649137 0.854544 0.827847 0.131651
H28   H     H_    0.349956 0.144931 0.171009 0.131781
C89   C     C_R   0.888579 0.211295 0.629741 -0.094820
C90   C     C_R   0.109357 0.795574 0.367881 -0.094977
C91   C     C_R   0.611482 0.710858 0.870424 -0.096018
C92   C     C_R   0.388484 0.288853 0.129557 -0.095435
H29   H     H_    0.903850 0.337539 0.621698 0.134754
H30   H     H_    0.091578 0.672215 0.373205 0.134568
H31   H     H_    0.595816 0.836916 0.878134 0.133896
H32   H     H_    0.403699 0.162459 0.121317 0.133772
C93   C     C_R   0.899125 0.040805 0.611053 0.362678
C94   C     C_R   0.102372 0.964188 0.390544 0.368297
C95   C     C_R   0.601629 0.540136 0.889777 0.364204
C96   C     C_R   0.399052 0.459883 0.111072 0.363279
N5    N     N_2   0.210499 0.023377 0.061158 -0.531364
H33   H     H_    0.215342 0.101621 0.030307 0.260851
C97   C     C_3   0.243736 0.871837 0.081604 -0.504374
H34   H     H_    0.261827 0.845573 0.052338 0.192842
H35   H     H_    0.226360 0.741654 0.086216 0.191917
H36   H     H_    0.270395 0.910597 0.122801 0.195282
N6    N     N_2   0.786714 0.931400 0.932651 -0.528100
H37   H     H_    0.780199 0.834147 0.958112 0.258085
C98   C     C_3   0.754810 0.088391 0.918951 -0.508843
H38   H     H_    0.738548 0.102511 0.950528 0.195085
H39   H     H_    0.726627 0.064367 0.877525 0.194432
H40   H     H_    0.772889 0.220096 0.917551 0.186228
N7    N     N_2   0.291408 0.357501 0.440550 -0.536183
H41   H     H_    0.280513 0.428561 0.468075 0.259833
C99   C     C_3   0.282413 0.161621 0.441309 -0.526229
H42   H     H_    0.305227 0.099237 0.482030 0.190675
H43   H     H_    0.289040 0.090795 0.406958 0.212953
H44   H     H_    0.245109 0.139880 0.435624 0.201408
N8    N     N_2   0.712875 0.468757 0.563766 -0.530081
H45   H     H_    0.718965 0.386415 0.534682 0.260264
C100  C     C_3   0.744713 0.623441 0.582346 -0.507359
H46   H     H_    0.763286 0.646266 0.553390 0.193043
H47   H     H_    0.771103 0.590517 0.624482 0.195987
H48   H     H_    0.726013 0.753676 0.584307 0.189945
N9    N     N_2   0.028424 0.747018 0.112057 -0.535846
H49   H     H_    0.024469 0.605868 0.107394 0.265849
C101  C     C_3   0.028964 0.810094 0.165443 -0.560998
H50   H     H_    0.995864 0.771870 0.170731 0.202011
H51   H     H_    0.033633 0.962373 0.169022 0.208387
H52   H     H_    0.058941 0.743770 0.199642 0.204155
N10   N     N_2   0.968548 0.955600 0.867970 -0.526752
H53   H     H_    0.938919 0.876112 0.859938 0.260205
C102  C     C_3   0.966378 0.096079 0.826875 -0.529024
H54   H     H_    0.938163 0.061741 0.786112 0.200717
H55   H     H_    0.000169 0.102156 0.820590 0.213860
H56   H     H_    0.958564 0.233722 0.840279 0.188399
N11   N     N_2   0.471068 0.367644 0.375211 -0.538662
H57   H     H_    0.476611 0.229494 0.369962 0.263660
C103  C     C_3   0.468831 0.479649 0.327618 -0.554119
H58   H     H_    0.502260 0.469090 0.320489 0.206083
H59   H     H_    0.461759 0.626673 0.334200 0.204457
H60   H     H_    0.439688 0.430038 0.289624 0.206430
N12   N     N_2   0.534387 0.442105 0.629619 -0.536101
H61   H     H_    0.535691 0.306951 0.643013 0.264594
C104  C     C_3   0.530624 0.573048 0.670004 -0.560878
H62   H     H_    0.561459 0.555977 0.709948 0.208068
H63   H     H_    0.498097 0.548836 0.678241 0.206151
H64   H     H_    0.530431 0.717033 0.654744 0.201477
N13   N     N_2   0.960863 0.379855 0.380910 -0.464838
H65   H     H_    0.925626 0.407712 0.358675 0.253605
C105  C     C_3   0.987888 0.547323 0.398911 -0.469197
H66   H     H_    0.976664 0.621893 0.429336 0.174639
H67   H     H_    0.982010 0.638914 0.362269 0.199490
H68   H     H_    0.026159 0.514820 0.418590 0.212738
N14   N     N_2   0.040901 0.627019 0.620893 -0.463717
H69   H     H_    0.076096 0.597264 0.642738 0.253991
C106  C     C_3   0.013195 0.461039 0.603089 -0.468986
H70   H     H_    0.023753 0.385530 0.572280 0.174602
H71   H     H_    0.975011 0.495590 0.583942 0.209662
H72   H     H_    0.019129 0.369448 0.639745 0.201282
N15   N     N_2   0.540792 0.868197 0.121076 -0.464653
H73   H     H_    0.575984 0.896131 0.142831 0.253594
C107  C     C_3   0.512955 0.035643 0.103446 -0.470297
H74   H     H_    0.523315 0.112220 0.072544 0.174818
H75   H     H_    0.518965 0.125528 0.140164 0.200689
H76   H     H_    0.474784 0.002886 0.084462 0.209603
N16   N     N_2   0.459911 0.131700 0.879786 -0.464978
H77   H     H_    0.424708 0.104206 0.857939 0.253321
C108  C     C_3   0.487593 0.963912 0.897472 -0.470260
H78   H     H_    0.477076 0.887564 0.928285 0.174831
H79   H     H_    0.525787 0.996194 0.916582 0.210217
H80   H     H_    0.481601 0.874016 0.860760 0.200245

loop_
_geom_bond_atom_site_label_1
_geom_bond_atom_site_label_2
_ccdc_geom_bond_type
O17   V3    S    
C59   C63   A    
C103  H58   S    
C25   C29   A    
C77   H21   S    
N5    H33   S    
N3    C51   A    
O19   V1    S    
C9    C21   A    
N11   H57   S    
C82   C86   A    
O1    C5    A    
O3    C7    A    
C10   C18   A    
C52   C56   A    
C80   H24   S    
C11   C23   A    
C57   C58   A    
C100  H46   S    
C25   C33   A    
C33   C38   A    
C97   H35   S    
C5    C12   S    
C45   C61   A    
C98   H38   S    
C79   H23   S    
C6    C11   S    
C17   N6    S    
C35   C40   A    
C26   C30   A    
C47   C63   A    
C36   C39   A    
C50   O26   S    
O9    V1    S    
C75   C79   A    
C23   H8    S    
C14   C18   A    
C106  H72   S    
C105  H67   S    
C66   C70   A    
O4    C8    A    
C55   C59   A    
C100  H47   S    
N14   C106  S    
C54   C58   A    
C56   C60   A    
O1    V3    S    
C104  H64   S    
O13   V1    S    
C4    C81   S    
O2    V4    S    
C32   C44   A    
O3    V1    S    
O12   V4    S    
C28   C36   A    
C53   C65   A    
C86   H26   S    
C13   C17   A    
C1    O15   A    
C60   C64   A    
C15   C31   A    
C107  H74   S    
C2    O16   A    
N7    C99   S    
C14   C30   A    
O2    C6    A    
C87   C91   A    
C16   H12   S    
C12   C24   A    
C10   C22   A    
C90   H30   S    
C102  H54   S    
C11   C19   A    
C108  H78   S    
C16   C20   A    
C43   H3    S    
C18   N5    S    
C81   C85   A    
C99   H44   S    
C13   C29   A    
C34   C37   A    
O11   C7    A    
C66   N14   S    
C56   C68   A    
O15   V3    S    
C35   C36   A    
C48   O24   S    
C37   N9    S    
N1    C94   S    
N11   C103  S    
C24   H7    S    
N5    C97   S    
C38   N10   S    
O10   V2    S    
C76   H20   S    
C91   C95   A    
C40   N12   S    
C1    C84   S    
C45   N1    A    
C50   C54   A    
C97   H36   S    
O5    V1    S    
N13   C105  S    
C76   C96   A    
C103  H60   S    
C39   C43   A    
C65   N13   S    
C38   C42   A    
C91   H31   S    
N12   H61   S    
O8    V4    S    
C47   O23   S    
C92   H32   S    
O7    V3    S    
C46   O22   S    
N2    C50   A    
C105  H68   S    
N14   H69   S    
C74   H18   S    
N1    C49   A    
O18   V4    S    
C100  H48   S    
C23   C27   A    
C14   H10   S    
C16   C32   A    
C61   C70   A    
N13   H65   S    
C13   H9    S    
C49   C53   A    
C68   C72   A    
C89   C93   A    
C21   H6    S    
C26   C34   A    
C20   N7    S    
C102  H56   S    
O7    C3    A    
C105  H66   S    
C101  H51   S    
N8    H45   S    
O5    C1    A    
C106  H70   S    
C73   H17   S    
C78   C82   A    
C103  H59   S    
C108  H80   S    
C53   C57   A    
C31   C43   A    
C59   C60   A    
C86   C90   A    
C21   C25   A    
O8    C4    A    
C7    C10   S    
C57   C61   A    
C104  H62   S    
C46   C62   A    
O9    C5    A    
N16   C108  S    
N2    C93   S    
N4    C52   A    
C102  H55   S    
O11   V3    S    
C108  H79   S    
N6    H37   S    
C92   C96   A    
C98   H39   S    
C55   C67   A    
O14   V2    S    
O6    V2    S    
C76   C80   A    
C49   O25   S    
C83   C87   A    
C48   C64   A    
C80   C84   A    
C51   O27   S    
C12   C20   A    
C27   C35   A    
C45   O21   S    
C40   C44   A    
C97   H34   S    
C29   C41   A    
O16   V4    S    
C98   H40   S    
C73   C77   A    
C101  H50   S    
C71   H15   S    
C65   C69   A    
C54   C66   A    
C75   C95   A    
C39   N11   S    
N15   H73   S    
C67   C71   A    
C90   C94   A    
C73   C93   A    
C88   H28   S    
C3    O13   A    
C47   N3    A    
C78   H22   S    
C64   C71   A    
C15   C19   A    
C72   H16   S    
C30   C42   A    
C44   H4    S    
N6    C98   S    
N4    C95   S    
C22   C26   A    
C77   C81   A    
C8    C9    S    
C9    C17   A    
O10   C6    A    
N8    C100  S    
C52   O28   S    
C101  H52   S    
C85   C89   A    
O20   V2    S    
C106  H71   S    
C107  H75   S    
C58   C62   A    
C70   H14   S    
C46   N2    A    
C69   H13   S    
C33   C34   A    
C42   H2    S    
C48   N4    A    
C41   H1    S    
C87   H27   S    
C67   N15   S    
C19   N8    S    
C79   C83   A    
N15   C107  S    
N3    C96   S    
C27   C31   A    
C2    C83   S    
C89   H29   S    
N9    H49   S    
C3    C82   S    
C75   H19   S    
O6    C2    A    
C51   C55   A    
N10   H53   S    
C37   C41   A    
C24   C28   A    
C107  H76   S    
C85   H25   S    
C74   C78   A    
O12   C8    A    
N7    H41   S    
C4    O14   A    
N16   H77   S    
N12   C104  S    
C99   H42   S    
C104  H63   S    
C63   C72   A    
C62   C69   A    
C99   H43   S    
C88   C92   A    
N9    C101  S    
C74   C94   A    
C68   N16   S    
C22   H5    S    
O4    V2    S    
C28   C32   A    
C15   H11   S    
N10   C102  S    
C84   C88   A    
