data_mof_unit_35109.cif
_audit_creation_date              2012-12-11T14:43:35-0500
_audit_creation_method            fapswitch 2.2
_symmetry_space_group_name_H-M    P1
_symmetry_Int_Tables_number       1
_space_group_crystal_system       triclinic
_cell_length_a                    20.829619
_cell_length_b                    7.107571
_cell_length_c                    16.431343
_cell_angle_alpha                 90.00206
_cell_angle_beta                  92.399067
_cell_angle_gamma                 90.003081
_cell_volume                      2430.4952275

loop_
_atom_site_label
_atom_site_type_symbol
_atom_type_description
_atom_site_fract_x
_atom_site_fract_y
_atom_site_fract_z
_atom_type_partial_charge
O1    O     O_R   0.564840 0.505290 0.579830 -0.516947
O2    O     O_R   0.435160 0.005290 0.420170 -0.516898
O3    O     O_R   0.556720 0.179930 0.409350 -0.537424
O4    O     O_R   0.443280 0.679930 0.590650 -0.537421
C1    C     C_R   0.569904 0.343932 0.380542 0.811614
C2    C     C_R   0.430095 0.843934 0.619456 0.811529
O5    O     O_R   0.572280 0.175810 0.578530 -0.530881
O6    O     O_R   0.427720 0.675810 0.421470 -0.530843
O7    O     O_R   0.450830 0.001920 0.590540 -0.529741
O8    O     O_R   0.549170 0.501920 0.409460 -0.529745
C3    C     C_R   0.590125 0.343784 0.604427 0.832506
C4    C     C_R   0.409877 0.843773 0.395568 0.832471
O9    O     O_3   0.460130 0.338030 0.503750 -0.374776
O10   O     O_3   0.539870 0.838030 0.496250 -0.374852
V1    V     V_3+5 0.507400 0.064560 0.499310 1.679201
V2    V     V_3+5 0.492600 0.564560 0.500690 1.679260
C5    C     C_R   0.141396 0.917610 0.170660 -0.357210
C6    C     C_R   0.858612 0.417558 0.829335 -0.357216
C7    C     C_R   0.356116 0.847265 0.332819 -0.278020
C8    C     C_R   0.643882 0.347306 0.667179 -0.278071
C9    C     C_R   0.306954 0.712123 0.208197 0.503398
C10   C     C_R   0.692984 0.212421 0.791880 0.503410
C11   C     C_R   0.360092 0.734112 0.262996 0.288300
C12   C     C_R   0.639860 0.234367 0.737056 0.288254
C13   C     C_R   0.299419 0.950225 0.345207 0.421974
C14   C     C_R   0.700622 0.450037 0.654737 0.421872
C15   C     C_R   0.246412 0.939416 0.287336 -0.258335
C16   C     C_R   0.753619 0.439275 0.712624 -0.258401
C17   C     C_R   0.249596 0.815901 0.219014 -0.279934
C18   C     C_R   0.750375 0.316029 0.781024 -0.280003
C19   C     C_R   0.195706 0.802789 0.162775 0.722432
C20   C     C_R   0.804249 0.302973 0.837289 0.722291
C21   C     C_R   0.138452 0.035944 0.238753 0.212056
C22   C     C_R   0.861620 0.535605 0.761163 0.211962
C23   C     C_R   0.189725 0.046510 0.296218 0.757304
C24   C     C_R   0.810357 0.546130 0.703679 0.757329
C25   C     C_R   0.380466 0.769166 0.836033 0.447254
C26   C     C_R   0.619532 0.269308 0.163951 0.447275
C27   C     C_R   0.391543 0.845186 0.692970 -0.232146
C28   C     C_R   0.608459 0.345182 0.307031 -0.232187
C29   C     C_R   0.081789 0.949880 0.733217 0.498740
C30   C     C_R   0.918216 0.449818 0.266790 0.498676
C31   C     C_R   0.116541 0.937509 0.662982 0.325274
C32   C     C_R   0.883469 0.437365 0.337026 0.325223
C33   C     C_R   0.182408 0.900296 0.667790 0.552830
C34   C     C_R   0.817598 0.400175 0.332213 0.552920
C35   C     C_R   0.216387 0.887629 0.744553 -0.146160
C36   C     C_R   0.783615 0.387635 0.255449 -0.146196
C37   C     C_R   0.179463 0.888983 0.816305 -0.311633
C38   C     C_R   0.820534 0.389096 0.183695 -0.311689
C39   C     C_R   0.285182 0.866508 0.752501 0.025001
C40   C     C_R   0.714819 0.366560 0.247500 0.024950
C41   C     C_R   0.314413 0.820870 0.830009 -0.298614
C42   C     C_R   0.685581 0.321060 0.169980 -0.298656
C43   C     C_R   0.276993 0.829908 0.899374 0.688201
C44   C     C_R   0.722988 0.330304 0.100611 0.688343
C45   C     C_R   0.211582 0.867270 0.892711 0.583151
C46   C     C_R   0.788404 0.367636 0.107281 0.583265
C47   C     C_R   0.326308 0.893388 0.686600 -0.123651
C48   C     C_R   0.673696 0.393375 0.313409 -0.123623
C49   C     C_R   0.417715 0.774177 0.766760 0.336161
C50   C     C_R   0.582289 0.274196 0.233231 0.336140
C51   C     C_R   0.111404 0.915118 0.809700 -0.254860
C52   C     C_R   0.888598 0.415136 0.190302 -0.254893
H1    H     H_    0.309368 0.952927 0.629438 0.230871
H2    H     H_    0.690644 0.452870 0.370579 0.230939
O11   O     O_R   0.950790 0.256670 0.090520 -0.532235
O12   O     O_R   0.049210 0.756670 0.909480 -0.532138
O13   O     O_R   0.927720 0.590370 0.921470 -0.531089
O14   O     O_R   0.072280 0.090370 0.078530 -0.531088
C53   C     C_R   0.910855 0.421961 0.894177 0.914439
C54   C     C_R   0.089146 0.921973 0.105825 0.914342
O15   O     O_R   0.943270 0.586180 0.090640 -0.545050
O16   O     O_R   0.056730 0.086180 0.909360 -0.545124
O17   O     O_R   0.064850 0.759970 0.079840 -0.514347
O18   O     O_R   0.935150 0.259970 0.920160 -0.514496
C55   C     C_R   0.930202 0.418543 0.119058 0.939445
C56   C     C_R   0.069800 0.918540 0.880942 0.939362
O19   O     O_3   0.039850 0.428050 0.996240 -0.385346
O20   O     O_3   0.960150 0.928050 0.003760 -0.385460
V3    V     V_3+5 0.992610 0.701540 0.000700 1.711921
V4    V     V_3+5 0.007390 0.201540 0.999300 1.711789
F1    F     F_    0.195438 0.682373 0.098756 -0.562003
F2    F     F_    0.804455 0.182834 0.901396 -0.562078
F3    F     F_    0.018406 0.994654 0.726802 -0.575083
F4    F     F_    0.981598 0.494629 0.273209 -0.575033
F5    F     F_    0.210632 0.864008 0.596616 -0.599191
F6    F     F_    0.789372 0.363845 0.403382 -0.599087
Cl1   Cl    Cl    0.076590 0.964509 0.567186 -0.233825
Cl2   Cl    Cl    0.923426 0.464248 0.432825 -0.233699
F7    F     F_    0.180175 0.883298 0.962907 -0.650978
F8    F     F_    0.819799 0.383967 0.037090 -0.650981
Cl3   Cl    Cl    0.068723 0.167355 0.256559 -0.408761
Cl4   Cl    Cl    0.931410 0.666710 0.743300 -0.408832
Cl5   Cl    Cl    0.314991 0.550630 0.127043 -0.279281
Cl6   Cl    Cl    0.684894 0.051129 0.873092 -0.279172
F9    F     F_    0.183125 0.166098 0.359674 -0.518705
F10   F     F_    0.817015 0.665440 0.640142 -0.518581
Cl7   Cl    Cl    0.433789 0.623766 0.241965 -0.433087
Cl8   Cl    Cl    0.566133 0.124193 0.758105 -0.433068
Cl9   Cl    Cl    0.295552 0.082673 0.436470 -0.468112
Cl10  Cl    Cl    0.704550 0.582084 0.563380 -0.468185
Cl11  Cl    Cl    0.497789 0.689475 0.772425 -0.432066
Cl12  Cl    Cl    0.502227 0.189372 0.227560 -0.432039
F11   F     F_    0.303457 0.812977 0.975785 -0.526235
F12   F     F_    0.696505 0.313661 0.024197 -0.526202
Cl13  Cl    Cl    0.417675 0.684519 0.927908 -0.256007
Cl14  Cl    Cl    0.582328 0.184723 0.072058 -0.255983

loop_
_geom_bond_atom_site_label_1
_geom_bond_atom_site_label_2
_ccdc_geom_bond_type
C11   Cl7   S    
C28   C48   A    
C15   C17   A    
C38   C52   A    
C52   C55   S    
O11   C55   A    
O2    C4    A    
C2    O7    A    
C19   F1    S    
C35   C37   A    
O5    C3    A    
C31   Cl1   S    
C5    C21   A    
C43   F11   S    
C37   C51   A    
O12   V3    S    
C49   Cl11  S    
C25   Cl13  S    
C53   O18   A    
C28   C50   A    
C33   C35   A    
O13   C53   A    
C40   C48   A    
C24   F10   S    
C8    C12   A    
C40   C42   A    
O1    C3    A    
C30   F4    S    
C45   F7    S    
C34   F6    S    
C25   C41   A    
C36   C38   A    
C48   H2    S    
O6    V2    S    
C29   C31   A    
C30   C32   A    
O16   V4    S    
C54   O17   A    
C20   F2    S    
O15   V3    S    
C32   C34   A    
C50   Cl12  S    
C41   C43   A    
O12   C56   A    
C27   C49   A    
C42   C44   A    
C3    C8    S    
C38   C46   A    
O20   V4    S    
O18   V4    S    
O19   V3    S    
O17   V3    S    
C35   C39   A    
O5    V1    S    
C9    Cl5   S    
C15   C23   A    
C9    C17   A    
C39   C41   A    
O4    V2    S    
C7    C11   A    
C31   C33   A    
C26   C42   A    
O6    C4    A    
C27   C47   A    
O10   V1    S    
O1    V2    S    
O2    V1    S    
C6    C22   A    
C44   F12   S    
C5    C54   S    
O4    C2    A    
C43   C45   A    
C5    C19   A    
C10   C12   A    
C1    C28   S    
C6    C20   A    
C29   C51   A    
C30   C52   A    
C32   Cl2   S    
O14   V4    S    
C6    C53   S    
C10   C18   A    
C33   F5    S    
C12   Cl8   S    
C10   Cl6   S    
C22   Cl4   S    
O20   V3    S    
O3    C1    A    
C21   Cl3   S    
O19   V4    S    
C25   C49   A    
C13   C15   A    
C29   F3    S    
C14   C16   A    
C9    C11   A    
O7    V1    S    
C1    O8    A    
C17   C19   A    
O8    V2    S    
C14   Cl10  S    
C18   C20   A    
C13   Cl9   S    
C37   C45   A    
C8    C14   A    
C4    C7    S    
C16   C18   A    
C21   C23   A    
C44   C46   A    
C22   C24   A    
C26   Cl14  S    
C7    C13   A    
O13   V3    S    
C34   C36   A    
C36   C40   A    
C39   C47   A    
C16   C24   A    
O11   V4    S    
O16   C56   A    
O9    V2    S    
O15   C55   A    
C2    C27   S    
O3    V1    S    
O14   C54   A    
C23   F9    S    
C46   F8    S    
C47   H1    S    
C26   C50   A    
C51   C56   S    
