data_mof_unit_17614.cif
_audit_creation_date              2012-12-11T15:21:34-0500
_audit_creation_method            fapswitch 2.2
_symmetry_space_group_name_H-M    P1
_symmetry_Int_Tables_number       1
_space_group_crystal_system       triclinic
_cell_length_a                    19.135043
_cell_length_b                    7.148043
_cell_length_c                    17.685731
_cell_angle_alpha                 90.001968
_cell_angle_beta                  108.98337
_cell_angle_gamma                 90.000824
_cell_volume                      2287.45764916

loop_
_atom_site_label
_atom_site_type_symbol
_atom_type_description
_atom_site_fract_x
_atom_site_fract_y
_atom_site_fract_z
_atom_type_partial_charge
O1    O     O_R   0.562310 0.505770 0.439670 -0.527324
O2    O     O_R   0.437690 0.005770 0.560330 -0.527344
O3    O     O_R   0.411650 0.169150 0.405330 -0.539196
O4    O     O_R   0.588350 0.669150 0.594670 -0.539175
C1    C     C_R   0.385032 0.345984 0.382214 0.650704
C2    C     C_R   0.614974 0.845985 0.617779 0.650740
O5    O     O_R   0.560140 0.175610 0.430010 -0.530789
O6    O     O_R   0.439860 0.675610 0.569990 -0.530744
O7    O     O_R   0.587240 0.012100 0.585200 -0.537920
O8    O     O_R   0.412760 0.512100 0.414800 -0.537922
C3    C     C_R   0.579217 0.345035 0.413002 0.735328
C4    C     C_R   0.420761 0.845030 0.586974 0.735367
O9    O     O_3   0.508720 0.341420 0.550890 -0.358131
O10   O     O_3   0.491280 0.841420 0.449110 -0.358116
V1    V     V_3+5 0.498380 0.063930 0.490560 1.493064
V2    V     V_3+5 0.501620 0.563930 0.509440 1.493111
C5    C     C_R   0.182715 0.060301 0.871130 -0.160363
C6    C     C_R   0.817290 0.560340 0.128863 -0.160422
C7    C     C_R   0.131101 0.917120 0.866246 -0.070700
C8    C     C_R   0.868894 0.417122 0.133743 -0.070744
C9    C     C_R   0.128534 0.763544 0.815711 -0.215144
C10   C     C_R   0.871427 0.263494 0.184242 -0.215198
C11   C     C_R   0.176138 0.754021 0.769746 0.118532
C12   C     C_R   0.823783 0.253942 0.230162 0.118563
C13   C     C_R   0.228927 0.896841 0.776140 0.075920
C14   C     C_R   0.771026 0.396838 0.223802 0.075914
C15   C     C_R   0.232196 0.049296 0.827425 0.035872
C16   C     C_R   0.767802 0.549347 0.172559 0.035833
C17   C     C_R   0.171591 0.604301 0.717266 -0.197913
C18   C     C_R   0.828249 0.104089 0.282547 -0.197947
C19   C     C_R   0.218061 0.596979 0.670702 -0.150174
C20   C     C_R   0.781721 0.096691 0.329047 -0.150151
C21   C     C_R   0.271450 0.736387 0.677368 0.148516
C22   C     C_R   0.728389 0.236209 0.322441 0.148517
C23   C     C_R   0.278250 0.886777 0.731255 -0.020712
C24   C     C_R   0.721679 0.386773 0.268661 -0.020735
C25   C     C_R   0.334245 0.025017 0.740779 -0.039804
C26   C     C_R   0.665736 0.525145 0.259198 -0.039907
C27   C     C_R   0.334620 0.181225 0.791475 0.322271
C28   C     C_R   0.665373 0.681337 0.208485 0.322237
C29   C     C_R   0.284213 0.190166 0.833711 -0.197420
C30   C     C_R   0.715794 0.690245 0.166260 -0.197461
C31   C     C_R   0.317740 0.726797 0.630528 -0.218762
C32   C     C_R   0.682087 0.226566 0.369261 -0.218541
C33   C     C_R   0.374410 0.857432 0.639935 -0.134349
C34   C     C_R   0.625531 0.357448 0.359997 -0.134494
C35   C     C_R   0.386282 0.998941 0.699064 0.271120
C36   C     C_R   0.613720 0.499158 0.300955 0.270947
H1    H     H_    0.185479 0.178557 0.910422 0.131665
H2    H     H_    0.814533 0.678613 0.089575 0.131622
H3    H     H_    0.088579 0.652935 0.811124 0.119406
H4    H     H_    0.911372 0.152846 0.188821 0.119408
H5    H     H_    0.131573 0.493474 0.711664 0.119984
H6    H     H_    0.868241 0.993203 0.288120 0.119987
H7    H     H_    0.212906 0.480393 0.630058 0.116096
H8    H     H_    0.786809 0.979986 0.369613 0.116084
H9    H     H_    0.310109 0.615590 0.586831 0.125388
H10   H     H_    0.689647 0.115165 0.412859 0.125538
H11   H     H_    0.285100 0.310612 0.871298 0.175125
H12   H     H_    0.714902 0.810662 0.128638 0.175112
C37   C     C_3   0.755380 0.782472 0.835220 -0.270872
C38   C     C_3   0.244546 0.282013 0.164837 -0.270794
H13   H     H_    0.780421 0.641539 0.850940 0.186739
H14   H     H_    0.219420 0.141122 0.149205 0.186521
H15   H     H_    0.743648 0.835139 0.888978 0.186058
H16   H     H_    0.256309 0.334352 0.111044 0.186091
C39   C     C_3   0.681757 0.762191 0.764386 -0.284539
C40   C     C_3   0.318161 0.261653 0.235676 -0.284610
H17   H     H_    0.635308 0.819293 0.782187 0.195161
H18   H     H_    0.364654 0.318287 0.217818 0.195009
H19   H     H_    0.670101 0.611312 0.750423 0.180383
H20   H     H_    0.329693 0.110765 0.249756 0.180204
H21   H     H_    0.855891 0.688719 0.757331 0.159441
H22   H     H_    0.144028 0.189252 0.242844 0.159260
H23   H     H_    0.746938 0.639248 0.655894 0.148142
H24   H     H_    0.252945 0.139868 0.344351 0.147940
C41   C     C_3   0.826750 0.824701 0.739994 -0.386862
C42   C     C_3   0.173229 0.325203 0.260071 -0.386917
C43   C     C_3   0.772607 0.105641 0.786321 0.122339
C44   C     C_3   0.227516 0.605589 0.213519 0.122182
C45   C     C_3   0.811103 0.914000 0.813246 0.046495
C46   C     C_3   0.188908 0.413996 0.186742 0.046491
H25   H     H_    0.811021 0.199570 0.768597 0.095519
H26   H     H_    0.189176 0.699800 0.231230 0.095560
C47   C     C_3   0.686296 0.867247 0.689475 0.044238
C48   C     C_3   0.313714 0.367244 0.310511 0.044235
C49   C     C_3   0.754015 0.791538 0.669271 -0.339439
C50   C     C_3   0.245957 0.292113 0.330814 -0.339425
C51   C     C_3   0.701879 0.078485 0.713240 -0.286696
C52   C     C_3   0.298271 0.578443 0.286572 -0.286635
H27   H     H_    0.653349 0.139565 0.725817 0.215782
H28   H     H_    0.346828 0.639081 0.273890 0.215870
H29   H     H_    0.708690 0.158286 0.662010 0.111566
H30   H     H_    0.291558 0.658674 0.337751 0.111724
H31   H     H_    0.864038 0.917547 0.720027 0.124088
H32   H     H_    0.135984 0.418348 0.279974 0.124124
H33   H     H_    0.757939 0.862126 0.614725 0.126161
H34   H     H_    0.242085 0.363159 0.385294 0.126204
O11   O     O_R   0.087220 0.271820 0.085230 -0.546311
O12   O     O_R   0.912780 0.771820 0.914770 -0.546277
O13   O     O_R   0.939860 0.595540 0.069990 -0.548784
O14   O     O_R   0.060140 0.095540 0.930010 -0.548788
C53   C     C_R   0.918928 0.426626 0.085007 0.721326
C54   C     C_R   0.081073 0.926626 0.914993 0.721278
O15   O     O_R   0.088340 0.601930 0.094680 -0.521787
O16   O     O_R   0.911660 0.101930 0.905320 -0.521712
O17   O     O_R   0.062310 0.765410 0.939660 -0.526077
O18   O     O_R   0.937690 0.265410 0.060340 -0.526106
C55   C     C_R   0.116626 0.432185 0.116883 0.682398
C56   C     C_R   0.883379 0.932183 0.883112 0.682322
O19   O     O_3   0.991270 0.429630 0.949130 -0.374299
O20   O     O_3   0.008730 0.929630 0.050870 -0.374369
V3    V     V_3+5 0.001620 0.707150 0.009440 1.446911
V4    V     V_3+5 0.998380 0.207150 0.990560 1.446953
Br1   Br    Br    0.748386 0.234518 0.872402 -0.574975
Br2   Br    Br    0.251720 0.733953 0.127308 -0.574653
Br3   Br    Br    0.482942 0.115547 0.733015 -0.443698
Br4   Br    Br    0.517143 0.616159 0.267173 -0.443735
Br5   Br    Br    0.392773 0.404962 0.800852 -0.428461
Br6   Br    Br    0.607123 0.904998 0.198875 -0.428265

loop_
_geom_bond_atom_site_label_1
_geom_bond_atom_site_label_2
_ccdc_geom_bond_type
C43   H25   S    
O12   C56   A    
C43   Br1   S    
C40   C48   S    
C32   H10   S    
O1    C3    A    
C44   H26   S    
O2    C4    A    
O11   V4    S    
C27   C29   A    
C8    C53   S    
O5    C3    A    
C18   H6    S    
C2    C47   S    
O16   V4    S    
C11   C17   A    
O15   V3    S    
C23   C25   A    
C12   C14   A    
C48   C50   S    
C39   H19   S    
O11   C55   A    
C14   C24   A    
O13   V3    S    
O6    V2    S    
O18   V4    S    
C37   H13   S    
C15   C29   A    
O17   V3    S    
C38   H14   S    
C5    C7    A    
C44   Br2   S    
C42   H32   S    
C19   C21   A    
C53   O18   A    
C51   H27   S    
H24   C50   S    
C6    C8    A    
C40   H20   S    
C28   C30   A    
C38   C46   S    
O13   C53   A    
C44   C52   S    
C2    O7    A    
O20   V3    S    
C32   C34   A    
C52   H30   S    
C33   C35   A    
C34   C36   A    
C39   C47   S    
C38   H16   S    
C47   C49   S    
C21   C31   A    
C46   C55   S    
C6    C16   A    
C37   C39   S    
C29   H11   S    
C44   C46   S    
C48   C52   S    
C30   H12   S    
C43   C45   S    
C47   C51   S    
C36   Br4   S    
O5    V1    S    
C41   H31   S    
C39   H17   S    
C5    C15   A    
O4    V2    S    
O14   V4    S    
C18   C20   A    
C7    C54   S    
C42   C46   S    
C52   H28   S    
C41   C45   S    
O6    C4    A    
C22   C32   A    
O1    V2    S    
O14   C54   A    
O2    V1    S    
C31   C33   A    
C13   C23   A    
C1    C48   S    
H23   C49   S    
C28   Br6   S    
C8    C10   A    
C9    C11   A    
C10   C12   A    
O4    C2    A    
C25   C35   A    
C5    H1    S    
C9    H3    S    
O3    V1    S    
C6    H2    S    
C10   H4    S    
O16   C56   A    
C42   C50   S    
O15   C55   A    
C7    C9    A    
C26   C36   A    
O12   V3    S    
C4    C33   S    
O3    C1    A    
C13   C15   A    
C14   C16   A    
C38   C40   S    
C24   C26   A    
O7    V1    S    
C1    O8    A    
C25   C27   A    
C37   C45   S    
C26   C28   A    
C17   H5    S    
C27   Br5   S    
C16   C30   A    
C21   C23   A    
O19   V4    S    
C22   C24   A    
C11   C13   A    
C51   H29   S    
C12   C18   A    
C43   C51   S    
C31   H9    S    
C37   H15   S    
C35   Br3   S    
C45   C56   S    
C41   C49   S    
C17   C19   A    
H22   C42   S    
O9    V2    S    
C40   H18   S    
H21   C41   S    
O10   V1    S    
C3    C34   S    
O8    V2    S    
C19   H7    S    
C20   H8    S    
C54   O17   A    
C50   H34   S    
C20   C22   A    
C49   H33   S    
