data_mof_unit_53226.cif
_audit_creation_date              2012-12-10T17:33:41-0500
_audit_creation_method            fapswitch 2.2
_symmetry_space_group_name_H-M    P1
_symmetry_Int_Tables_number       1
_space_group_crystal_system       triclinic
_cell_length_a                    11.678288
_cell_length_b                    12.358645
_cell_length_c                    13.216982
_cell_angle_alpha                 116.568529
_cell_angle_beta                  77.38492
_cell_angle_gamma                 100.849478
_cell_volume                      1655.96711014

loop_
_atom_site_label
_atom_site_type_symbol
_atom_type_description
_atom_site_fract_x
_atom_site_fract_y
_atom_site_fract_z
_atom_type_partial_charge
C1    C     C_R   0.512623 0.854730 0.286564 0.750778
C2    C     C_R   0.475542 0.226231 0.835624 -0.054124
C3    C     C_R   0.609005 0.812023 0.088848 -0.187873
C4    C     C_R   0.650608 0.730023 0.979428 -0.128844
C5    C     C_R   0.615872 0.606169 0.943785 -0.150457
C6    C     C_R   0.531399 0.561662 0.014856 0.088755
C7    C     C_R   0.484185 0.646775 0.124598 0.081342
C8    C     C_R   0.491616 0.435683 0.980618 0.085381
C9    C     C_R   0.410480 0.397173 0.058266 0.157710
C10   C     C_R   0.361049 0.482588 0.162666 -0.237727
C11   C     C_R   0.392529 0.605411 0.192433 -0.184402
C12   C     C_R   0.715666 0.999436 0.499634 0.800503
C13   C     C_R   0.524417 0.347110 0.869559 -0.218490
C14   C     C_R   0.406467 0.188248 0.916927 -0.181760
C15   C     C_R   0.529898 0.771317 0.163990 -0.097251
C16   C     C_R   0.700178 0.349826 0.337252 0.368036
C17   C     C_R   0.342383 0.757030 0.647676 0.326161
C18   C     C_R   0.324489 0.670606 0.690797 -0.327972
C19   C     C_R   0.393921 0.575784 0.644144 0.191410
C20   C     C_R   0.474421 0.557578 0.542303 -0.027678
C21   C     C_R   0.499986 0.655257 0.507595 0.210991
C22   C     C_R   0.534910 0.450298 0.477475 -0.165001
C23   C     C_R   0.487323 0.144696 0.713319 0.826892
C24   C     C_R   0.635093 0.451842 0.395596 -0.009348
C25   C     C_R   0.665616 0.552681 0.370061 -0.224419
C26   C     C_R   0.596565 0.649206 0.420945 -0.152434
C27   C     C_R   0.493401 0.336510 0.482212 0.604299
C28   C     C_R   0.668732 0.252184 0.367474 -0.125715
C29   C     C_R   0.284419 0.000067 0.499649 0.848376
C30   C     C_1   0.837393 0.998674 0.499295 -0.175083
C31   C     C_1   0.940074 0.998627 0.498922 0.008477
C32   C     C_1   0.060089 0.999034 0.498671 0.003808
C33   C     C_1   0.162778 0.999734 0.498868 -0.165609
C34   C     C_R   0.373713 0.273460 0.027801 -0.199360
Cu1   Cu    Cu3+1 0.526510 0.098270 0.475420 0.975408
Cu2   Cu    Cu3+1 0.473490 0.901730 0.524580 0.961018
H1    H     H_    0.372297 0.094135 0.893605 0.187432
H2    H     H_    0.741329 0.555737 0.306897 0.175893
H3    H     H_    0.259723 0.681395 0.766213 0.194821
H4    H     H_    0.623820 0.718421 0.390995 0.199336
H5    H     H_    0.293940 0.454499 0.219678 0.145563
H6    H     H_    0.314522 0.243380 0.087939 0.140011
H7    H     H_    0.581411 0.370647 0.804976 0.158768
H8    H     H_    0.644220 0.906704 0.116774 0.148571
H9    H     H_    0.657339 0.548124 0.860168 0.137498
H10   H     H_    0.714273 0.762187 0.923304 0.149648
H11   H     H_    0.342463 0.667166 0.268967 0.176144
H12   H     H_    0.722753 0.177394 0.329296 0.168427
N1    N     N_R   0.566700 0.246290 0.438210 -0.245336
N2    N     N_R   0.434010 0.754320 0.561170 -0.219911
O1    O     O_R   0.533340 0.972510 0.318140 -0.588400
O2    O     O_R   0.488570 0.806530 0.359650 -0.608075
O3    O     O_R   0.685190 0.083000 0.479260 -0.581156
O4    O     O_R   0.640410 0.917020 0.520770 -0.588019
O5    O     O_R   0.511430 0.193470 0.640350 -0.542700
O6    O     O_R   0.466660 0.027490 0.681860 -0.566277
O7    O     O_R   0.359590 0.082980 0.479230 -0.537145
O8    O     O_R   0.314810 0.917000 0.520740 -0.551952
O9    O     O_3   0.797492 0.346435 0.254837 -0.606689
C35   C     C_3   0.759912 0.308771 0.147923 0.048742
H13   H     H_    0.828421 0.347280 0.096646 0.176345
H14   H     H_    0.675920 0.344524 0.155550 0.130597
C36   C     C_3   0.748142 0.169704 0.082782 -0.372192
H15   H     H_    0.832133 0.135005 0.075490 0.236081
H16   H     H_    0.676534 0.129402 0.130155 0.203165
C37   C     C_3   0.718951 0.129186 0.963149 -0.879623
H17   H     H_    0.634579 0.162062 0.968741 0.261191
H18   H     H_    0.709714 0.028294 0.918690 0.259772
H19   H     H_    0.790489 0.165283 0.912155 0.258655
O10   O     O_3   0.376515 0.311828 0.521837 -0.558983
C38   C     C_3   0.306251 0.292367 0.439187 0.048370
H20   H     H_    0.313395 0.199016 0.369515 0.157319
H21   H     H_    0.332475 0.358658 0.400193 0.107958
C39   C     C_3   0.177937 0.305913 0.496818 -0.303639
H22   H     H_    0.151125 0.247757 0.543874 0.240328
H23   H     H_    0.169708 0.401981 0.559829 0.228736
C40   C     C_3   0.095241 0.270379 0.409557 -0.900967
H24   H     H_    0.119710 0.328629 0.362386 0.258434
H25   H     H_    0.003140 0.282561 0.454397 0.267860
H26   H     H_    0.099611 0.173466 0.347677 0.254882
I1    I     I_    0.222905 0.892108 0.736502 -0.383256
I2    I     I_    0.391308 0.496581 0.758395 -0.362025

loop_
_geom_bond_atom_site_label_1
_geom_bond_atom_site_label_2
_ccdc_geom_bond_type
C16   C28   A    
C37   H18   S    
C21   C26   A    
C36   H16   S    
C8    C13   A    
Cu1   O3    S    
C11   H11   S    
C19   C20   A    
C34   H6    S    
Cu2   N2    S    
C23   O6    A    
C4    H10   S    
C40   H24   S    
C7    C11   A    
C39   H23   S    
C35   C36   S    
Cu2   O8    S    
C5    C6    A    
C37   H19   S    
C29   C33   S    
C35   H14   S    
C18   C19   A    
C2    C13   A    
Cu1   Cu2   S    
C8    C9    A    
C39   C40   S    
Cu1   N1    S    
O10   C38   S    
C1    C15   S    
C19   I2    S    
C9    C10   A    
C12   O3    A    
Cu2   O2    S    
C7    C15   A    
C37   H17   S    
C36   C37   S    
O9    C35   S    
C16   C24   A    
C10   H5    S    
C21   N2    A    
C40   H25   S    
C3    H8    S    
C39   H22   S    
Cu1   O5    S    
C24   C25   A    
C38   H21   S    
C6    C8    A    
C25   C26   A    
C5    H9    S    
C35   H13   S    
C16   O9    S    
C18   H3    S    
Cu2   O6    S    
C25   H2    S    
C28   N1    A    
C31   C32   S    
C17   C18   A    
C20   C21   A    
C1    O1    A    
C27   O10   S    
C20   C22   A    
C22   C27   A    
Cu1   O1    S    
C9    C34   A    
C22   C24   A    
C3    C4    A    
C13   H7    S    
C3    C15   A    
C40   H26   S    
C28   H12   S    
C12   C30   S    
C29   O7    A    
C4    C5    A    
C17   N2    A    
C14   C34   A    
C38   C39   S    
C23   O5    A    
C6    C7    A    
Cu1   O7    S    
C32   C33   T    
C38   H20   S    
C14   H1    S    
C26   H4    S    
C30   C31   T    
C17   I1    S    
C2    C14   A    
C1    O2    A    
Cu2   O4    S    
C10   C11   A    
C36   H15   S    
C29   O8    A    
C2    C23   S    
C12   O4    A    
C27   N1    A    
