data_mof_unit_15362.cif
_audit_creation_date              2012-12-11T17:25:55-0500
_audit_creation_method            fapswitch 2.2
_symmetry_space_group_name_H-M    P1
_symmetry_Int_Tables_number       1
_space_group_crystal_system       triclinic
_cell_length_a                    22.592269
_cell_length_b                    22.71586
_cell_length_c                    23.51447
_cell_angle_alpha                 90.120714
_cell_angle_beta                  89.856189
_cell_angle_gamma                 90.000694
_cell_volume                      12067.6275109

loop_
_atom_site_label
_atom_site_type_symbol
_atom_type_description
_atom_site_fract_x
_atom_site_fract_y
_atom_site_fract_z
_atom_type_partial_charge
C1    C     C_R   0.853705 0.077487 0.415291 0.735495
C2    C     C_R   0.864300 0.932363 0.399682 0.688479
C3    C     C_R   0.246324 0.687202 0.349315 0.360346
C4    C     C_R   0.685295 0.756428 0.654600 0.367445
C5    C     C_R   0.246948 0.162425 0.217027 0.373954
C6    C     C_R   0.154404 0.774507 0.803994 0.372179
C7    C     C_R   0.829360 0.257958 0.233347 0.356010
C8    C     C_R   0.778458 0.166453 0.209088 0.373988
C9    C     C_R   0.238976 0.840794 0.793150 0.393256
C10   C     C_R   0.156407 0.212956 0.187972 0.344015
C11   C     C_R   0.768243 0.687943 0.662351 0.371790
C12   C     C_R   0.312957 0.770128 0.332493 0.376051
C13   C     C_R   0.066372 0.864820 0.600619 0.706440
C14   C     C_R   0.767964 0.155229 0.801502 0.406598
C15   C     C_R   0.845808 0.756622 0.210212 0.360347
C16   C     C_R   0.235300 0.312058 0.659305 0.357962
C17   C     C_R   0.258686 0.258651 0.639173 -0.343202
C18   C     C_R   0.827355 0.814270 0.223000 -0.340953
C19   C     C_R   0.822265 0.176845 0.780590 -0.364577
C20   C     C_R   0.262739 0.746033 0.359003 -0.348590
C21   C     C_R   0.743198 0.739598 0.640073 -0.342713
C22   C     C_R   0.186441 0.174228 0.224341 -0.330047
C23   C     C_R   0.182487 0.821677 0.776196 -0.357432
C24   C     C_R   0.922349 0.146293 0.416054 0.740749
C25   C     C_R   0.813909 0.199741 0.246201 -0.328016
C26   C     C_R   0.765498 0.749479 0.142547 -0.341427
C27   C     C_R   0.317975 0.319844 0.724250 -0.352924
C28   C     C_R   0.324839 0.679724 0.279263 -0.343639
C29   C     C_R   0.760205 0.240700 0.862389 -0.352847
C30   C     C_R   0.250119 0.235044 0.142209 -0.327747
C31   C     C_R   0.681456 0.676058 0.721946 -0.355183
C32   C     C_R   0.761321 0.254841 0.154380 -0.304385
C33   C     C_R   0.243451 0.759923 0.859566 -0.347519
C34   C     C_3   0.946205 0.748046 0.222099 0.260372
C35   C     C_R   0.850067 0.919254 0.575248 0.778314
C36   C     C_3   0.971741 0.702071 0.181128 -0.290739
C37   C     C_3   0.035142 0.717161 0.164006 -1.026600
C38   C     C_3   0.186433 0.362495 0.590915 0.220067
C39   C     C_3   0.125388 0.382711 0.571134 -0.226207
C40   C     C_3   0.129354 0.417472 0.515793 -0.986283
C41   C     C_3   0.305560 0.862457 0.295765 0.245895
C42   C     C_3   0.323893 0.926675 0.303680 -0.256232
C43   C     C_3   0.301666 0.964750 0.254735 -0.968931
C44   C     C_3   0.712519 0.119278 0.727260 0.248037
C45   C     C_3   0.645532 0.114873 0.735828 -0.284119
C46   C     C_R   0.135433 0.065622 0.399228 0.691451
C47   C     C_3   0.612579 0.125562 0.680202 -1.012160
C48   C     C_3   0.061541 0.190466 0.164342 0.226537
C49   C     C_3   0.996973 0.208495 0.173460 -0.221527
C50   C     C_3   0.954803 0.170364 0.138672 -1.079128
C51   C     C_3   0.827321 0.644454 0.595069 0.262106
C52   C     C_3   0.816754 0.578096 0.601030 -0.318871
C53   C     C_3   0.824084 0.546530 0.544100 -0.978573
C54   C     C_3   0.815127 0.072975 0.201010 0.203938
C55   C     C_3   0.807571 0.055831 0.138362 -0.255792
C56   C     C_3   0.855333 0.012553 0.119358 -1.023422
C57   C     C_R   0.934559 0.134327 0.601675 0.702638
C58   C     C_3   0.296017 0.866102 0.715890 0.251654
C59   C     C_3   0.363118 0.872207 0.722681 -0.281810
C60   C     C_3   0.395689 0.856602 0.667726 -1.006280
C61   C     C_3   0.054221 0.789283 0.809718 0.245390
C62   C     C_3   0.033043 0.762815 0.866089 -0.281513
C63   C     C_3   0.978292 0.794659 0.888581 -1.024955
C64   C     C_3   0.835921 0.324848 0.305360 0.224304
C65   C     C_3   0.879236 0.359728 0.342090 -0.230062
C66   C     C_3   0.846765 0.401020 0.382847 -0.998088
C67   C     C_3   0.664693 0.853812 0.667952 0.240445
C68   C     C_R   0.081331 0.850612 0.424493 0.780169
C69   C     C_3   0.626419 0.904135 0.645781 -0.226609
C70   C     C_3   0.629052 0.957566 0.685065 -0.987694
C71   C     C_3   0.301310 0.155208 0.298148 0.225862
C72   C     C_3   0.328333 0.111807 0.340310 -0.279183
C73   C     C_3   0.352759 0.143374 0.392566 -0.937368
C74   C     C_3   0.949159 0.216462 0.808478 0.249781
C75   C     C_3   0.969198 0.244928 0.864359 -0.292987
C76   C     C_3   0.024069 0.214518 0.887991 -1.022820
C77   C     C_3   0.206674 0.648179 0.430615 0.258176
C78   C     C_3   0.229558 0.584745 0.433628 -0.301809
C79   C     C_R   0.350138 0.580795 0.924885 0.765320
C80   C     C_3   0.237848 0.565080 0.495100 -1.020115
C81   C     C_3   0.324752 0.139794 0.672354 0.216402
C82   C     C_3   0.340538 0.082231 0.642275 -0.257100
C83   C     C_3   0.323785 0.028894 0.678149 -0.883458
C84   C     C_3   0.716411 0.900475 0.238015 0.202692
C85   C     C_3   0.703822 0.963926 0.256001 -0.247518
C86   C     C_3   0.647513 0.968234 0.291712 -0.912437
C87   C     C_3   0.445506 0.277133 0.694677 0.219396
C88   C     C_3   0.502483 0.257850 0.724187 -0.217849
C89   C     C_3   0.556796 0.287112 0.697903 -1.041583
C90   C     C_R   0.648536 0.421118 0.079341 0.731068
C91   C     C_3   0.723912 0.843323 0.061040 0.272658
C92   C     C_3   0.763337 0.897610 0.052691 -0.334274
C93   C     C_3   0.776996 0.907667 0.989868 -1.012866
C94   C     C_3   0.825837 0.359015 0.825038 0.216108
C95   C     C_3   0.841383 0.417877 0.852693 -0.255100
C96   C     C_3   0.825927 0.469525 0.814179 -0.894629
C97   C     C_3   0.205025 0.610310 0.251237 0.271902
C98   C     C_3   0.161853 0.558828 0.256486 -0.242684
C99   C     C_3   0.106677 0.568698 0.220376 -1.014019
C100  C     C_3   0.553350 0.705440 0.684738 0.248075
C101  C     C_R   0.433355 0.364418 0.899616 0.702509
C102  C     C_3   0.531972 0.733782 0.629410 -0.280378
C103  C     C_3   0.478694 0.701163 0.605050 -1.026476
C104  C     C_3   0.352090 0.147277 0.121512 0.271550
C105  C     C_3   0.351074 0.081781 0.137112 -0.333766
C106  C     C_3   0.371058 0.043494 0.087266 -0.989037
C107  C     C_3   0.171857 0.643277 0.829933 0.213486
C108  C     C_3   0.155989 0.586351 0.860833 -0.252080
C109  C     C_3   0.168937 0.532450 0.824086 -0.901363
C110  C     C_3   0.871846 0.346577 0.144019 0.248170
C111  C     C_3   0.888277 0.411289 0.136091 -0.255396
C112  C     C_R   0.135451 0.933901 0.600560 0.694227
C113  C     C_R   0.581244 0.648985 0.076483 0.786150
C114  C     C_3   0.947542 0.417754 0.105427 -1.017064
C115  C     C_3   0.653371 0.163027 0.160199 0.228153
C116  C     C_3   0.607543 0.135124 0.120787 -0.268292
C117  C     C_3   0.546296 0.133683 0.148325 -0.914788
C118  C     C_3   0.324291 0.856880 0.905956 0.258969
C119  C     C_3   0.312434 0.922988 0.899738 -0.304807
C120  C     C_3   0.317860 0.954800 0.956707 -1.006311
C121  C     C_3   0.154548 0.339421 0.142251 0.217062
C122  C     C_3   0.130141 0.385259 0.101062 -0.247434
C123  C     C_3   0.120772 0.444452 0.130390 -0.954418
C124  C     C_R   0.649870 0.419282 0.924470 0.777681
C125  C     C_3   0.794002 0.633581 0.784548 0.250422
C126  C     C_3   0.861451 0.631082 0.778649 -0.286070
C127  C     C_3   0.891952 0.645180 0.834895 -1.006006
C128  C     C_3   0.448035 0.736500 0.291449 0.254877
C129  C     C_3   0.468393 0.773959 0.342042 -0.296668
C130  C     C_3   0.528574 0.753745 0.363899 -1.007476
C131  C     C_3   0.687523 0.150643 0.923705 0.270736
C132  C     C_3   0.715561 0.090131 0.933965 -0.333454
C133  C     C_3   0.714647 0.074545 0.997093 -0.988023
C134  C     C_3   0.802154 0.628953 0.204559 0.232005
C135  C     C_R   0.365095 0.565482 0.101299 0.695867
C136  C     C_3   0.814443 0.564392 0.190227 -0.238195
C137  C     C_3   0.787520 0.523180 0.234485 -1.004743
C138  C     C_3   0.204978 0.371074 0.779198 0.251767
C139  C     C_3   0.138231 0.377289 0.769930 -0.282905
C140  C     C_3   0.103509 0.362252 0.823743 -1.011400
C141  C     C_R   0.565963 0.634584 0.898803 0.705260
C142  C     C_R   0.420539 0.351254 0.078087 0.712272
C143  C     C_R   0.648931 0.579012 0.078592 0.697919
C144  C     C_R   0.364259 0.433500 0.899735 0.692878
C145  C     C_R   0.579872 0.351796 0.079103 0.709307
C146  C     C_R   0.418955 0.649497 0.924955 0.786297
C147  C     C_R   0.350465 0.418864 0.075918 0.776535
C148  C     C_R   0.934231 0.864424 0.399579 0.698446
C149  C     C_R   0.635077 0.565587 0.898869 0.689022
C150  C     C_R   0.434138 0.634583 0.101320 0.697015
C151  C     C_R   0.581119 0.350561 0.924381 0.783500
C152  C     C_1   0.219049 0.217910 0.613139 0.165073
C153  C     C_1   0.848424 0.841486 0.273739 0.156897
C154  C     C_1   0.846882 0.152587 0.729463 0.146644
C155  C     C_1   0.220542 0.784994 0.383884 0.164627
C156  C     C_1   0.781989 0.781772 0.614961 0.158415
C157  C     C_1   0.157972 0.152555 0.274107 0.179076
C158  C     C_1   0.156962 0.845250 0.725646 0.153717
C159  C     C_R   0.081353 0.149652 0.574607 0.788545
C160  C     C_1   0.830011 0.176264 0.300007 0.174854
C161  C     C_1   0.721502 0.712187 0.118352 0.150880
C162  C     C_1   0.342601 0.343942 0.775015 0.158180
C163  C     C_1   0.347189 0.653442 0.228441 0.160604
C164  C     C_1   0.719239 0.282193 0.885817 0.139478
C165  C     C_1   0.286548 0.279031 0.116954 0.153208
C166  C     C_1   0.655621 0.652572 0.772500 0.153988
C167  C     C_1   0.718934 0.289629 0.125265 0.174420
C168  C     C_1   0.282469 0.718445 0.885250 0.160621
C169  C     C_1   0.864879 0.861699 0.317890 0.127936
C170  C     C_R   0.149857 0.919578 0.424371 0.775083
C171  C     C_1   0.183341 0.182132 0.598634 0.162662
C172  C     C_1   0.183508 0.819357 0.398531 0.173944
C173  C     C_1   0.865361 0.134296 0.684992 0.128400
C174  C     C_1   0.137684 0.135287 0.317880 0.132548
C175  C     C_1   0.817163 0.818104 0.600467 0.174098
C176  C     C_1   0.844541 0.157298 0.345117 0.087789
C177  C     C_1   0.137428 0.863614 0.681932 0.127831
C178  C     C_1   0.361935 0.362619 0.818717 0.126103
C179  C     C_1   0.683414 0.678811 0.104217 0.169729
C180  C     C_1   0.683128 0.318118 0.899435 0.173295
C181  C     C_R   0.865474 0.065363 0.601718 0.685988
C182  C     C_1   0.364813 0.634482 0.184084 0.136091
C183  C     C_1   0.636231 0.634647 0.816533 0.127639
C184  C     C_1   0.319892 0.317055 0.102698 0.164792
C185  C     C_1   0.317513 0.682159 0.899932 0.166491
C186  C     C_1   0.681490 0.322107 0.108390 0.166141
C187  C     C_R   0.867179 0.132873 0.395866 -0.374472
C188  C     C_R   0.114959 0.885512 0.629733 -0.404327
C189  C     C_R   0.885649 0.884211 0.370501 -0.395278
C190  C     C_R   0.139526 0.138813 0.587459 -0.469997
C191  C     C_R   0.139283 0.861924 0.410681 -0.479954
C192  C     C_R   0.067451 0.135501 0.399742 0.699442
C193  C     C_R   0.886604 0.113169 0.631603 -0.394043
C194  C     C_R   0.115405 0.114057 0.370291 -0.405191
C195  C     C_R   0.860758 0.861501 0.588655 -0.472266
C196  C     C_R   0.360905 0.638636 0.911701 -0.468971
C197  C     C_R   0.637484 0.363745 0.093891 -0.444314
C198  C     C_R   0.384571 0.384847 0.870727 -0.401095
C199  C     C_R   0.638650 0.636880 0.091953 -0.457274
C200  C     C_R   0.639216 0.361499 0.910802 -0.480619
C201  C     C_R   0.385999 0.613419 0.130932 -0.399972
C202  C     C_R   0.614263 0.613507 0.869318 -0.403702
C203  C     C_R   0.918874 0.850565 0.575279 0.782468
C204  C     C_R   0.362236 0.361537 0.090872 -0.446398
C205  C     C_R   0.812622 0.723042 0.171809 0.381697
C206  C     C_R   0.263315 0.340959 0.704336 0.398933
C207  C     C_R   0.346797 0.735086 0.295663 0.356592
C208  C     C_R   0.739116 0.184922 0.845835 0.375758
C209  C     C_R   0.189021 0.245145 0.147710 0.374379
C210  C     C_R   0.738833 0.658368 0.706141 0.394373
C211  C     C_R   0.748781 0.195351 0.164964 0.350162
C212  C     C_R   0.267879 0.812064 0.837646 0.373258
C213  C     C_R   0.186471 0.741540 0.843734 0.376442
C214  C     C_R   0.150015 0.080830 0.574683 0.764734
C215  C     C_R   0.805497 0.284581 0.184848 0.327800
C216  C     C_R   0.652922 0.722391 0.693489 0.370808
C217  C     C_R   0.278322 0.190724 0.173763 0.356347
C218  C     C_R   0.815555 0.261030 0.843559 0.380170
C219  C     C_R   0.274968 0.655467 0.306122 0.373569
C220  C     C_R   0.345211 0.270736 0.698859 0.354466
C221  C     C_R   0.753611 0.809990 0.148499 0.365569
C222  C     C_R   0.314139 0.238468 0.657745 0.381716
C223  C     C_R   0.782372 0.841614 0.191581 0.374140
C224  C     C_R   0.848424 0.227143 0.804865 0.373635
F1    F     F_    0.797458 0.058181 0.422110 -0.588451
F2    F     F_    0.812655 0.959625 0.388326 -0.631791
F3    F     F_    0.034999 0.816104 0.613977 -0.627393
F4    F     F_    0.941497 0.202215 0.423787 -0.596043
F5    F     F_    0.795545 0.940419 0.562655 -0.607559
F6    F     F_    0.184050 0.033889 0.385690 -0.655380
F7    F     F_    0.966533 0.182502 0.615591 -0.633471
F8    F     F_    0.060793 0.796149 0.437341 -0.595834
F9    F     F_    0.295603 0.559601 0.937529 -0.621518
F10   F     F_    0.703334 0.444151 0.072422 -0.596913
F11   F     F_    0.464588 0.315526 0.886356 -0.637813
F12   F     F_    0.184283 0.965378 0.613827 -0.655087
F13   F     F_    0.561346 0.703754 0.064017 -0.597567
F14   F     F_    0.704378 0.440405 0.937189 -0.603115
F15   F     F_    0.316568 0.533679 0.114972 -0.645185
F16   F     F_    0.534356 0.682997 0.885097 -0.627761
F17   F     F_    0.444242 0.297033 0.070639 -0.612029
F18   F     F_    0.703469 0.555648 0.070866 -0.617562
F19   F     F_    0.315254 0.464753 0.886696 -0.653432
F20   F     F_    0.557489 0.296987 0.072088 -0.608065
F21   F     F_    0.440096 0.703803 0.937663 -0.599309
F22   F     F_    0.295562 0.439030 0.063321 -0.618011
F23   F     F_    0.966019 0.815840 0.386522 -0.635513
F24   F     F_    0.683840 0.534037 0.885321 -0.654524
F25   F     F_    0.465761 0.683042 0.115062 -0.633118
F26   F     F_    0.560080 0.296183 0.936800 -0.587441
F27   F     F_    0.060194 0.203884 0.561835 -0.606488
F28   F     F_    0.204354 0.940664 0.437272 -0.608804
F29   F     F_    0.817043 0.033564 0.615667 -0.654626
F30   F     F_    0.040215 0.187042 0.388704 -0.615958
F31   F     F_    0.940016 0.796207 0.562703 -0.599039
F32   F     F_    0.204392 0.059345 0.561771 -0.621825
H1    H     H_    0.975685 0.751360 0.259725 0.167397
H2    H     H_    0.096589 0.343622 0.564455 0.255619
H3    H     H_    0.351309 0.143307 0.712015 0.141061
H4    H     H_    0.316729 0.079810 0.601031 0.270193
H5    H     H_    0.388899 0.081204 0.633479 0.196058
H6    H     H_    0.347633 0.029864 0.719391 0.239958
H7    H     H_    0.336174 0.988150 0.654916 0.273737
H8    H     H_    0.275313 0.028161 0.686189 0.301387
H9    H     H_    0.723400 0.873657 0.277122 0.101975
H10   H     H_    0.677247 0.883210 0.214683 0.150009
H11   H     H_    0.741613 0.980779 0.281430 0.250350
H12   H     H_    0.698870 0.991878 0.217551 0.211105
H13   H     H_    0.104925 0.410884 0.604533 0.203015
H14   H     H_    0.608771 0.952642 0.266883 0.249407
H15   H     H_    0.639899 0.014808 0.304167 0.280113
H16   H     H_    0.651807 0.941340 0.330890 0.282882
H17   H     H_    0.441602 0.325939 0.698558 0.085514
H18   H     H_    0.447967 0.264745 0.648853 0.117057
H19   H     H_    0.500042 0.269730 0.770031 0.251151
H20   H     H_    0.507131 0.209277 0.720751 0.208294
H21   H     H_    0.560781 0.274980 0.652268 0.272372
H22   H     H_    0.597212 0.272119 0.720434 0.281689
H23   H     H_    0.553574 0.335742 0.701892 0.272054
H24   H     H_    0.157013 0.457382 0.521834 0.265670
H25   H     H_    0.682476 0.849708 0.036476 0.150373
H26   H     H_    0.745729 0.803438 0.042905 0.085427
H27   H     H_    0.740706 0.937092 0.070344 0.228925
H28   H     H_    0.805725 0.891414 0.075757 0.206441
H29   H     H_    0.799562 0.868553 0.971457 0.275012
H30   H     H_    0.806668 0.946322 0.985209 0.272828
H31   H     H_    0.735525 0.916253 0.965997 0.278476
H32   H     H_    0.778091 0.359773 0.813095 0.088887
H33   H     H_    0.853102 0.353445 0.785905 0.141565
H34   H     H_    0.816632 0.422491 0.893371 0.273679
H35   H     H_    0.084335 0.431380 0.502580 0.285289
H36   H     H_    0.889539 0.418978 0.862264 0.193347
H37   H     H_    0.850794 0.466499 0.773467 0.244259
H38   H     H_    0.838087 0.511185 0.835865 0.272803
H39   H     H_    0.777663 0.470221 0.805264 0.297020
H40   H     H_    0.222356 0.612100 0.206959 0.118896
H41   H     H_    0.179894 0.651827 0.259671 0.099180
H42   H     H_    0.184111 0.517526 0.242749 0.205369
H43   H     H_    0.148247 0.553924 0.301701 0.217694
H44   H     H_    0.082978 0.608961 0.234637 0.280886
H45   H     H_    0.076278 0.530628 0.225061 0.276046
H46   H     H_    0.148867 0.389825 0.481528 0.275478
H47   H     H_    0.118941 0.573354 0.174833 0.282420
H48   H     H_    0.515451 0.702828 0.714834 0.146229
H49   H     H_    0.567890 0.659141 0.676755 0.063760
H50   H     H_    0.519453 0.780348 0.637672 0.220622
H51   H     H_    0.568320 0.733148 0.597511 0.219012
H52   H     H_    0.490417 0.654623 0.595786 0.269538
H53   H     H_    0.464580 0.722584 0.564904 0.282562
H54   H     H_    0.441132 0.702405 0.635609 0.270142
H55   H     H_    0.397502 0.158986 0.107233 0.166725
H56   H     H_    0.322280 0.155966 0.084659 0.082833
H57   H     H_    0.256310 0.860151 0.294683 0.079804
H58   H     H_    0.380856 0.073986 0.173903 0.228584
H59   H     H_    0.305451 0.068685 0.149478 0.220853
H60   H     H_    0.341506 0.050301 0.050186 0.274035
H61   H     H_    0.369198 0.996394 0.099694 0.280871
H62   H     H_    0.417261 0.054465 0.074984 0.274554
H63   H     H_    0.219075 0.640569 0.816150 0.088747
H64   H     H_    0.143277 0.647453 0.791670 0.142909
H65   H     H_    0.182090 0.583277 0.900721 0.269241
H66   H     H_    0.108196 0.586890 0.872199 0.193579
H67   H     H_    0.142688 0.534067 0.784244 0.243836
H68   H     H_    0.323399 0.846775 0.254192 0.133013
H69   H     H_    0.156749 0.492128 0.847907 0.273487
H70   H     H_    0.216813 0.530235 0.813382 0.298324
H71   H     H_    0.867906 0.325288 0.101442 0.104864
H72   H     H_    0.908001 0.324886 0.168378 0.117648
H73   H     H_    0.853242 0.433763 0.111095 0.249097
H74   H     H_    0.891320 0.432957 0.178418 0.199814
H75   H     H_    0.983289 0.396386 0.130322 0.266908
H76   H     H_    0.958359 0.465166 0.100590 0.283117
H77   H     H_    0.945374 0.397308 0.062528 0.277508
H78   H     H_    0.637855 0.208003 0.172110 0.095836
H79   H     H_    0.305460 0.943731 0.344388 0.258407
H80   H     H_    0.656876 0.135669 0.199285 0.134953
H81   H     H_    0.605163 0.160738 0.080608 0.245660
H82   H     H_    0.621364 0.089396 0.110323 0.193195
H83   H     H_    0.547448 0.107733 0.188298 0.249214
H84   H     H_    0.514282 0.112783 0.118755 0.267137
H85   H     H_    0.530913 0.179102 0.157871 0.295082
H86   H     H_    0.368876 0.850835 0.924897 0.167512
H87   H     H_    0.292151 0.836795 0.936400 0.078993
H88   H     H_    0.344684 0.942178 0.869176 0.228092
H89   H     H_    0.267097 0.929944 0.882825 0.209092
H90   H     H_    0.372973 0.929538 0.305562 0.201589
H91   H     H_    0.285455 0.936791 0.987729 0.269603
H92   H     H_    0.308693 0.002412 0.950779 0.276331
H93   H     H_    0.363308 0.949797 0.973964 0.283373
H94   H     H_    0.197814 0.355482 0.158920 0.100522
H95   H     H_    0.122886 0.334486 0.178263 0.140772
H96   H     H_    0.161641 0.391001 0.065095 0.249189
H97   H     H_    0.087197 0.369618 0.083675 0.198215
H98   H     H_    0.089035 0.439690 0.166225 0.252615
H99   H     H_    0.102428 0.476535 0.099543 0.280951
H100  H     H_    0.163505 0.461690 0.146712 0.299720
H101  H     H_    0.318955 0.948087 0.213463 0.259572
H102  H     H_    0.780059 0.604123 0.819773 0.163711
H103  H     H_    0.780592 0.679145 0.797281 0.063109
H104  H     H_    0.875109 0.586492 0.764192 0.215785
H105  H     H_    0.876230 0.663533 0.746383 0.246724
H106  H     H_    0.879992 0.690218 0.849381 0.273786
H107  H     H_    0.940682 0.642930 0.829090 0.277427
H108  H     H_    0.878824 0.612888 0.868007 0.279138
H109  H     H_    0.482519 0.738483 0.257735 0.157636
H110  H     H_    0.444371 0.689256 0.304014 0.066695
H111  H     H_    0.471476 0.820836 0.328874 0.227676
H112  H     H_    0.946313 0.792433 0.201700 0.061172
H113  H     H_    0.317332 0.010588 0.260472 0.292670
H114  H     H_    0.435546 0.770567 0.377127 0.213376
H115  H     H_    0.526271 0.707151 0.377984 0.267339
H116  H     H_    0.541872 0.781481 0.400649 0.284700
H117  H     H_    0.562640 0.758041 0.330008 0.269925
H118  H     H_    0.641321 0.149767 0.939978 0.158089
H119  H     H_    0.711043 0.184829 0.949057 0.094638
H120  H     H_    0.690829 0.056060 0.909738 0.231105
H121  H     H_    0.762200 0.090317 0.918832 0.199231
H122  H     H_    0.738965 0.108242 0.022123 0.288313
H123  H     H_    0.736290 0.031298 0.003645 0.278819
H124  H     H_    0.252510 0.964841 0.253746 0.283085
H125  H     H_    0.668328 0.071784 0.012751 0.269172
H126  H     H_    0.753329 0.635459 0.207354 0.079189
H127  H     H_    0.822275 0.639111 0.246610 0.141125
H128  H     H_    0.795467 0.553821 0.147860 0.271581
H129  H     H_    0.863056 0.556999 0.188261 0.194249
H130  H     H_    0.806974 0.531899 0.277016 0.263225
H131  H     H_    0.796836 0.476763 0.222572 0.289592
H132  H     H_    0.738784 0.529311 0.236628 0.273477
H133  H     H_    0.218457 0.400683 0.814534 0.161565
H134  H     H_    0.214925 0.325176 0.793416 0.066129
H135  H     H_    0.726243 0.086517 0.694634 0.170316
H136  H     H_    0.127808 0.423126 0.756959 0.213978
H137  H     H_    0.123899 0.347118 0.735442 0.247158
H138  H     H_    0.111888 0.315890 0.836250 0.275236
H139  H     H_    0.055425 0.367758 0.815692 0.277780
H140  H     H_    0.116453 0.391802 0.859259 0.275266
H141  H     H_    0.723471 0.163644 0.709600 0.068179
H142  H     H_    0.634131 0.070459 0.752256 0.223798
H143  H     H_    0.630889 0.148187 0.767491 0.241853
H144  H     H_    0.620578 0.171145 0.665051 0.279535
H145  H     H_    0.564339 0.119479 0.687091 0.274269
H146  H     H_    0.627558 0.094082 0.646968 0.287043
H147  H     H_    0.066960 0.143490 0.176917 0.085642
H148  H     H_    0.971232 0.658108 0.201820 0.222153
H149  H     H_    0.072613 0.195560 0.118362 0.116673
H150  H     H_    0.985429 0.204394 0.219281 0.231752
H151  H     H_    0.991352 0.255263 0.160803 0.194394
H152  H     H_    0.964828 0.174487 0.092586 0.279109
H153  H     H_    0.908503 0.184920 0.146182 0.266455
H154  H     H_    0.958859 0.123535 0.151520 0.269501
H155  H     H_    0.872223 0.651482 0.576945 0.168936
H156  H     H_    0.795517 0.663875 0.564056 0.080452
H157  H     H_    0.848745 0.559543 0.632051 0.228731
H158  H     H_    0.771218 0.570135 0.617234 0.211394
H159  H     H_    0.943939 0.699881 0.142274 0.223569
H160  H     H_    0.791892 0.563876 0.512678 0.267246
H161  H     H_    0.815924 0.498697 0.549790 0.278708
H162  H     H_    0.869748 0.552649 0.527507 0.277489
H163  H     H_    0.815782 0.032238 0.226964 0.144133
H164  H     H_    0.858986 0.094492 0.207754 0.081933
H165  H     H_    0.763350 0.035402 0.132075 0.221062
H166  H     H_    0.810433 0.095852 0.111429 0.207374
H167  H     H_    0.899956 0.032087 0.125212 0.265672
H168  H     H_    0.849359 0.002037 0.073617 0.275985
H169  H     H_    0.852217 0.971153 0.144233 0.291881
H170  H     H_    0.036493 0.760362 0.141995 0.272072
H171  H     H_    0.281397 0.893904 0.679741 0.160075
H172  H     H_    0.285274 0.819580 0.704128 0.064064
H173  H     H_    0.374219 0.918123 0.735039 0.212915
H174  H     H_    0.378680 0.842343 0.756804 0.248989
H175  H     H_    0.386571 0.810205 0.655558 0.274078
H176  H     H_    0.444093 0.861838 0.674085 0.276126
H177  H     H_    0.381612 0.886155 0.632711 0.277882
H178  H     H_    0.016704 0.789116 0.779254 0.150113
H179  H     H_    0.066960 0.836386 0.815762 0.065403
H180  H     H_    0.022323 0.715502 0.859791 0.223995
H181  H     H_    0.052422 0.682844 0.134645 0.284919
H182  H     H_    0.068873 0.766209 0.898203 0.214945
H183  H     H_    0.988338 0.841898 0.896139 0.269738
H184  H     H_    0.964135 0.774474 0.929375 0.282090
H185  H     H_    0.941350 0.790957 0.857691 0.271398
H186  H     H_    0.807277 0.297665 0.333656 0.096637
H187  H     H_    0.807759 0.356619 0.281601 0.128460
H188  H     H_    0.906944 0.328699 0.367032 0.256528
H189  H     H_    0.908819 0.386137 0.314191 0.202266
H190  H     H_    0.819810 0.433287 0.358679 0.264450
H191  H     H_    0.879448 0.425493 0.408990 0.284236
H192  H     H_    0.064070 0.718902 0.202110 0.270921
H193  H     H_    0.817438 0.375502 0.411679 0.276477
H194  H     H_    0.711509 0.868895 0.670315 0.110369
H195  H     H_    0.649094 0.842380 0.711577 0.126937
H196  H     H_    0.641895 0.917075 0.602665 0.240219
H197  H     H_    0.579740 0.888989 0.642539 0.194019
H198  H     H_    0.614496 0.945539 0.728677 0.265674
H199  H     H_    0.599012 0.992223 0.668720 0.277291
H200  H     H_    0.674822 0.975364 0.686701 0.293346
H201  H     H_    0.267380 0.182067 0.320922 0.091400
H202  H     H_    0.336940 0.184851 0.282268 0.134339
H203  H     H_    0.206333 0.334270 0.557037 0.099880
H204  H     H_    0.294015 0.079764 0.354089 0.271083
H205  H     H_    0.364812 0.087192 0.319190 0.194913
H206  H     H_    0.387606 0.175293 0.379895 0.255758
H207  H     H_    0.372451 0.110659 0.422001 0.283670
H208  H     H_    0.316725 0.167064 0.415283 0.273770
H209  H     H_    0.986567 0.217926 0.777748 0.149417
H210  H     H_    0.938792 0.168909 0.815166 0.069393
H211  H     H_    0.979292 0.292189 0.856983 0.224858
H212  H     H_    0.933070 0.241954 0.896360 0.215066
H213  H     H_    0.014303 0.167585 0.897302 0.269130
H214  H     H_    0.214846 0.402030 0.597723 0.105678
H215  H     H_    0.037854 0.236578 0.928009 0.283041
H216  H     H_    0.061137 0.217048 0.856978 0.270009
H217  H     H_    0.164048 0.650793 0.454146 0.157133
H218  H     H_    0.237759 0.678732 0.452784 0.078438
H219  H     H_    0.197531 0.554838 0.412347 0.221528
H220  H     H_    0.272715 0.581427 0.411086 0.210811
H221  H     H_    0.270646 0.593730 0.516823 0.273267
H222  H     H_    0.254314 0.519031 0.495858 0.273105
H223  H     H_    0.195083 0.567062 0.518441 0.275836
H224  H     H_    0.276807 0.138614 0.683752 0.086030
N1    N     N_R   0.900580 0.056480 0.443850 -0.180643
N2    N     N_R   0.900580 0.943520 0.443850 -0.163471
N3    N     N_R   0.056480 0.900580 0.556150 -0.164148
N4    N     N_R   0.943520 0.099420 0.443850 -0.181941
N5    N     N_R   0.900580 0.943520 0.556150 -0.177131
N6    N     N_R   0.099420 0.056480 0.443850 -0.160951
N7    N     N_R   0.943520 0.099420 0.556150 -0.159567
N8    N     N_R   0.056480 0.900580 0.443850 -0.180517
N9    N     N_R   0.400580 0.556480 0.943850 -0.175298
N10   N     N_R   0.599420 0.443520 0.056150 -0.175224
N11   N     N_R   0.443520 0.400580 0.943850 -0.161683
N12   N     N_R   0.099420 0.943520 0.556150 -0.159421
N13   N     N_R   0.556480 0.599420 0.056150 -0.176141
N14   N     N_R   0.599420 0.443520 0.943850 -0.179409
N15   N     N_R   0.400580 0.556480 0.056150 -0.161433
N16   N     N_R   0.556480 0.599420 0.943850 -0.163518
N17   N     N_R   0.443520 0.400580 0.056150 -0.171895
N18   N     N_R   0.599420 0.556480 0.056150 -0.169741
N19   N     N_R   0.400580 0.443520 0.943850 -0.160028
N20   N     N_R   0.556480 0.400580 0.056150 -0.171277
N21   N     N_R   0.443520 0.599420 0.943850 -0.181114
N22   N     N_R   0.400580 0.443520 0.056150 -0.172513
N23   N     N_R   0.943520 0.900580 0.443850 -0.164606
N24   N     N_R   0.599420 0.556480 0.943850 -0.157062
N25   N     N_R   0.443520 0.599420 0.056150 -0.163903
N26   N     N_R   0.556480 0.400580 0.943850 -0.182657
N27   N     N_R   0.056480 0.099420 0.556150 -0.179988
N28   N     N_R   0.099420 0.943520 0.443850 -0.177644
N29   N     N_R   0.900580 0.056480 0.556150 -0.155635
N30   N     N_R   0.056480 0.099420 0.443850 -0.166830
N31   N     N_R   0.943520 0.900580 0.556150 -0.180348
N32   N     N_R   0.099420 0.056480 0.556150 -0.174266
Ni1   Ni    Ni4+2 0.901480 1.000000 0.500000 0.290801
Ni2   Ni    Ni4+2 0.098520 1.000000 0.500000 0.289049
Ni3   Ni    Ni4+2 0.000000 0.901480 0.500000 0.291245
Ni4   Ni    Ni4+2 0.000000 0.098520 0.500000 0.288911
Ni5   Ni    Ni4+2 0.401480 0.500000 0.000000 0.292327
Ni6   Ni    Ni4+2 0.598520 0.500000 0.000000 0.295469
Ni7   Ni    Ni4+2 0.500000 0.401480 0.000000 0.295585
Ni8   Ni    Ni4+2 0.500000 0.598520 0.000000 0.294145
O1    O     O_3   0.889872 0.729727 0.241696 -0.633930
O2    O     O_3   0.868422 0.288506 0.267783 -0.630480
O3    O     O_3   0.659990 0.805674 0.630080 -0.635742
O4    O     O_3   0.275715 0.123396 0.252700 -0.638740
O5    O     O_3   0.901763 0.248623 0.784501 -0.629036
O6    O     O_3   0.195402 0.664215 0.373548 -0.628328
O7    O     O_3   0.337867 0.187144 0.635533 -0.627325
O8    O     O_3   0.767118 0.899552 0.202707 -0.644330
O9    O     O_3   0.397281 0.248392 0.720815 -0.630415
O10   O     O_3   0.707891 0.836594 0.118919 -0.632853
O11   O     O_3   0.838005 0.313552 0.864183 -0.632561
O12   O     O_3   0.179989 0.330779 0.642061 -0.630912
O13   O     O_3   0.252856 0.601410 0.289118 -0.636087
O14   O     O_3   0.597229 0.740980 0.710457 -0.629355
O15   O     O_3   0.338922 0.182286 0.169740 -0.637494
O16   O     O_3   0.162257 0.691179 0.867260 -0.633835
O17   O     O_3   0.817402 0.343129 0.173372 -0.636657
O18   O     O_3   0.708317 0.165499 0.131477 -0.644445
O19   O     O_3   0.324735 0.829190 0.852003 -0.635473
O20   O     O_3   0.161248 0.285575 0.112828 -0.636172
O21   O     O_3   0.767053 0.612630 0.733966 -0.634228
O22   O     O_3   0.395194 0.759551 0.268233 -0.626888
O23   O     O_3   0.328004 0.828571 0.341290 -0.622930
O24   O     O_3   0.685000 0.163680 0.864834 -0.633787
O25   O     O_3   0.827031 0.664672 0.161559 -0.629658
O26   O     O_3   0.236021 0.389004 0.729619 -0.629476
O27   O     O_3   0.742254 0.105190 0.778550 -0.627011
O28   O     O_3   0.097749 0.226918 0.198169 -0.635793
O29   O     O_3   0.825816 0.672101 0.649025 -0.636005
O30   O     O_3   0.766758 0.107676 0.219769 -0.643879
O31   O     O_3   0.266976 0.886930 0.765591 -0.634651
O32   O     O_3   0.099789 0.754295 0.785849 -0.630108

loop_
_geom_bond_atom_site_label_1
_geom_bond_atom_site_label_2
_ccdc_geom_bond_type
C142  F17   S    
C58   H172  S    
C126  C127  S    
C184  C204  S    
C14   C208  A    
C124  N14   A    
C85   H11   S    
C87   C88   S    
C170  N28   A    
C211  O18   S    
C102  H51   S    
C29   C208  A    
C181  N29   A    
C54   O30   S    
C111  H74   S    
C109  H67   S    
C141  N16   A    
C27   C162  S    
C93   H30   S    
C195  C203  A    
C210  O21   S    
C23   C158  S    
C104  H55   S    
C108  C109  S    
C91   H26   S    
C95   H34   S    
C1    N1    A    
C52   H157  S    
C81   H224  S    
C76   H216  S    
C110  C111  S    
C53   H160  S    
C123  H100  S    
C100  O14   S    
C32   C215  A    
C5    C217  A    
N8    Ni3   S    
C87   H18   S    
C8    C211  A    
C99   H45   S    
C59   C60   S    
C138  O26   S    
N13   Ni8   S    
C165  C184  T    
C66   H190  S    
N2    Ni1   S    
C175  C195  S    
C104  C105  S    
C134  H127  S    
C203  F31   S    
C45   C47   S    
C205  O25   S    
C81   H3    S    
C80   H222  S    
C51   C52   S    
C50   H152  S    
C217  O15   S    
C37   H192  S    
C137  H132  S    
C45   H143  S    
C60   H175  S    
C33   C213  A    
C127  H106  S    
N6    N30   A    
C34   H1    S    
C100  H48   S    
C71   H202  S    
C75   C76   S    
C47   H145  S    
C101  N11   A    
C70   H199  S    
N27   Ni4   S    
C126  H104  S    
N30   Ni4   S    
C12   C20   A    
C82   H5    S    
C139  H137  S    
C143  F18   S    
N20   Ni7   S    
C18   C223  A    
C109  H70   S    
N22   Ni5   S    
C49   H150  S    
C22   C157  S    
C174  C194  S    
C12   O23   S    
C77   H218  S    
N14   Ni6   S    
C33   C168  S    
C48   H147  S    
C56   H167  S    
C117  H83   S    
C2    F2    S    
C119  H89   S    
C101  C198  A    
C133  H122  S    
C19   C224  A    
C72   C73   S    
C63   H185  S    
C105  H58   S    
C13   F3    S    
N23   Ni3   S    
C139  C140  S    
C31   C216  A    
C121  O20   S    
C92   H27   S    
C26   C161  S    
C72   H204  S    
C73   H207  S    
C65   H188  S    
C159  F27   S    
C118  H86   S    
C123  H98   S    
C103  H53   S    
C69   H197  S    
C46   N6    A    
C6    C213  A    
C131  H119  S    
C67   H195  S    
C43   H124  S    
C104  O15   S    
C136  H128  S    
C41   H68   S    
C69   C70   S    
N7    N29   A    
C114  H76   S    
C51   H156  S    
C47   H146  S    
C106  H62   S    
C86   H16   S    
N10   Ni6   S    
C88   C89   S    
C79   N9    A    
C98   C99   S    
N16   N24   A    
N15   Ni5   S    
C150  C201  A    
C67   C69   S    
C112  N12   A    
C47   H144  S    
C69   H196  S    
C145  N20   A    
C142  C204  A    
C35   N5    A    
N5    Ni1   S    
C7    O2    S    
C43   H101  S    
C156  C175  T    
C4    C216  A    
C62   H182  S    
C97   H40   S    
C83   H7    S    
C114  H77   S    
C169  C189  S    
C128  C129  S    
C97   C98   S    
N2    N23   A    
C135  C201  A    
C85   C86   S    
C146  F21   S    
C71   O4    S    
C177  C188  S    
N13   N18   A    
C24   C187  A    
C36   C37   S    
C44   O27   S    
C86   H15   S    
C38   H203  S    
C38   C39   S    
C78   C80   S    
C55   H165  S    
C115  C116  S    
C66   H193  S    
C40   H35   S    
C133  H125  S    
C96   H37   S    
C63   H184  S    
C34   O1    S    
C220  O9    S    
C59   H173  S    
C107  C108  S    
C186  C197  S    
C72   H205  S    
C161  C179  T    
N3    Ni3   S    
C157  C174  T    
C140  H139  S    
C41   H57   S    
C43   H113  S    
C58   O31   S    
C159  C190  A    
C53   H161  S    
C8    O30   S    
C50   H154  S    
C98   H43   S    
N5    N31   A    
C46   C194  A    
C151  F26   S    
C1    C187  A    
C214  F32   S    
C12   C207  A    
C141  C202  A    
C138  C139  S    
C91   C92   S    
C32   C211  A    
C84   O8    S    
C77   O6    S    
C9    C23   A    
C68   C191  A    
C54   H164  S    
C24   N4    A    
C128  H110  S    
C170  C191  A    
C11   C21   A    
C148  F23   S    
C138  H134  S    
C171  C190  S    
C192  C194  A    
C218  O11   S    
C180  C200  S    
C39   H2    S    
C124  F14   S    
C127  H107  S    
C134  O25   S    
C18   C153  S    
C89   H21   S    
C84   H10   S    
C3    O6    S    
N11   N19   A    
C74   H210  S    
C120  H91   S    
C100  H49   S    
C29   C218  A    
C149  F24   S    
C62   H180  S    
C57   N7    A    
C6    O32   S    
C144  N19   A    
C81   O7    S    
C52   C53   S    
C90   N10   A    
N9    Ni5   S    
C125  H102  S    
C28   C207  A    
C54   C55   S    
N11   Ni7   S    
C108  H65   S    
C151  C200  A    
C36   H148  S    
C30   C165  S    
C136  C137  S    
C215  O17   S    
C206  O26   S    
C130  H115  S    
C111  H73   S    
C44   H135  S    
C113  N13   A    
C96   H39   S    
C71   C72   S    
C92   H28   S    
C93   H29   S    
N27   N32   A    
C107  O16   S    
C104  H56   S    
C74   O5    S    
C91   H25   S    
C34   C36   S    
C148  N23   A    
C52   H158  S    
C61   C62   S    
C125  O21   S    
N26   Ni7   S    
C162  C178  T    
C123  H99   S    
C39   C40   S    
N29   Ni1   S    
C27   C220  A    
C49   C50   S    
C37   H170  S    
C80   H223  S    
C87   H17   S    
C110  H71   S    
N21   Ni8   S    
C146  C196  A    
C149  C202  A    
C68   F8    S    
C28   C163  S    
C107  H64   S    
C55   C56   S    
C20   C155  S    
C78   H219  S    
C15   C18   A    
C41   C42   S    
C29   C164  S    
C77   H217  S    
C66   H191  S    
C56   H168  S    
C30   C209  A    
N28   Ni2   S    
C119  H88   S    
C90   C197  A    
C77   C78   S    
C10   C22   A    
C88   H19   S    
C132  H121  S    
C61   H179  S    
C192  N30   A    
C137  H131  S    
C11   C210  A    
C45   H142  S    
C60   H176  S    
C33   C212  A    
C9    C212  A    
C182  C201  S    
C89   H23   S    
N1    N4    A    
C2    N2    A    
C150  N25   A    
C71   H201  S    
C70   H200  S    
C216  O14   S    
C155  C172  T    
C91   O10   S    
N6    Ni2   S    
C147  F22   S    
C16   C17   A    
N32   Ni2   S    
C116  H81   S    
N8    N28   A    
C142  N17   A    
C181  C193  A    
C109  H69   S    
C164  C180  T    
C35   C195  A    
C58   H171  S    
C223  O8    S    
C64   O2    S    
N14   N26   A    
C8    C25   A    
C46   F6    S    
C76   H215  S    
C38   O12   S    
N16   Ni8   S    
C76   H213  S    
C135  N15   A    
C140  H138  S    
C102  H50   S    
N31   Ni3   S    
C64   H187  S    
C221  O10   S    
C97   H41   S    
C84   C85   S    
C79   F9    S    
C14   O27   S    
C93   H31   S    
C126  H105  S    
C94   H32   S    
C87   O9    S    
C58   C59   S    
C112  F12   S    
C167  C186  T    
C82   H4    S    
N17   N22   A    
C145  F20   S    
C73   H206  S    
C118  H87   S    
C56   H169  S    
C34   H112  S    
C25   C160  S    
N4    Ni4   S    
N18   Ni6   S    
C3    C20   A    
C139  H136  S    
C40   H46   S    
C51   H155  S    
C121  C122  S    
C15   C205  A    
C181  F29   S    
C48   C49   S    
C141  F16   S    
C173  C193  S    
C125  C126  S    
C212  O19   S    
C17   C152  S    
C42   C43   S    
C185  C196  S    
C131  C132  S    
C103  H54   S    
C143  C199  A    
C44   C45   S    
C134  H126  S    
C176  C187  S    
C219  O13   S    
C1    F1    S    
C136  H129  S    
C80   H221  S    
C183  C202  S    
C73   H208  S    
C166  C183  T    
C44   H141  S    
C119  C120  S    
C218  C224  A    
C105  C106  S    
C124  C200  A    
N12   Ni2   S    
C7    C25   A    
C27   C206  A    
C41   O23   S    
C64   C65   S    
C121  H95   S    
C213  O16   S    
N1    Ni1   S    
C42   H79   S    
C70   H198  S    
C48   H149  S    
C117  H85   S    
N9    N21   A    
C31   C210  A    
C179  C199  S    
C38   H214  S    
C92   C93   S    
C111  C114  S    
C203  N31   A    
C115  O18   S    
C88   H20   S    
C94   C95   S    
C96   H38   S    
C63   H183  S    
C129  H114  S    
C49   H151  S    
C214  N32   A    
C40   H24   S    
C3    C219  A    
C82   C83   S    
C32   C167  S    
C153  C169  T    
C19   C154  S    
C13   N3    A    
C117  H84   S    
C7    C215  A    
N10   N20   A    
C42   H90   S    
C140  H140  S    
C48   O28   S    
C67   O3    S    
C133  H123  S    
C95   C96   S    
C2    C189  A    
C121  H94   S    
C61   O32   S    
C37   H181  S    
C105  H59   S    
C220  C222  A    
C81   C82   S    
C143  N18   A    
C106  H60   S    
C115  H80   S    
C129  H111  S    
N3    N12   A    
C62   C63   S    
C222  O7    S    
C147  C204  A    
C158  C177  T    
C65   H189  S    
C149  N24   A    
C16   C206  A    
C57   F7    S    
C144  F19   S    
C9    O31   S    
C116  C117  S    
C90   F10   S    
C11   O29   S    
C114  H75   S    
C132  H120  S    
C17   C222  A    
C106  H61   S    
C118  C119  S    
C5    C22   A    
C132  C133  S    
C101  F11   S    
C99   H44   S    
C120  H92   S    
C113  F13   S    
C128  H109  S    
C159  N27   A    
C118  O19   S    
C13   C188  A    
C163  C182  T    
C160  C176  T    
C83   H8    S    
C102  C103  S    
C207  O22   S    
N24   Ni6   S    
C172  C191  S    
C113  C199  A    
C75   H212  S    
C51   O29   S    
C74   C75   S    
C108  H66   S    
C86   H14   S    
C5    O4    S    
C36   H159  S    
C152  C171  T    
C129  C130  S    
C14   C19   A    
C134  C136  S    
N15   N25   A    
C55   H166  S    
C15   O1    S    
C130  H116  S    
C64   H186  S    
C79   C196  A    
C68   N8    A    
C57   C193  A    
C35   F5    S    
C94   H33   S    
C145  C197  A    
C10   C209  A    
C31   C166  S    
C16   O12   S    
C59   H174  S    
C26   C221  A    
C100  C102  S    
C110  O17   S    
C122  H96   S    
C95   H36   S    
C4    O3    S    
C190  C214  A    
C146  N21   A    
C75   H211  S    
C209  O20   S    
C30   C217  A    
C130  H117  S    
C103  H52   S    
C192  F30   S    
C131  O24   S    
C53   H162  S    
C208  O24   S    
C50   H153  S    
C110  H72   S    
C98   H42   S    
C99   H47   S    
C150  F25   S    
C115  H78   S    
C107  H63   S    
C148  C189  A    
C97   O13   S    
C168  C185  T    
C154  C173  T    
C78   H220  S    
C224  O5    S    
C122  H97   S    
C147  N22   A    
C112  C188  A    
C116  H82   S    
C120  H93   S    
C131  H118  S    
C54   H163  S    
C28   C219  A    
C67   H194  S    
C85   H12   S    
N7    Ni4   S    
C138  H133  S    
C60   H177  S    
C61   H178  S    
C221  C223  A    
C137  H130  S    
C4    C21   A    
C127  H108  S    
C6    C23   A    
C89   H22   S    
C21   C156  S    
C135  F15   S    
C84   H9    S    
C151  N26   A    
N25   Ni8   S    
C178  C198  S    
C74   H209  S    
C128  O22   S    
C26   C205  A    
C39   H13   S    
C144  C198  A    
C65   C66   S    
N17   Ni7   S    
C94   O11   S    
C83   H6    S    
C10   O28   S    
N19   Ni5   S    
C122  C123  S    
C24   F4    S    
C170  F28   S    
C125  H103  S    
