data_mof_unit_5923.cif
_audit_creation_date              2013-03-05T15:45:39-0500
_audit_creation_method            fapswitch 2.2
_symmetry_space_group_name_H-M    P1
_symmetry_Int_Tables_number       1
_space_group_crystal_system       triclinic
_cell_length_a                    15.076621
_cell_length_b                    10.998825
_cell_length_c                    9.882684
_cell_angle_alpha                 112.399168
_cell_angle_beta                  98.122057
_cell_angle_gamma                 88.47452
_cell_volume                      1499.29133952

loop_
_atom_site_label
_atom_site_type_symbol
_atom_site_description
_atom_site_fract_x
_atom_site_fract_y
_atom_site_fract_z
_atom_type_partial_charge
O1    O     O_R   0.508410 0.332340 0.577400 -0.619051
O2    O     O_R   0.491590 0.667660 0.422600 -0.612426
O3    O     O_R   0.481780 0.295500 0.332650 -0.489663
O4    O     O_R   0.518220 0.704500 0.667350 -0.504610
C1    C     C_R   0.491747 0.252760 0.438809 0.735255
C2    C     C_R   0.506195 0.746750 0.560679 0.740644
O5    O     O_R   0.383570 0.518390 0.622380 -0.605827
O6    O     O_R   0.616430 0.481610 0.377620 -0.587906
O7    O     O_R   0.356940 0.481550 0.377630 -0.523447
O8    O     O_R   0.643060 0.518450 0.622370 -0.525455
C3    C     C_R   0.329526 0.506795 0.503742 0.770570
C4    C     C_R   0.670594 0.493993 0.496740 0.786337
Cu1   Cu    Cu3+1 0.515770 0.521810 0.644910 1.064009
Cu2   Cu    Cu3+1 0.484230 0.478190 0.355090 1.080580
C5    C     C_R   0.814263 0.608664 0.555968 -0.122780
C6    C     C_R   0.186848 0.391605 0.451731 -0.125620
C7    C     C_R   0.766851 0.489775 0.493116 -0.091365
C8    C     C_R   0.233638 0.510825 0.509787 -0.085829
C9    C     C_R   0.811166 0.370357 0.437489 -0.010620
C10   C     C_R   0.189676 0.629857 0.570615 -0.011551
C11   C     C_R   0.906577 0.371871 0.444583 -0.046573
C12   C     C_R   0.095571 0.627101 0.575704 -0.042634
C13   C     C_R   0.953768 0.496319 0.504571 -0.013442
C14   C     C_R   0.047842 0.503217 0.509509 -0.014973
C15   C     C_R   0.907026 0.614252 0.561989 -0.025008
C16   C     C_R   0.094416 0.385720 0.448902 -0.027256
C17   C     C_R   0.957041 0.254980 0.394982 0.241674
C18   C     C_R   0.047191 0.742606 0.643624 0.233099
C19   C     C_R   0.049076 0.262963 0.391501 0.267159
C20   C     C_R   0.953634 0.736159 0.631155 0.258925
H1    H     H_    0.777170 0.697293 0.601832 0.186228
H2    H     H_    0.224333 0.302833 0.409152 0.173736
H3    H     H_    0.428958 0.865710 0.398461 0.215369
H4    H     H_    0.480196 0.141802 0.624220 0.196059
C21   C     C_2   0.482737 0.109745 0.399907 0.165543
C22   C     C_2   0.512424 0.888130 0.595443 0.156101
C23   C     C_2   0.477926 0.069796 0.511965 -0.248379
C24   C     C_2   0.471882 0.932529 0.494178 -0.225493
H5    H     H_    0.440046 0.425064 0.845037 0.153198
H6    H     H_    0.558186 0.577846 0.155722 0.169344
N1    N     N_2   0.460520 0.445420 0.137370 -0.071128
N2    N     N_2   0.539480 0.554580 0.862630 -0.063043
C25   C     C_2   0.506014 0.509562 0.081017 0.067969
C26   C     C_2   0.493150 0.491710 0.919331 0.047397
C27   C     C_R   0.756869 0.246320 0.374151 0.024705
C28   C     C_R   0.739499 0.179006 0.220279 -0.090370
C29   C     C_R   0.705697 0.049448 0.161164 0.053705
C30   C     C_R   0.687203 0.988125 0.255034 -0.006123
C31   C     C_R   0.698486 0.058063 0.407858 -0.085732
C32   C     C_R   0.732290 0.187668 0.467681 -0.086553
H7    H     H_    0.757953 0.223439 0.147076 0.178067
H8    H     H_    0.697463 0.995014 0.043061 0.224822
H9    H     H_    0.663726 0.886571 0.209596 0.205045
H10   H     H_    0.683186 0.010546 0.479865 0.205312
H11   H     H_    0.744741 0.239064 0.586606 0.186273
C33   C     C_R   0.241838 0.754811 0.617147 0.026421
C34   C     C_R   0.231910 0.829446 0.528305 -0.079461
C35   C     C_R   0.272319 0.954903 0.580609 -0.090554
C36   C     C_R   0.323254 0.005661 0.720724 -0.084805
C37   C     C_R   0.336210 0.929388 0.806679 -0.001834
C38   C     C_R   0.296574 0.803660 0.754703 -0.080767
H12   H     H_    0.190497 0.792328 0.421290 0.184600
H13   H     H_    0.264010 0.013126 0.513022 0.187268
H14   H     H_    0.353893 0.103201 0.761600 0.175224
H15   H     H_    0.375904 0.968257 0.914384 0.234891
H16   H     H_    0.305099 0.746955 0.824132 0.176804
N3    N     N_R   0.918195 0.126275 0.353922 0.137846
O9    O     O_R   0.913017 0.081664 0.457096 -0.253110
O10   O     O_R   0.914963 0.042747 0.217999 -0.262529
N4    N     N_R   0.091450 0.866446 0.734494 0.148988
O11   O     O_R   0.125103 0.886420 0.870151 -0.263432
O12   O     O_R   0.077759 0.967073 0.696319 -0.238765
N5    N     N_R   0.096906 0.143796 0.331779 0.140348
O13   O     O_R   0.102004 0.058334 0.394056 -0.291544
O14   O     O_R   0.129237 0.116085 0.208445 -0.261109
N6    N     N_R   0.906322 0.854935 0.695344 0.154709
O15   O     O_R   0.916717 0.918211 0.838022 -0.228837
O16   O     O_R   0.855551 0.902579 0.610662 -0.300267
N7    N     N_R   0.562353 0.974013 0.733008 0.124533
O17   O     O_R   0.555659 0.957666 0.854707 -0.314948
O18   O     O_R   0.620198 0.060869 0.735582 -0.359004
N8    N     N_R   0.481822 0.019534 0.246619 0.128768
O19   O     O_R   0.485423 0.065204 0.143967 -0.306891
O20   O     O_R   0.487687 0.893038 0.209066 -0.388164
N9    N     N_R   0.618809 0.620989 0.944427 0.234124
O21   O     O_R   0.644735 0.723544 0.923776 -0.292778
O22   O     O_R   0.677995 0.562348 0.005930 -0.362270
N10   N     N_R   0.382920 0.374992 0.053513 0.221885
O23   O     O_R   0.361310 0.267563 0.068270 -0.280735
O24   O     O_R   0.321131 0.432127 0.994590 -0.358871

loop_
_geom_bond_atom_site_label_1
_geom_bond_atom_site_label_2
_geom_bond_distance
_ccdc_geom_bond_type
C3    C8    1.454110 S    
C17   C19   1.398765 A    
H4    C23   1.086395 S    
N5    O14   1.301158 A    
N5    O13   1.300755 A    
C10   C33   1.480710 S    
C34   H12   1.083019 S    
N9    O21   1.299320 A    
O5    C3    1.294789 A    
C36   H14   1.082084 S    
O1    C1    1.306140 A    
N6    O16   1.301063 A    
C9    C11   1.430498 A    
C14   C16   1.415118 A    
C5    C15   1.393402 A    
C19   N5    1.437583 S    
C31   H10   1.081200 S    
C15   C20   1.405282 A    
C33   C34   1.404556 A    
O4    Cu1   1.936534 S    
C38   H16   1.083173 S    
H6    C25   1.082879 S    
C4    C7    1.455796 S    
C13   C14   1.415302 A    
N4    O11   1.300884 A    
C11   C17   1.430059 A    
C36   C37   1.396783 A    
C12   C18   1.426774 A    
Cu1   Cu2   2.690720 S    
N1    C25   1.308224 D    
O2    C2    1.299206 A    
N2    C26   1.308315 D    
Cu1   N2    2.021339 S    
C21   N8    1.459064 S    
N9    O22   1.302526 A    
C6    C16   1.392616 A    
C30   H9    1.080943 S    
N3    O9    1.300898 A    
N6    O15   1.301012 A    
O4    C2    1.294217 A    
N7    O18   1.301306 A    
O7    Cu2   1.960787 S    
C35   C36   1.397155 A    
C27   C28   1.403178 A    
C28   H7    1.083137 S    
C22   N7    1.441238 S    
C37   C38   1.396117 A    
N3    O10   1.301613 A    
C25   C26   1.518152 S    
C23   C24   1.455733 S    
C20   N6    1.436850 S    
C29   C30   1.397585 A    
O6    C4    1.297440 A    
N2    N9    1.393110 S    
O7    C3    1.294973 A    
C29   H8    1.080100 S    
O3    Cu2   1.936535 S    
O8    C4    1.292799 A    
Cu2   N1    2.021339 S    
C30   C31   1.396664 A    
N10   O24   1.302407 A    
C37   H15   1.077367 S    
N8    O19   1.299928 A    
N8    O20   1.300194 A    
C11   C13   1.430202 A    
C12   C14   1.429081 A    
O1    Cu1   1.931851 S    
C35   H13   1.081667 S    
C5    C7    1.382742 A    
N1    N10   1.393065 S    
C28   C29   1.397027 A    
O6    Cu2   1.973770 S    
C21   C23   1.349059 D    
C18   N4    1.433136 S    
H3    C24   1.084553 S    
C10   C12   1.428278 A    
O3    C1    1.292984 A    
O8    Cu1   1.960787 S    
C9    C27   1.478853 S    
C5    H1    1.083648 S    
H5    C26   1.082772 S    
C6    H2    1.083736 S    
C32   H11   1.083094 S    
C18   C20   1.399752 A    
C34   C35   1.398066 A    
C27   C32   1.404218 A    
C1    C21   1.475240 S    
C22   C24   1.340651 D    
C7    C9    1.407311 A    
C2    C22   1.461658 S    
C8    C10   1.407585 A    
C13   C15   1.415806 A    
O2    Cu2   1.931851 S    
C17   N3    1.432058 S    
N7    O17   1.299658 A    
O5    Cu1   1.973770 S    
N10   O23   1.299549 A    
C16   C19   1.402826 A    
C6    C8    1.381236 A    
C31   C32   1.397349 A    
C33   C38   1.402739 A    
N4    O12   1.301519 A    
