data_mof_unit_8487.cif
_audit_creation_date              2012-10-26T19:10:46-0400
_audit_creation_method            fapswitch 2.2
_symmetry_space_group_name_H-M    P1
_symmetry_Int_Tables_number       1
_space_group_crystal_system       triclinic
_cell_length_a                    10.829468
_cell_length_b                    9.493464
_cell_length_c                    23.480859
_cell_angle_alpha                 90.10482
_cell_angle_beta                  92.099039
_cell_angle_gamma                 90.06816
_cell_volume                      2412.42174748

loop_
_atom_site_label
_atom_site_type_symbol
_atom_type_description
_atom_site_fract_x
_atom_site_fract_y
_atom_site_fract_z
_atom_type_partial_charge
C1    C     C_R   0.260522 0.499668 0.497511 0.542993
C2    C     C_R   0.575799 0.434075 0.120336 0.400624
C3    C     C_R   0.537166 0.584719 0.234141 -0.051094
C4    C     C_R   0.499389 0.499629 0.390984 0.558559
C5    C     C_R   0.547764 0.596950 0.293455 -0.027750
C6    C     C_R   0.490878 0.495637 0.328069 -0.002867
C7    C     C_R   0.424839 0.383879 0.301721 -0.151804
C8    C     C_R   0.415763 0.372246 0.242547 -0.050617
C9    C     C_R   0.472374 0.472299 0.208550 0.222214
C10   C     C_R   0.409422 0.366697 0.753749 0.185685
C11   C     C_R   0.418000 0.379370 0.694598 -0.144458
C12   C     C_R   0.235513 0.486380 0.968174 -0.028160
C13   C     C_R   0.478219 0.495295 0.670768 -0.018969
C14   C     C_R   0.523123 0.603023 0.706634 -0.157952
C15   C     C_R   0.513736 0.592258 0.765436 -0.085470
C16   C     C_R   0.740410 0.499755 0.500017 0.548777
C17   C     C_R   0.458861 0.473701 0.789403 0.269270
C18   C     C_3   0.081120 0.556300 0.554137 -0.227604
C19   C     C_3   0.073308 0.347620 0.486173 -0.233660
C20   C     C_3   0.938884 0.568097 0.554397 -0.126117
C21   C     C_3   0.932503 0.343533 0.493013 -0.108215
C22   C     C_3   0.070852 0.591275 0.447265 -0.236513
C23   C     C_R   0.240695 0.485484 0.027677 -0.120980
C24   C     C_3   0.123686 0.498760 0.496305 -0.005853
C25   C     C_3   0.880141 0.499015 0.498918 -0.001937
C26   C     C_3   0.926350 0.587472 0.445892 -0.036009
C27   C     C_3   0.591219 0.084833 0.544570 0.169982
C28   C     C_3   0.601790 0.918266 0.539203 0.168138
C29   C     C_3   0.376788 0.083397 0.513625 -0.103597
C30   C     C_3   0.380307 0.917447 0.518825 -0.108618
C31   C     C_3   0.531871 0.082631 0.444943 -0.146874
C32   C     C_3   0.521199 0.916295 0.443820 -0.144054
C33   C     C_R   0.494695 0.499619 0.608811 0.556520
C34   C     C_R   0.353117 0.468788 0.058365 0.019083
C35   C     C_R   0.566181 0.439082 0.879963 0.384503
C36   C     C_R   0.348160 0.477014 0.877346 0.423539
C37   C     C_R   0.345676 0.471099 0.937636 0.010628
C38   C     C_R   0.459179 0.450840 0.968713 -0.041438
C39   C     C_R   0.569441 0.433481 0.939528 0.015386
C40   C     C_1   0.114720 0.503321 0.940740 0.276145
C41   C     C_1   0.893966 0.509719 0.608110 0.174118
C42   C     C_1   0.909610 0.248635 0.541154 0.193691
C43   C     C_1   0.883516 0.735365 0.445558 0.215944
C44   C     C_1   0.879652 0.524238 0.391617 0.192087
C45   C     C_R   0.463057 0.449478 0.029079 -0.039658
C46   C     C_3   0.656893 0.176821 0.641370 -0.250758
C47   C     C_3   0.727145 0.826328 0.622646 -0.300584
C48   C     C_1   0.806885 0.389753 0.056827 0.278758
C49   C     C_1   0.625067 0.708527 0.316362 0.223681
C50   C     C_3   0.435983 0.136156 0.795122 -0.290210
C51   C     C_R   0.576798 0.430479 0.060071 0.015067
C52   C     C_R   0.686399 0.410516 0.029534 -0.026943
C53   C     C_R   0.681268 0.412247 0.970118 -0.123748
C54   C     C_R   0.357976 0.473369 0.118080 0.407441
Cu1   Cu    Cu3+1 0.499860 0.642410 0.500030 0.926663
Cu2   Cu    Cu3+1 0.499860 0.357590 0.500030 0.913225
H1    H     H_    0.379904 0.296716 0.667326 0.120218
H2    H     H_    0.107183 0.700522 0.453279 0.128382
H3    H     H_    0.107887 0.554414 0.406133 0.122418
H4    H     H_    0.155700 0.498906 0.050129 0.184182
H5    H     H_    0.682755 0.129015 0.535260 0.153412
H6    H     H_    0.690843 0.896231 0.518906 0.144613
H7    H     H_    0.340232 0.130916 0.552813 0.126906
H8    H     H_    0.360784 0.885400 0.563043 0.109202
H9    H     H_    0.468815 0.125139 0.410779 0.137079
H10   H     H_    0.444838 0.884537 0.413434 0.129517
H11   H     H_    0.627024 0.114980 0.434166 0.134480
H12   H     H_    0.568366 0.693642 0.689770 0.127164
H13   H     H_    0.606916 0.871560 0.427204 0.179355
H14   H     H_    0.308723 0.112530 0.478952 0.108604
H15   H     H_    0.303313 0.874482 0.491445 0.122939
H16   H     H_    0.766159 0.397972 0.947663 0.184118
H17   H     H_    0.581726 0.661132 0.207400 0.142296
H18   H     H_    0.379960 0.304887 0.327039 0.122151
H19   H     H_    0.365927 0.284536 0.223104 0.146840
H20   H     H_    0.484517 0.082216 0.620683 0.222218
H21   H     H_    0.618182 0.202321 0.683199 0.139332
H22   H     H_    0.698630 0.273581 0.624340 0.216996
H23   H     H_    0.551174 0.675255 0.792685 0.131393
H24   H     H_    0.729133 0.096490 0.648313 0.165094
H25   H     H_    0.533332 0.859817 0.620742 0.245286
H26   H     H_    0.726943 0.861845 0.667699 0.127813
H27   H     H_    0.803294 0.880664 0.601040 0.145391
H28   H     H_    0.743276 0.712008 0.622855 0.181248
H29   H     H_    0.279026 0.208059 0.751897 0.256311
H30   H     H_    0.383889 0.050219 0.815494 0.155876
H31   H     H_    0.506071 0.176734 0.826699 0.189691
H32   H     H_    0.483116 0.092226 0.757774 0.120326
H33   H     H_    0.121888 0.662381 0.562647 0.117770
H34   H     H_    0.094802 0.312025 0.442401 0.118419
H35   H     H_    0.117596 0.485673 0.588727 0.138898
H36   H     H_    0.121867 0.272362 0.515755 0.140524
H37   H     H_    0.914532 0.681662 0.554826 0.110088
H38   H     H_    0.889158 0.292299 0.454603 0.129193
N1    N     N_R   0.457160 0.461537 0.850328 -0.388854
N2    N     N_2   0.559841 0.127255 0.602281 -0.487472
N3    N     N_2   0.607850 0.852370 0.594935 -0.474726
N4    N     N_1   0.903595 0.373133 0.078390 -0.227328
N5    N     N_1   0.688642 0.798350 0.333319 -0.282921
N6    N     N_2   0.351400 0.246595 0.777165 -0.478666
N7    N     N_R   0.468157 0.457936 0.147592 -0.399794
N8    N     N_3   0.500250 0.143650 0.501250 -0.238103
N9    N     N_3   0.500250 0.856350 0.501250 -0.235695
N10   N     N_1   0.017762 0.516845 0.919043 -0.230919
N11   N     N_1   0.860144 0.465462 0.650709 -0.290648
N12   N     N_1   0.898063 0.172022 0.578790 -0.353013
N13   N     N_1   0.852925 0.852084 0.444885 -0.335959
N14   N     N_1   0.843341 0.474228 0.349231 -0.262912
O1    O     O_R   0.317570 0.620260 0.500030 -0.521254
O2    O     O_2   0.243754 0.500235 0.845733 -0.455139
O3    O     O_2   0.253655 0.495674 0.146514 -0.474956
O4    O     O_2   0.680922 0.414150 0.151853 -0.457590
O5    O     O_R   0.317570 0.379740 0.500030 -0.523467
O6    O     O_R   0.499840 0.620290 0.417900 -0.506284
O7    O     O_R   0.499840 0.379710 0.417900 -0.512024
O8    O     O_R   0.682190 0.620260 0.500010 -0.489748
O9    O     O_R   0.682190 0.379740 0.500010 -0.511665
O10   O     O_R   0.499920 0.620230 0.582140 -0.478670
O11   O     O_R   0.499920 0.379770 0.582140 -0.473283
O12   O     O_2   0.671417 0.422147 0.851605 -0.484868

loop_
_geom_bond_atom_site_label_1
_geom_bond_atom_site_label_2
_ccdc_geom_bond_type
C28   N3    S    
Cu1   Cu2   S    
C29   H7    S    
C30   H8    S    
Cu2   O9    S    
C4    O7    A    
C36   N1    A    
C20   H37   S    
C30   H15   S    
C35   O12   S    
C26   C44   S    
C7    C8    A    
C39   C53   A    
C31   H11   S    
C12   C23   A    
C2    O4    S    
C29   C30   S    
C41   N11   T    
C18   C24   S    
C18   H35   S    
C4    O6    A    
C36   C37   A    
C19   C21   S    
C38   C39   A    
C49   N5    T    
Cu1   O8    S    
C45   C51   A    
C10   C17   A    
Cu1   N9    S    
C31   H9    S    
C47   H26   S    
C12   C37   A    
C38   C45   A    
C19   H36   S    
C27   H5    S    
C1    O1    A    
C15   H23   S    
C8    C9    A    
C30   N9    S    
C29   N8    S    
Cu2   O5    S    
C17   N1    S    
C47   H27   S    
C50   H32   S    
C33   O10   A    
C13   C14   A    
Cu1   O1    S    
C5    C49   S    
C27   N2    S    
C1    O5    A    
C16   O8    A    
C26   C43   S    
C20   C41   S    
C7    H18   S    
C44   N14   T    
C23   H4    S    
C51   C52   A    
C31   N8    S    
C4    C6    S    
C2    C51   A    
C22   H3    S    
C46   H22   S    
C2    N7    A    
C25   C26   S    
C8    H19   S    
C12   C40   S    
C35   C39   A    
C13   C33   S    
C37   C38   A    
C3    C9    A    
C40   N10   T    
C31   C32   S    
C23   C34   A    
C32   N9    S    
C34   C45   A    
C43   N13   T    
C47   H28   S    
C10   N6    S    
C42   N12   T    
C6    C7    A    
C54   N7    A    
C50   H31   S    
C34   C54   A    
C36   O2    S    
Cu2   O11   S    
C22   C24   S    
C52   C53   A    
C32   H10   S    
C29   H14   S    
C16   C25   S    
C15   C17   A    
C21   C25   S    
C18   H33   S    
C3    C5    A    
C22   H2    S    
C46   H21   S    
C33   O11   A    
C32   H13   S    
Cu1   O6    S    
C35   N1    A    
C48   N4    T    
C27   N8    S    
C50   N6    S    
C47   N3    S    
C19   C24   S    
Cu2   N8    S    
H29   N6    S    
C16   O9    A    
H20   N2    S    
C46   H24   S    
C11   C13   A    
C28   N9    S    
C5    C6    A    
H25   N3    S    
Cu2   O7    S    
C54   O3    S    
C18   C20   S    
C3    H17   S    
C10   C11   A    
C50   H30   S    
C22   C26   S    
C21   C42   S    
C21   H38   S    
C48   C52   S    
C46   N2    S    
C1    C24   S    
C9    N7    S    
C20   C25   S    
C27   C28   S    
C19   H34   S    
C14   H12   S    
C14   C15   A    
C11   H1    S    
C53   H16   S    
Cu1   O10   S    
C28   H6    S    
