data_mof_unit_66454.cif
_audit_creation_date              2012-10-26T18:07:55-0400
_audit_creation_method            fapswitch 2.2
_symmetry_space_group_name_H-M    P1
_symmetry_Int_Tables_number       1
_space_group_crystal_system       monoclinic
_cell_length_a                    30.217616
_cell_length_b                    30.757299
_cell_length_c                    21.796305
_cell_angle_alpha                 90.0
_cell_angle_beta                  134.162886
_cell_angle_gamma                 90.0
_cell_volume                      14532.1432139

loop_
_atom_site_label
_atom_site_type_symbol
_atom_type_description
_atom_site_fract_x
_atom_site_fract_y
_atom_site_fract_z
_atom_type_partial_charge
C1    C     C_R   0.689972 0.809055 0.883089 0.559163
C2    C     C_R   0.522247 0.673616 0.998363 0.432377
C3    C     C_R   0.665111 0.250829 0.001466 0.527237
C4    C     C_R   0.410043 0.792757 0.006405 0.247431
C5    C     C_R   0.589956 0.792757 0.993595 0.247431
C6    C     C_R   0.910043 0.292757 0.006405 0.247431
C7    C     C_R   0.089956 0.292757 0.993595 0.247431
C8    C     C_R   0.386685 0.752544 0.005496 -0.008497
C9    C     C_R   0.613315 0.752544 0.994504 -0.008497
C10   C     C_R   0.886685 0.252544 0.005496 -0.008497
C11   C     C_R   0.113315 0.252544 0.994504 -0.008497
C12   C     C_R   0.410084 0.713291 0.005503 -0.121764
C13   C     C_R   0.977753 0.173616 0.001637 0.432377
C14   C     C_R   0.589916 0.713291 0.994497 -0.121765
C15   C     C_R   0.910084 0.213291 0.005503 -0.121765
C16   C     C_R   0.089916 0.213291 0.994497 -0.121764
C17   C     C_R   0.455114 0.713045 0.003194 -0.046618
C18   C     C_R   0.544886 0.713045 0.996806 -0.046618
C19   C     C_R   0.955114 0.213045 0.003194 -0.046618
C20   C     C_R   0.044886 0.213045 0.996806 -0.046618
C21   C     C_R   0.477379 0.752902 0.001404 -0.053422
C22   C     C_R   0.522621 0.752902 0.998596 -0.053422
C23   C     C_R   0.977379 0.252902 0.001404 -0.053422
C24   C     C_R   0.022246 0.173616 0.998363 0.432377
C25   C     C_R   0.022621 0.252902 0.998596 -0.053422
C26   C     C_R   0.522283 0.832027 0.998551 -0.098859
C27   C     C_R   0.477717 0.832027 0.001449 -0.098859
C28   C     C_R   0.022283 0.332027 0.998551 -0.098859
C29   C     C_R   0.977717 0.332027 0.001449 -0.098859
C30   C     C_2   0.562038 0.875920 0.685513 -0.111313
C31   C     C_2   0.437962 0.875920 0.314487 -0.111313
C32   C     C_2   0.062038 0.375920 0.685513 -0.111313
C33   C     C_R   0.310028 0.809055 0.116911 0.559163
C34   C     C_2   0.937962 0.375920 0.314487 -0.111313
C35   C     C_2   0.590780 0.905069 0.677639 -0.157710
C36   C     C_2   0.409220 0.905069 0.322361 -0.157710
C37   C     C_2   0.090780 0.405069 0.677639 -0.157711
C38   C     C_2   0.909220 0.405069 0.322361 -0.157710
C39   C     C_2   0.595982 0.839218 0.745751 0.366142
C40   C     C_2   0.404018 0.839218 0.254249 0.366143
C41   C     C_2   0.095981 0.339218 0.745751 0.366143
C42   C     C_2   0.904018 0.339218 0.254249 0.366143
C43   C     C_2   0.655159 0.843714 0.819948 -0.073136
C44   C     C_R   0.189972 0.309055 0.883089 0.559163
C45   C     C_2   0.344840 0.843714 0.180051 -0.073136
C46   C     C_2   0.155160 0.343714 0.819948 -0.073136
C47   C     C_2   0.844840 0.343714 0.180051 -0.073136
C48   C     C_R   0.133654 0.752892 0.082171 0.230760
C49   C     C_R   0.866346 0.752892 0.917829 0.230760
C50   C     C_R   0.633654 0.252892 0.082171 0.230760
C51   C     C_R   0.366346 0.252892 0.917829 0.230760
C52   C     C_R   0.117957 0.752376 0.003805 -0.005537
C53   C     C_R   0.882043 0.752376 0.996195 -0.005536
C54   C     C_R   0.617957 0.252376 0.003805 -0.005537
C55   C     C_R   0.810028 0.309055 0.116911 0.559163
C56   C     C_R   0.382043 0.252376 0.996195 -0.005536
C57   C     C_R   0.056082 0.752487 0.925763 -0.148219
C58   C     C_R   0.943918 0.752487 0.074237 -0.148219
C59   C     C_R   0.556082 0.252487 0.925763 -0.148219
C60   C     C_R   0.443918 0.252487 0.074237 -0.148219
C61   C     C_R   0.663522 0.750747 0.998293 0.527703
C62   C     C_R   0.336478 0.750747 0.001707 0.527703
C63   C     C_R   0.163522 0.250747 0.998293 0.527703
C64   C     C_R   0.836478 0.250747 0.001707 0.527703
C65   C     C_R   0.008996 0.752053 0.923759 -0.000557
C66   C     C_R   0.454680 0.792750 0.002733 0.081489
C67   C     C_R   0.991004 0.752053 0.076241 -0.000557
C68   C     C_R   0.508996 0.252053 0.923759 -0.000557
C69   C     C_R   0.491004 0.252053 0.076241 -0.000557
C70   C     C_R   0.023847 0.751625 0.001056 0.018894
C71   C     C_R   0.976152 0.751625 0.998944 0.018894
C72   C     C_R   0.523848 0.251625 0.001056 0.018894
C73   C     C_R   0.476152 0.251625 0.998944 0.018894
C74   C     C_R   0.086240 0.751801 0.080419 0.065938
C75   C     C_R   0.913759 0.751801 0.919581 0.065937
C76   C     C_R   0.586240 0.251801 0.080419 0.065938
C77   C     C_R   0.545320 0.792750 0.997266 0.081489
C78   C     C_R   0.413760 0.251801 0.919581 0.065937
C79   C     C_R   0.947209 0.751963 0.845423 -0.130360
C80   C     C_R   0.052791 0.751963 0.154577 -0.130360
C81   C     C_R   0.447209 0.251963 0.845423 -0.130360
C82   C     C_R   0.552791 0.251963 0.154577 -0.130360
C83   C     C_R   0.900034 0.751855 0.843263 -0.081877
C84   C     C_R   0.099965 0.751855 0.156737 -0.081877
C85   C     C_R   0.400035 0.251855 0.843263 -0.081877
C86   C     C_R   0.599965 0.251855 0.156737 -0.081877
C87   C     C_2   0.937990 0.624063 0.314499 -0.114308
C88   C     C_R   0.954680 0.292750 0.002733 0.081489
C89   C     C_2   0.062010 0.624063 0.685501 -0.114308
C90   C     C_2   0.437990 0.124063 0.314499 -0.114308
C91   C     C_2   0.562010 0.124063 0.685501 -0.114308
C92   C     C_2   0.909255 0.594898 0.322359 -0.157602
C93   C     C_2   0.090745 0.594898 0.677641 -0.157601
C94   C     C_2   0.409255 0.094898 0.322359 -0.157601
C95   C     C_2   0.590745 0.094898 0.677641 -0.157601
C96   C     C_2   0.904033 0.660765 0.254244 0.360326
C97   C     C_2   0.095967 0.660765 0.745756 0.360326
C98   C     C_2   0.404033 0.160765 0.254244 0.360326
C99   C     C_R   0.045320 0.292750 0.997266 0.081489
C100  C     C_2   0.595967 0.160765 0.745756 0.360326
C101  C     C_2   0.844852 0.656265 0.180034 -0.067580
C102  C     C_2   0.155148 0.656265 0.819966 -0.067580
C103  C     C_2   0.344852 0.156265 0.180034 -0.067579
C104  C     C_2   0.655148 0.156265 0.819966 -0.067580
C105  C     C_R   0.058027 0.559616 0.615659 0.560042
C106  C     C_R   0.941973 0.559616 0.384341 0.560042
C107  C     C_R   0.558027 0.059616 0.615659 0.560042
C108  C     C_R   0.441973 0.059616 0.384341 0.560042
C109  C     C_R   0.810025 0.690925 0.116867 0.579321
C110  C     C_R   0.477753 0.673616 0.001637 0.432377
C111  C     C_R   0.189974 0.690925 0.883133 0.579321
C112  C     C_R   0.310025 0.190925 0.116867 0.579321
C113  C     C_R   0.689974 0.190925 0.883133 0.579321
C114  C     C_R   0.558066 0.940357 0.615682 0.560341
C115  C     C_R   0.441934 0.940357 0.384318 0.560341
C116  C     C_R   0.058066 0.440357 0.615682 0.560340
C117  C     C_R   0.941934 0.440357 0.384318 0.560341
C118  C     C_R   0.834889 0.750829 0.998534 0.527238
C119  C     C_R   0.165111 0.750829 0.001466 0.527237
C120  C     C_R   0.334889 0.250829 0.998534 0.527238
Cu1   Cu    Cu3+1 0.719490 0.719480 0.938970 1.069636
Cu2   Cu    Cu3+1 0.544470 0.999980 0.500010 1.000827
Cu3   Cu    Cu3+1 0.955530 0.499980 0.499990 1.000828
Cu4   Cu    Cu3+1 0.044470 0.499980 0.500010 1.000828
Cu5   Cu    Cu3+1 0.280510 0.719480 0.061030 1.069636
Cu6   Cu    Cu3+1 0.219490 0.219480 0.938970 1.069636
Cu7   Cu    Cu3+1 0.780510 0.219480 0.061030 1.069636
Cu8   Cu    Cu3+1 0.780480 0.780500 0.060980 1.053485
Cu9   Cu    Cu3+1 0.219520 0.780500 0.939020 1.053485
Cu10  Cu    Cu3+1 0.280480 0.280500 0.060980 1.053485
Cu11  Cu    Cu3+1 0.719520 0.280500 0.939020 1.053485
Cu12  Cu    Cu3+1 0.455530 0.999980 0.499990 1.000828
F1    F     F_    0.935188 0.698264 0.272656 -0.598909
F2    F     F_    0.435178 0.801721 0.272669 -0.585979
F3    F     F_    0.064822 0.301721 0.727331 -0.585979
F4    F     F_    0.935178 0.301721 0.272669 -0.585979
F5    F     F_    0.064812 0.698264 0.727344 -0.598909
F6    F     F_    0.435188 0.198264 0.272656 -0.598909
F7    F     F_    0.564812 0.198264 0.727344 -0.598909
F8    F     F_    0.456731 0.634975 0.003115 -0.575721
F9    F     F_    0.543269 0.634975 0.996885 -0.575721
F10   F     F_    0.956731 0.134975 0.003115 -0.575721
F11   F     F_    0.043269 0.134975 0.996885 -0.575721
F12   F     F_    0.564822 0.801721 0.727331 -0.585978
H1    H     H_    0.044639 0.752180 0.866240 0.160554
H2    H     H_    0.147211 0.751996 0.218518 0.186314
H3    H     H_    0.352788 0.251997 0.781482 0.186314
H4    H     H_    0.647211 0.251997 0.218518 0.186314
H5    H     H_    0.987658 0.622538 0.356183 0.173984
H6    H     H_    0.012342 0.622538 0.643817 0.173984
H7    H     H_    0.487658 0.122538 0.356183 0.173984
H8    H     H_    0.512342 0.122538 0.643817 0.173984
H9    H     H_    0.860875 0.599003 0.287264 0.111269
H10   H     H_    0.139125 0.599003 0.712736 0.111269
H11   H     H_    0.360875 0.099003 0.287263 0.111269
H12   H     H_    0.955361 0.752180 0.133760 0.160554
H13   H     H_    0.639125 0.099003 0.712736 0.111269
H14   H     H_    0.822434 0.624740 0.161164 0.052995
H15   H     H_    0.177566 0.624740 0.838836 0.052995
H16   H     H_    0.322434 0.124740 0.161164 0.052994
H17   H     H_    0.677566 0.124740 0.838836 0.052995
H18   H     H_    0.391816 0.682843 0.005177 0.193289
H19   H     H_    0.608184 0.682843 0.994823 0.193289
H20   H     H_    0.891816 0.182843 0.005177 0.193289
H21   H     H_    0.108184 0.182843 0.994823 0.193289
H22   H     H_    0.538665 0.863068 0.997493 0.182146
H23   H     H_    0.544639 0.252180 0.866240 0.160554
H24   H     H_    0.461335 0.863068 0.002507 0.182146
H25   H     H_    0.038665 0.363068 0.997493 0.182146
H26   H     H_    0.961335 0.363068 0.002507 0.182146
H27   H     H_    0.512374 0.877461 0.643855 0.175877
H28   H     H_    0.487625 0.877462 0.356144 0.175877
H29   H     H_    0.012375 0.377462 0.643856 0.175876
H30   H     H_    0.987625 0.377462 0.356144 0.175877
H31   H     H_    0.639153 0.900948 0.712708 0.108468
H32   H     H_    0.360847 0.900948 0.287292 0.108468
H33   H     H_    0.139153 0.400948 0.712708 0.108468
H34   H     H_    0.455361 0.252180 0.133760 0.160554
H35   H     H_    0.860847 0.400948 0.287292 0.108468
H36   H     H_    0.677582 0.875237 0.838828 0.052628
H37   H     H_    0.322418 0.875237 0.161172 0.052628
H38   H     H_    0.177582 0.375237 0.838828 0.052628
H39   H     H_    0.822418 0.375237 0.161172 0.052628
H40   H     H_    0.375670 0.827898 0.039436 0.343944
H41   H     H_    0.624330 0.827898 0.960564 0.343944
H42   H     H_    0.875670 0.327898 0.039436 0.343944
H43   H     H_    0.124330 0.327898 0.960564 0.343944
H44   H     H_    0.219869 0.768952 0.153335 0.339320
H45   H     H_    0.935313 0.752153 0.785637 0.137911
H46   H     H_    0.780130 0.768952 0.846665 0.339320
H47   H     H_    0.719869 0.268952 0.153335 0.339320
H48   H     H_    0.280130 0.268952 0.846665 0.339320
H49   H     H_    0.064687 0.752153 0.214363 0.137911
H50   H     H_    0.435313 0.252153 0.785637 0.137911
H51   H     H_    0.564687 0.252153 0.214363 0.137911
H52   H     H_    0.852788 0.751996 0.781482 0.186314
O1    O     O_R   0.679710 0.768740 0.859430 -0.442777
O2    O     O_R   0.493030 0.955460 0.410980 -0.502603
O3    O     O_R   0.006970 0.455460 0.589020 -0.502603
O4    O     O_R   0.993030 0.455460 0.410980 -0.502603
O5    O     O_R   0.582050 0.955480 0.588990 -0.498691
O6    O     O_R   0.417950 0.955480 0.411010 -0.498691
O7    O     O_R   0.082050 0.455480 0.588990 -0.498691
O8    O     O_R   0.917950 0.455480 0.411010 -0.498691
O9    O     O_R   0.731220 0.820270 0.962460 -0.530142
O10   O     O_R   0.268780 0.820270 0.037540 -0.530142
O11   O     O_R   0.231220 0.320270 0.962460 -0.530142
O12   O     O_R   0.320290 0.768740 0.140570 -0.442777
O13   O     O_R   0.768780 0.320270 0.037540 -0.530142
O14   O     O_R   0.659370 0.724200 0.948480 -0.497470
O15   O     O_R   0.340630 0.724200 0.051520 -0.497470
O16   O     O_R   0.159370 0.224200 0.948480 -0.497470
O17   O     O_R   0.840630 0.224200 0.051520 -0.497470
O18   O     O_R   0.710880 0.775730 0.051510 -0.498989
O19   O     O_R   0.289120 0.775730 0.948490 -0.498989
O20   O     O_R   0.210880 0.275730 0.051510 -0.498989
O21   O     O_R   0.789120 0.275730 0.948490 -0.498989
O22   O     O_R   0.768760 0.679710 0.037490 -0.523051
O23   O     O_R   0.179710 0.268740 0.859430 -0.442777
O24   O     O_R   0.231240 0.679710 0.962510 -0.523050
O25   O     O_R   0.268760 0.179710 0.037490 -0.523051
O26   O     O_R   0.731240 0.179710 0.962510 -0.523050
O27   O     O_R   0.820270 0.731240 0.140520 -0.440328
O28   O     O_R   0.179730 0.731240 0.859480 -0.440328
O29   O     O_R   0.320270 0.231240 0.140520 -0.440328
O30   O     O_R   0.679730 0.231240 0.859480 -0.440328
O31   O     O_R   0.789100 0.724240 0.948440 -0.498172
O32   O     O_R   0.210900 0.724240 0.051560 -0.498172
O33   O     O_R   0.289100 0.224240 0.948440 -0.498172
O34   O     O_R   0.820290 0.268740 0.140570 -0.442777
O35   O     O_R   0.710900 0.224240 0.051560 -0.498172
O36   O     O_R   0.840600 0.775770 0.051470 -0.505462
O37   O     O_R   0.159400 0.775770 0.948530 -0.505462
O38   O     O_R   0.340600 0.275770 0.051470 -0.505462
O39   O     O_R   0.659400 0.275770 0.948530 -0.505462
O40   O     O_R   0.006940 0.544490 0.589000 -0.503013
O41   O     O_R   0.993060 0.544490 0.411000 -0.503013
O42   O     O_R   0.506940 0.044490 0.589000 -0.503013
O43   O     O_R   0.493060 0.044490 0.411000 -0.503013
O44   O     O_3   0.391169 0.832246 0.012148 -0.692513
O45   O     O_R   0.082020 0.544510 0.588970 -0.498150
O46   O     O_3   0.608831 0.832246 0.987852 -0.692512
O47   O     O_3   0.891169 0.332246 0.012148 -0.692513
O48   O     O_3   0.108831 0.332246 0.987852 -0.692512
O49   O     O_3   0.194088 0.755451 0.160678 -0.690485
O50   O     O_3   0.805912 0.755451 0.839322 -0.690485
O51   O     O_3   0.694088 0.255451 0.160678 -0.690485
O52   O     O_3   0.305912 0.255451 0.839322 -0.690485
O53   O     O_R   0.917980 0.544510 0.411030 -0.498149
O54   O     O_R   0.582020 0.044510 0.588970 -0.498150
O55   O     O_R   0.417980 0.044510 0.411030 -0.498149
O56   O     O_R   0.506970 0.955460 0.589020 -0.502603

loop_
_geom_bond_atom_site_label_1
_geom_bond_atom_site_label_2
_ccdc_geom_bond_type
C71   C75   A    
C33   O12   A    
C65   C79   A    
C57   H1    S    
C21   C66   A    
C2    C18   A    
C33   C45   S    
C112  O25   A    
C14   C18   A    
C34   C42   S    
C63   O16   A    
C4    C8    A    
C17   C110  A    
Cu5   O15   S    
Cu6   O25   S    
C45   H37   S    
Cu3   Cu4   S    
C37   C116  S    
C15   C19   A    
C80   H49   S    
C94   C108  S    
C26   C27   A    
C50   C54   A    
C7    C99   A    
C64   O21   A    
C98   F6    S    
C9    C61   S    
C68   C81   A    
C106  O53   A    
Cu3   O3    S    
C28   C29   A    
Cu3   O53   S    
C11   C63   S    
C10   C15   A    
H42   O47   S    
C3    C54   S    
C103  H16   S    
Cu2   O54   S    
C20   C25   A    
Cu6   Cu10  S    
C24   F11   S    
C60   H34   S    
C65   C70   A    
C115  O6    A    
C100  C104  D    
C6    C88   A    
C31   C40   S    
C35   C114  S    
C42   F4    S    
C51   C56   A    
C62   O19   A    
C49   O50   S    
C105  O45   A    
C83   H52   S    
Cu12  O42   S    
C29   C88   A    
C78   C85   A    
Cu10  O11   S    
Cu7   O26   S    
C3    O39   A    
C81   H50   S    
C38   C117  S    
C1    C43   S    
C2    C110  A    
C20   C24   A    
Cu10  O29   S    
C118  O36   A    
C94   H11   S    
C106  O41   A    
C7    O48   S    
Cu11  O13   S    
C63   O20   A    
C62   O15   A    
C49   C75   A    
C69   C73   A    
C92   H9    S    
C69   C82   A    
C91   C100  S    
Cu5   O32   S    
C1    O9    A    
C98   C103  D    
C97   C102  D    
C109  O27   A    
C68   C72   A    
C27   H24   S    
C42   C47   D    
C120  O38   A    
Cu2   O5    S    
C23   C25   A    
C37   H33   S    
Cu8   O36   S    
C34   C38   D    
C21   C22   A    
C72   C73   A    
Cu4   O41   S    
C30   H27   S    
C56   C120  S    
C55   O34   A    
C102  C111  S    
C44   O23   A    
Cu9   O28   S    
Cu8   O27   S    
C97   F5    S    
C115  O2    A    
C119  O37   A    
C119  O32   A    
C90   C94   D    
C54   C59   A    
Cu8   O18   S    
C40   C45   D    
C43   H36   S    
C107  O42   A    
C10   C64   S    
C33   O10   A    
H46   O50   S    
C26   C77   A    
C13   C19   A    
C108  O55   A    
C80   C84   A    
C48   C74   A    
C15   H20   S    
C58   H12   S    
Cu6   O33   S    
C96   C101  D    
Cu1   Cu8   S    
C47   H39   S    
C52   C57   A    
C3    O35   A    
C104  H17   S    
C116  O3    A    
C53   C118  S    
C90   H7    S    
Cu7   O17   S    
C44   C46   S    
Cu11  O39   S    
C82   C86   A    
C73   C78   A    
C40   F2    S    
Cu10  O38   S    
C44   O11   A    
C17   C21   A    
C104  C113  S    
C13   C24   A    
Cu9   O37   S    
C103  C112  S    
Cu9   O19   S    
C19   C23   A    
C9    C14   A    
Cu5   O24   S    
C70   C74   A    
C48   O49   S    
C34   H30   S    
C100  F7    S    
C50   C76   A    
C59   C68   A    
C55   O13   A    
C26   H22   S    
C11   C16   A    
C64   O17   A    
C7    C11   A    
Cu2   O43   S    
C108  O43   A    
C16   H21   S    
C41   C46   D    
C114  O56   A    
C87   C96   S    
Cu7   O35   S    
C111  O28   A    
C4    O44   S    
C114  O5    A    
H44   O49   S    
Cu2   Cu12  S    
C16   C20   A    
C32   C37   D    
Cu2   O2    S    
Cu10  O20   S    
C28   H25   S    
Cu1   O1    S    
C82   H51   S    
C70   C71   A    
C117  O4    A    
C95   C107  S    
Cu3   O8    S    
C28   C99   A    
C92   C106  S    
C89   H6    S    
C8    C62   S    
C101  H14   S    
C36   H32   S    
C23   C88   A    
C79   H45   S    
C5    O46   S    
C105  O40   A    
C6    O47   S    
C111  O24   A    
C32   C41   S    
C5    C77   A    
C50   O51   S    
C117  O8    A    
C76   C86   A    
C41   F3    S    
C116  O7    A    
C59   H23   S    
Cu6   O23   S    
Cu12  O56   S    
C47   C55   S    
C61   O18   A    
C93   H10   S    
C112  O29   A    
Cu5   O12   S    
C107  O54   A    
C18   C22   A    
C1    O1    A    
C67   C80   A    
C85   H3    S    
C22   C77   A    
C74   C84   A    
H43   O48   S    
Cu1   O22   S    
C86   H4    S    
C102  H15   S    
C14   H19   S    
C39   C43   D    
C53   C58   A    
C96   F1    S    
C84   H2    S    
C118  O31   A    
C30   C35   D    
C32   H29   S    
Cu4   O4    S    
C109  O22   A    
Cu12  O6    S    
H48   O52   S    
Cu11  O21   S    
C35   H31   S    
C46   H38   S    
C25   C99   A    
C51   O52   S    
C51   C78   A    
C93   C105  S    
C27   C66   A    
Cu6   O16   S    
C29   H26   S    
Cu1   O14   S    
C79   C83   A    
Cu9   O10   S    
C36   C115  S    
Cu11  O30   S    
C75   C83   A    
C113  O30   A    
C91   H8    S    
C60   C69   A    
C72   C76   A    
C49   C53   A    
C38   H35   S    
C110  F8    S    
C90   C98   S    
C30   C39   S    
C31   H28   S    
C67   C71   A    
C61   O14   A    
Cu7   O34   S    
C89   C93   D    
H47   O51   S    
Cu7   Cu11  S    
C113  O26   A    
H41   O46   S    
C6    C10   A    
C12   H18   S    
Cu3   O40   S    
C12   C17   A    
C52   C119  S    
Cu5   Cu9   S    
C58   C67   A    
C48   C52   A    
C56   C60   A    
C39   F12   S    
C4    C66   A    
C91   C95   D    
C95   H13   S    
C87   H5    S    
C89   C97   S    
Cu4   O7    S    
C2    F9    S    
C31   C36   D    
Cu8   O9    S    
C5    C9    A    
Cu4   O45   S    
C87   C92   D    
C120  O33   A    
C101  C109  S    
H40   O44   S    
C81   C85   A    
C8    C12   A    
Cu12  O55   S    
Cu1   O31   S    
C57   C65   A    
C13   F10   S    
