data_mof_unit_15061.cif
_audit_creation_date              2012-12-10T17:02:16-0500
_audit_creation_method            fapswitch 2.2
_symmetry_space_group_name_H-M    P1
_symmetry_Int_Tables_number       1
_space_group_crystal_system       triclinic
_cell_length_a                    10.721314
_cell_length_b                    10.74127
_cell_length_c                    10.017963
_cell_angle_alpha                 90.113078
_cell_angle_beta                  89.401491
_cell_angle_gamma                 90.148356
_cell_volume                      1153.60491724

loop_
_atom_site_label
_atom_site_type_symbol
_atom_type_description
_atom_site_fract_x
_atom_site_fract_y
_atom_site_fract_z
_atom_type_partial_charge
C1    C     C_R   0.504316 0.262728 0.499792 0.933736
C2    C     C_R   0.058454 0.506712 0.628644 0.089906
C3    C     C_R   0.125589 0.513426 0.505819 -0.116884
C4    C     C_R   0.063900 0.504261 0.383895 -0.195843
C5    C     C_R   0.937410 0.487879 0.382318 -0.217148
C6    C     C_R   0.872404 0.470658 0.502199 -0.106688
C7    C     C_2   0.521243 0.932558 0.388976 -0.157778
C8    C     C_2   0.491596 0.869211 0.499519 -0.326292
C9    C     C_2   0.514492 0.066565 0.386978 -0.147799
C10   C     C_2   0.520796 0.131637 0.500207 -0.340111
C11   C     C_2   0.503739 0.600715 0.924807 -0.077629
C12   C     C_R   0.259715 0.508409 0.501505 0.875588
C13   C     C_2   0.523640 0.597538 0.073033 -0.148566
C14   C     C_R   0.498713 0.737389 0.499975 0.934078
C15   C     C_R   0.739289 0.486724 0.500069 0.871073
C16   C     C_R   0.106717 0.543413 0.753891 -0.223818
C17   C     C_R   0.043504 0.514496 0.872251 -0.197478
C18   C     C_R   0.934403 0.443877 0.870113 0.525787
C19   C     C_R   0.880554 0.418088 0.745068 -0.290251
C20   C     C_R   0.936165 0.462586 0.625150 0.061872
H1    H     H_    0.112900 0.511433 0.289035 0.198398
H2    H     H_    0.541229 0.089705 0.595836 0.150117
H3    H     H_    0.495218 0.690692 0.877039 0.153907
H4    H     H_    0.530738 0.419831 0.894962 0.165909
H5    H     H_    0.560500 0.680995 0.119381 0.150720
H6    H     H_    0.189952 0.599615 0.762379 0.194462
H7    H     H_    0.081204 0.544870 0.966732 0.192085
H8    H     H_    0.795249 0.364839 0.741188 0.147363
H9    H     H_    0.890567 0.491153 0.287094 0.209607
H10   H     H_    0.547798 0.885745 0.296724 0.166867
H11   H     H_    0.458586 0.912677 0.590933 0.146386
H12   H     H_    0.503374 0.111370 0.290769 0.214588
N1    N     N_2   0.501340 0.501330 0.852150 -0.182334
N2    N     N_2   0.501380 0.501360 0.147810 -0.169643
O1    O     O_R   0.499980 0.319060 0.613040 -0.629678
O2    O     O_R   0.500020 0.319100 0.386900 -0.593710
O3    O     O_R   0.316750 0.499980 0.613090 -0.614768
O4    O     O_R   0.316790 0.500020 0.386950 -0.616368
O5    O     O_R   0.499980 0.680900 0.613100 -0.628335
O6    O     O_R   0.500020 0.680940 0.386960 -0.623130
O7    O     O_R   0.683210 0.499980 0.613050 -0.618259
O8    O     O_R   0.683250 0.500020 0.386910 -0.628945
Zn1   Zn    Zn3+2 0.499970 0.499970 0.650990 0.946152
Zn2   Zn    Zn3+2 0.500030 0.500030 0.349010 0.976480
C21   C     C_2   0.412850 0.411047 0.104366 1.044441
O9    O     O_2   0.433976 0.300530 0.121064 -0.672402
O10   O     O_R   0.300443 0.448474 0.047465 -0.837712
H13   H     H_    0.245549 0.375249 0.022406 0.331110
O11   O     O_3   0.877467 0.416290 0.992159 -0.625591
C22   C     C_3   0.816485 0.299480 0.991365 0.075653
H14   H     H_    0.874547 0.226675 0.941457 0.137251
H15   H     H_    0.724798 0.306987 0.941454 0.143447
C23   C     C_3   0.791612 0.258744 0.134601 -0.782876
H16   H     H_    0.730330 0.327328 0.185928 0.274589
H17   H     H_    0.744407 0.166589 0.135409 0.208789
H18   H     H_    0.880855 0.251402 0.189315 0.249672

loop_
_geom_bond_atom_site_label_1
_geom_bond_atom_site_label_2
_ccdc_geom_bond_type
O3    Zn1   S    
C22   H15   S    
O4    Zn2   S    
C4    H1    S    
H4    N1    S    
C2    C16   A    
O1    Zn1   S    
C9    C10   D    
C15   O8    A    
C19   C20   A    
C11   N1    D    
C23   H16   S    
C23   H17   S    
C17   C18   A    
C18   O11   S    
C13   N2    D    
N2    C21   S    
C21   O9    D    
C10   H2    S    
C12   O4    A    
C19   H8    S    
O7    Zn1   S    
C13   H5    S    
C16   C17   A    
O8    Zn2   S    
C6    C20   A    
C11   H3    S    
C2    C3    A    
C5    H9    S    
C21   O10   S    
C16   H6    S    
C5    C6    A    
C14   O5    A    
C11   C13   S    
O2    Zn2   S    
C22   C23   S    
C7    C8    D    
C2    C20   A    
C3    C4    A    
N1    Zn1   S    
O6    Zn2   S    
N2    Zn2   S    
C15   O7    A    
C7    C9    S    
O11   C22   S    
C23   H18   S    
C12   O3    A    
C7    H10   S    
C1    O1    A    
C18   C19   A    
C8    C14   S    
C3    C12   S    
C9    H12   S    
C22   H14   S    
C6    C15   S    
O5    Zn1   S    
C8    H11   S    
C14   O6    A    
C1    C10   S    
O10   H13   S    
C1    O2    A    
C4    C5    A    
C17   H7    S    
