data_mof_unit_57748.cif
_audit_creation_date              2012-12-10T19:13:34-0500
_audit_creation_method            fapswitch 2.2
_symmetry_space_group_name_H-M    P1
_symmetry_Int_Tables_number       1
_space_group_crystal_system       triclinic
_cell_length_a                    9.942487
_cell_length_b                    10.911423
_cell_length_c                    16.440045
_cell_angle_alpha                 90.249097
_cell_angle_beta                  88.223812
_cell_angle_gamma                 92.981382
_cell_volume                      1780.24944099

loop_
_atom_site_label
_atom_site_type_symbol
_atom_type_description
_atom_site_fract_x
_atom_site_fract_y
_atom_site_fract_z
_atom_type_partial_charge
C1    C     C_R   0.503377 0.740710 0.497749 0.826123
C2    C     C_R   0.348555 0.478914 0.786675 -0.022502
C3    C     C_R   0.407265 0.422427 0.135223 -0.112635
C4    C     C_R   0.413076 0.476188 0.211653 -0.149027
C5    C     C_R   0.617169 0.372381 0.236510 -0.197252
C6    C     C_R   0.611457 0.315402 0.160224 0.017793
C7    C     C_R   0.505812 0.341981 0.108559 0.112492
C8    C     C_2   0.406111 0.299293 0.974959 -0.159689
C9    C     C_2   0.514254 0.308294 0.022037 -0.247052
C10   C     C_R   0.518290 0.452279 0.262400 -0.083086
C11   C     C_3   0.418160 0.914969 0.428331 -0.475211
C12   C     C_R   0.483696 0.497872 0.654348 0.810867
C13   C     C_3   0.392427 0.054702 0.433371 -0.087959
C14   C     C_3   0.443525 0.920124 0.582408 -0.226280
C15   C     C_3   0.648449 0.937415 0.478115 -0.144621
C16   C     C_3   0.507047 0.875504 0.499183 -0.024878
C17   C     C_3   0.489408 0.116698 0.500986 -0.205775
C18   C     C_3   0.462319 0.063641 0.591956 -0.143074
C19   C     C_3   0.633804 0.076295 0.473832 -0.396749
C20   C     C_3   0.923876 0.624418 0.524390 -0.131322
C21   C     C_3   0.086163 0.627969 0.519452 -0.252304
C22   C     C_3   0.914863 0.411707 0.560819 -0.067622
C23   C     C_R   0.496194 0.256678 0.500404 0.815816
C24   C     C_3   0.918069 0.474538 0.419857 -0.376019
C25   C     C_3   0.071781 0.430802 0.569739 -0.116819
C26   C     C_3   0.078260 0.468847 0.418164 0.025088
C27   C     C_R   0.515537 0.493754 0.346782 0.894161
C28   C     C_R   0.472749 0.466745 0.742420 -0.205742
C29   C     C_R   0.572754 0.396884 0.777096 -0.010212
C30   C     C_R   0.540383 0.324464 0.845075 -0.033964
C31   C     C_R   0.419871 0.337803 0.889224 0.105511
C32   C     C_R   0.324095 0.413715 0.859438 -0.096870
N1    N     N_3   0.861190 0.500250 0.501720 -0.106275
N2    N     N_3   0.138550 0.503270 0.501080 -0.081202
O1    O     O_R   0.383960 0.685090 0.500020 -0.613188
O2    O     O_R   0.616040 0.685320 0.499960 -0.662627
O3    O     O_R   0.370240 0.499890 0.615830 -0.650678
O4    O     O_R   0.602330 0.500120 0.615770 -0.663559
O5    O     O_R   0.383960 0.314680 0.500040 -0.536513
O6    O     O_R   0.616040 0.314910 0.499980 -0.635046
O7    O     O_R   0.397670 0.499880 0.384230 -0.518154
O8    O     O_R   0.629760 0.500110 0.384170 -0.640718
Zn1   Zn    Zn3+2 0.345040 0.499850 0.500040 1.018622
Zn2   Zn    Zn3+2 0.654960 0.500150 0.499960 0.909317
C33   C     C_2   0.716147 0.410122 0.751399 0.384031
H1    H     H_    0.757034 0.497967 0.729115 0.110698
O9    O     O_2   0.791190 0.326018 0.759047 -0.568419
C34   C     C_2   0.714584 0.227042 0.136083 0.406021
H2    H     H_    0.704538 0.172737 0.080998 0.093143
O10   O     O_2   0.811857 0.212787 0.177992 -0.561061
H3    H     H_    0.321480 0.858465 0.427279 0.212920
H4    H     H_    0.468253 0.890870 0.369210 0.208283
C35   C     C_2   0.424377 0.113247 0.349951 0.569905
H5    H     H_    0.481418 0.200317 0.344885 0.034029
O11   O     O_2   0.382532 0.065385 0.287640 -0.524312
C36   C     C_2   0.241894 0.058244 0.451251 0.600594
H6    H     H_    0.198853 0.022281 0.507452 0.036173
O12   O     O_2   0.163169 0.080584 0.398421 -0.498826
H7    H     H_    0.333871 0.896395 0.576937 0.109295
C37   C     C_2   0.337842 0.108129 0.637509 0.439364
H8    H     H_    0.239106 0.065363 0.628635 0.113415
O13   O     O_2   0.347160 0.184182 0.692224 -0.585201
C38   C     C_2   0.765127 0.908209 0.530446 0.394482
H9    H     H_    0.861515 0.891687 0.500992 0.078954
O14   O     O_2   0.758466 0.915313 0.604349 -0.552021
H10   H     H_    0.679781 0.906260 0.416013 0.121956
H11   H     H_    0.664906 0.110728 0.412110 0.188792
H12   H     H_    0.336426 0.537843 0.230500 0.179104
H13   H     H_    0.705189 0.117453 0.514933 0.219862
C39   C     C_2   0.476762 0.846441 0.656672 0.526096
H14   H     H_    0.559265 0.785426 0.655146 0.082739
O15   O     O_2   0.409537 0.854845 0.719693 -0.543668
C40   C     C_2   0.579187 0.106878 0.646489 0.646599
H15   H     H_    0.626080 0.197331 0.636829 0.015063
O16   O     O_2   0.607360 0.052833 0.708045 -0.466560
C41   C     C_2   0.870348 0.666443 0.606954 0.415363
H16   H     H_    0.763822 0.676165 0.616841 0.137168
O17   O     O_2   0.944209 0.690140 0.663503 -0.538279
H17   H     H_    0.891546 0.692315 0.479949 0.110280
H18   H     H_    0.121640 0.699162 0.475516 0.193667
H19   H     H_    0.132956 0.665497 0.575496 0.189217
H20   H     H_    0.868940 0.431247 0.620773 0.094264
H21   H     H_    0.083273 0.484374 0.627472 0.118185
H22   H     H_    0.865627 0.391721 0.394238 0.195060
H23   H     H_    0.695813 0.350288 0.277380 0.180157
H24   H     H_    0.886221 0.546896 0.377920 0.157166
C42   C     C_2   0.128408 0.553118 0.347739 0.370055
H25   H     H_    0.089890 0.534254 0.287538 0.044084
O18   O     O_2   0.208948 0.640331 0.355097 -0.565944
C43   C     C_2   0.115076 0.343237 0.388472 0.528082
H26   H     H_    0.038631 0.276828 0.368173 0.148575
O19   O     O_2   0.231671 0.318757 0.375959 -0.533491
C44   C     C_2   0.873832 0.279563 0.547426 0.496648
H27   H     H_    0.838907 0.225324 0.599549 0.078597
O20   O     O_2   0.897953 0.227620 0.483349 -0.604134
C45   C     C_2   0.141852 0.320305 0.592695 0.476717
H28   H     H_    0.187084 0.318032 0.651470 0.120721
O21   O     O_2   0.141643 0.231104 0.548796 -0.588218
H29   H     H_    0.614974 0.317057 0.994901 0.146006
H30   H     H_    0.233189 0.427545 0.895737 0.173481
H31   H     H_    0.328605 0.448787 0.095788 0.141087
C46   C     C_2   0.247361 0.565941 0.761589 0.447475
H32   H     H_    0.273611 0.636281 0.716717 0.110493
O22   O     O_2   0.133258 0.561056 0.791567 -0.525169
H33   H     H_    0.305703 0.293376 0.003174 0.169290
H34   H     H_    0.615279 0.265918 0.867888 0.180777

loop_
_geom_bond_atom_site_label_1
_geom_bond_atom_site_label_2
_ccdc_geom_bond_type
C10   C27   S    
C42   H25   S    
C38   O14   D    
C44   H27   S    
C40   O16   D    
C40   H15   S    
C14   C18   S    
C8    H33   S    
C35   H5    S    
C15   C19   S    
C14   H7    S    
C17   C23   S    
C6    C34   S    
C12   C28   S    
C22   H20   S    
C37   O13   D    
C28   C29   A    
C41   O17   D    
C3    C7    A    
C5    C6    A    
C2    C46   S    
C23   O6    A    
C36   H6    S    
C20   C41   S    
C2    C32   A    
C33   O9    D    
C12   O3    A    
C11   H4    S    
C19   H13   S    
C26   N2    S    
C26   C42   S    
N1    Zn2   S    
C22   C25   S    
C45   O21   D    
C19   H11   S    
C39   H14   S    
O1    Zn1   S    
O7    Zn1   S    
C25   N2    S    
C13   C36   S    
C5    H23   S    
C3    H31   S    
C34   O10   D    
C9    H29   S    
C30   H34   S    
C14   C39   S    
O8    Zn2   S    
C13   C35   S    
C35   O11   D    
C41   H16   S    
C4    H12   S    
C8    C9    D    
O5    Zn1   S    
C21   N2    S    
C33   H1    S    
C15   H10   S    
C32   H30   S    
C29   C33   S    
C37   H8    S    
O3    Zn1   S    
O4    Zn2   S    
C29   C30   A    
C11   C16   S    
C27   O7    A    
C43   O19   D    
C31   C32   A    
C45   H28   S    
C17   C18   S    
C1    C16   S    
C46   O22   D    
C20   N1    S    
C18   C37   S    
C34   H2    S    
C21   H19   S    
C18   C40   S    
C42   O18   D    
C22   C44   S    
C14   C16   S    
O2    Zn2   S    
C4    C10   A    
C3    C4    A    
C1    O1    A    
C7    C9    S    
C22   N1    S    
C20   H17   S    
C8    C31   S    
N2    Zn1   S    
C24   C26   S    
C39   O15   D    
C6    C7    A    
C26   C43   S    
C24   N1    S    
C13   C17   S    
C24   H22   S    
C5    C10   A    
C11   C13   S    
C27   O8    A    
C43   H26   S    
C30   C31   A    
C23   O5    A    
C21   H18   S    
C17   C19   S    
C36   O12   D    
C12   O4    A    
C46   H32   S    
C11   H3    S    
C38   H9    S    
O6    Zn2   S    
C20   C21   S    
C25   C45   S    
C44   O20   D    
C25   H21   S    
C15   C38   S    
C2    C28   A    
C24   H24   S    
C15   C16   S    
C1    O2    A    
