data_mof_unit_9077.cif
_audit_creation_date              2012-12-10T20:14:18-0500
_audit_creation_method            fapswitch 2.2
_symmetry_space_group_name_H-M    P1
_symmetry_Int_Tables_number       1
_space_group_crystal_system       triclinic
_cell_length_a                    19.44218
_cell_length_b                    18.537632
_cell_length_c                    10.564353
_cell_angle_alpha                 89.86669
_cell_angle_beta                  90.171122
_cell_angle_gamma                 89.783147
_cell_volume                      3807.46470349

loop_
_atom_site_label
_atom_site_type_symbol
_atom_type_description
_atom_site_fract_x
_atom_site_fract_y
_atom_site_fract_z
_atom_type_partial_charge
C1    C     C_R   0.365540 0.500156 0.508396 0.867458
C2    C     C_R   0.634487 0.499899 0.491875 0.867709
C3    C     C_R   0.967586 0.500692 0.384163 -0.164745
C4    C     C_R   0.032459 0.499225 0.621224 -0.164484
C5    C     C_R   0.038761 0.500236 0.391106 -0.182480
C6    C     C_R   0.961266 0.499646 0.614280 -0.182597
C7    C     C_R   0.070866 0.499498 0.509574 0.152586
C8    C     C_R   0.929172 0.500435 0.495795 0.152758
C9    C     C_R   0.528617 0.725637 0.599445 0.377164
C10   C     C_R   0.469394 0.274430 0.402430 0.372908
C11   C     C_R   0.471505 0.725849 0.400101 0.398509
C12   C     C_R   0.530744 0.274076 0.597628 0.387335
C13   C     C_R   0.524567 0.802488 0.604982 0.187569
C14   C     C_R   0.467663 0.197401 0.401951 0.192911
C15   C     C_R   0.475397 0.802685 0.394022 0.182806
C16   C     C_R   0.531884 0.196961 0.599024 0.192621
C17   C     C_R   0.499836 0.841294 0.499426 0.090662
C18   C     C_R   0.499708 0.158470 0.500621 0.090693
C19   C     C_R   0.437421 0.961617 0.490873 0.276151
C20   C     C_R   0.562281 0.037883 0.500756 0.289604
C21   C     C_R   0.562130 0.961051 0.507818 0.280374
C22   C     C_R   0.437253 0.038355 0.500232 0.292022
C23   C     C_R   0.499747 0.076831 0.500672 0.106399
C24   C     C_R   0.499779 0.922745 0.499194 0.110667
C25   C     C_R   0.501166 0.500188 0.257793 1.019509
C26   C     C_R   0.498449 0.499878 0.742183 1.019146
C27   C     C_3   0.512108 0.567409 0.039179 0.304005
C28   C     C_3   0.486917 0.433137 0.960877 0.296339
C29   C     C_3   0.560241 0.522297 0.956065 0.253997
C30   C     C_3   0.438799 0.478246 0.043942 0.253981
C31   C     C_3   0.449827 0.544699 0.959784 0.250412
C32   C     C_3   0.549214 0.455830 0.040082 0.245031
C33   C     C_3   0.497969 0.499596 0.875853 -0.251572
C34   C     C_3   0.501117 0.500825 0.124125 -0.255187
C35   C     C_R   0.747750 0.433710 0.474461 -0.066025
C36   C     C_R   0.252299 0.566581 0.525551 -0.068233
C37   C     C_R   0.253273 0.434643 0.539667 -0.061667
C38   C     C_R   0.746976 0.565794 0.465240 -0.063226
C39   C     C_R   0.819807 0.434324 0.484495 -0.045756
C40   C     C_R   0.180186 0.565811 0.517811 -0.046358
C41   C     C_R   0.181041 0.434541 0.533052 -0.046110
C42   C     C_R   0.819167 0.565734 0.473169 -0.046507
C43   C     C_R   0.854588 0.500307 0.488396 -0.033310
C44   C     C_R   0.145454 0.499782 0.516707 -0.033351
C45   C     C_R   0.710462 0.499794 0.476776 -0.154158
C46   C     C_R   0.289647 0.500485 0.524781 -0.152632
H1    H     H_    0.942329 0.501171 0.292614 0.122755
H2    H     H_    0.057726 0.498785 0.712763 0.122845
H3    H     H_    0.068853 0.500510 0.304969 0.124759
H4    H     H_    0.931164 0.499368 0.700400 0.124517
N1    N     N_R   0.500000 0.689440 0.500000 -0.135398
N2    N     N_R   0.500000 0.310560 0.500000 -0.131723
O1    O     O_R   0.398180 0.560840 0.499970 -0.596170
O2    O     O_R   0.601820 0.439160 0.500030 -0.590707
O3    O     O_R   0.601820 0.560840 0.500030 -0.589867
O4    O     O_R   0.398180 0.439160 0.499970 -0.585824
O5    O     O_R   0.499980 0.560800 0.313940 -0.547467
O6    O     O_R   0.500020 0.439200 0.686060 -0.551503
O7    O     O_R   0.500020 0.560800 0.686060 -0.542130
O8    O     O_R   0.499980 0.439200 0.313940 -0.548091
Zn1   Zn    Zn3+2 0.500000 0.581210 0.500000 1.084031
Zn2   Zn    Zn3+2 0.500000 0.418790 0.500000 1.084250
O9    O     O_3   0.398429 0.590977 0.915136 -0.783119
H5    H     H_    0.377217 0.612097 0.991841 0.354779
O10   O     O_3   0.600639 0.409494 0.084199 -0.787937
H6    H     H_    0.621953 0.388775 0.007250 0.353715
O11   O     O_3   0.525357 0.637176 0.082531 -0.725759
H7    H     H_    0.529716 0.667179 0.005213 0.353562
O12   O     O_3   0.473459 0.363409 0.917905 -0.749601
H8    H     H_    0.470392 0.333255 0.995240 0.347390
O13   O     O_3   0.623105 0.545032 0.906338 -0.730763
H9    H     H_    0.652056 0.556588 0.980910 0.338293
O14   O     O_3   0.375957 0.455472 0.093704 -0.729149
H10   H     H_    0.346999 0.443901 0.019150 0.338911
C47   C     C_R   0.714103 0.364617 0.441141 0.145316
C48   C     C_R   0.711753 0.307108 0.527572 -0.082468
C49   C     C_R   0.687626 0.239813 0.488658 -0.127399
C50   C     C_R   0.663518 0.230284 0.364948 -0.148339
C51   C     C_R   0.664670 0.287673 0.279346 -0.117287
C52   C     C_R   0.690658 0.354426 0.316848 -0.109548
H11   H     H_    0.730293 0.313922 0.623529 0.128993
H12   H     H_    0.687858 0.195134 0.554520 0.189929
H13   H     H_    0.644386 0.178461 0.334585 0.186169
H14   H     H_    0.646752 0.279911 0.183296 0.168279
H15   H     H_    0.694361 0.397915 0.248810 0.163337
C53   C     C_R   0.286138 0.636345 0.553384 0.154721
C54   C     C_R   0.309873 0.649705 0.676553 -0.107347
C55   C     C_R   0.336563 0.717141 0.708164 -0.123360
C56   C     C_R   0.338258 0.772049 0.617617 -0.142016
C57   C     C_R   0.314116 0.759261 0.494824 -0.128081
C58   C     C_R   0.288881 0.691336 0.462138 -0.104359
H16   H     H_    0.306019 0.608159 0.748185 0.164054
H17   H     H_    0.354859 0.727231 0.803314 0.165912
H18   H     H_    0.358169 0.824410 0.643152 0.193053
H19   H     H_    0.315158 0.801715 0.424531 0.193795
H20   H     H_    0.270242 0.681974 0.366922 0.125080
C59   C     C_R   0.288737 0.366449 0.575203 0.156792
C60   C     C_R   0.288707 0.307417 0.492348 -0.081535
C61   C     C_R   0.315770 0.241215 0.531548 -0.135297
C62   C     C_R   0.344805 0.233971 0.652180 -0.143004
C63   C     C_R   0.346257 0.292926 0.734189 -0.107230
C64   C     C_R   0.318103 0.359016 0.696252 -0.127702
H21   H     H_    0.266373 0.312335 0.398691 0.133433
H22   H     H_    0.314003 0.195693 0.468007 0.197997
H23   H     H_    0.366079 0.182746 0.682433 0.182976
H24   H     H_    0.368161 0.286989 0.827856 0.176761
H25   H     H_    0.318126 0.403993 0.761550 0.116549
C65   C     C_R   0.711745 0.634651 0.432932 0.164585
C66   C     C_R   0.682504 0.644253 0.312218 -0.123254
C67   C     C_R   0.654042 0.710878 0.278082 -0.114772
C68   C     C_R   0.655276 0.768287 0.363491 -0.138996
C69   C     C_R   0.684016 0.758808 0.483906 -0.132749
C70   C     C_R   0.711427 0.692060 0.519194 -0.101129
H26   H     H_    0.682599 0.600483 0.244444 0.115304
H27   H     H_    0.631829 0.718321 0.184927 0.172173
H28   H     H_    0.633812 0.819991 0.336308 0.185874
H29   H     H_    0.685090 0.802913 0.550508 0.198083
H30   H     H_    0.733526 0.685401 0.612722 0.130188
C71   C     C_R   0.859039 0.365501 0.482333 0.136026
C72   C     C_R   0.879211 0.332360 0.596092 -0.154953
C73   C     C_R   0.909179 0.263723 0.594441 -0.116928
C74   C     C_R   0.919368 0.228169 0.479382 -0.105231
C75   C     C_R   0.901218 0.261885 0.365607 -0.133904
C76   C     C_R   0.871133 0.330434 0.366869 -0.137156
H31   H     H_    0.869906 0.358786 0.685775 0.119349
H32   H     H_    0.923860 0.237760 0.682368 0.121526
H33   H     H_    0.941820 0.174677 0.478268 0.110789
H34   H     H_    0.909666 0.234516 0.276596 0.121291
H35   H     H_    0.855621 0.355455 0.278486 0.116098
C77   C     C_R   0.140984 0.634657 0.519385 0.138312
C78   C     C_R   0.129597 0.670382 0.634463 -0.137830
C79   C     C_R   0.099891 0.739111 0.635106 -0.132707
C80   C     C_R   0.081414 0.772352 0.521088 -0.102780
C81   C     C_R   0.090830 0.736129 0.406446 -0.116633
C82   C     C_R   0.120462 0.667323 0.405413 -0.152939
H36   H     H_    0.145444 0.645757 0.722989 0.115772
H37   H     H_    0.092037 0.767002 0.723802 0.121230
H38   H     H_    0.059362 0.826025 0.521711 0.110443
H39   H     H_    0.075886 0.761734 0.318344 0.121120
H40   H     H_    0.129279 0.640413 0.316008 0.118095
C83   C     C_R   0.142587 0.366125 0.548959 0.131644
C84   C     C_R   0.118028 0.328978 0.442603 -0.150519
C85   C     C_R   0.088199 0.260993 0.456908 -0.114721
C86   C     C_R   0.082158 0.230234 0.577342 -0.104478
C87   C     C_R   0.104824 0.267919 0.683868 -0.131998
C88   C     C_R   0.135059 0.335704 0.669899 -0.141895
H41   H     H_    0.123780 0.351783 0.348773 0.121291
H42   H     H_    0.070240 0.231889 0.374581 0.121790
H43   H     H_    0.059582 0.177328 0.588241 0.111061
H44   H     H_    0.099736 0.244214 0.777064 0.122654
H45   H     H_    0.153949 0.363849 0.752659 0.117736
C89   C     C_R   0.857752 0.634244 0.459498 0.133070
C90   C     C_R   0.865037 0.666055 0.339599 -0.141643
C91   C     C_R   0.895006 0.734099 0.327857 -0.131082
C92   C     C_R   0.917717 0.770639 0.435566 -0.102655
C93   C     C_R   0.912109 0.738431 0.554908 -0.115454
C94   C     C_R   0.882445 0.670220 0.567002 -0.149721
H46   H     H_    0.846055 0.638828 0.255964 0.117151
H47   H     H_    0.899811 0.758910 0.235494 0.122448
H48   H     H_    0.939977 0.823793 0.426405 0.110769
H49   H     H_    0.930185 0.766631 0.638120 0.121451
H50   H     H_    0.876871 0.646358 0.660059 0.120372
O15   O     O_3   0.562270 0.685948 0.691199 -0.699641
H51   H     H_    0.597715 0.716511 0.731592 0.325265
O16   O     O_3   0.440022 0.314483 0.306492 -0.699428
H52   H     H_    0.445172 0.287724 0.226067 0.325214
O17   O     O_3   0.438063 0.686349 0.308512 -0.686505
H53   H     H_    0.403552 0.717397 0.265730 0.320782
O18   O     O_3   0.561068 0.313964 0.692172 -0.703097
H54   H     H_    0.558430 0.286705 0.772602 0.348726
O19   O     O_3   0.543486 0.840683 0.711549 -0.734440
H55   H     H_    0.538325 0.809134 0.786663 0.338915
O20   O     O_3   0.435156 0.158977 0.307373 -0.725892
H56   H     H_    0.396739 0.188322 0.273073 0.342174
O21   O     O_3   0.456679 0.841022 0.287035 -0.734606
H57   H     H_    0.462925 0.809700 0.212106 0.345463
O22   O     O_3   0.563586 0.157942 0.694425 -0.724140
H58   H     H_    0.602827 0.185993 0.727741 0.336857
O23   O     O_3   0.377349 0.923368 0.474758 -0.779272
H59   H     H_    0.343668 0.954090 0.428997 0.355642
O24   O     O_3   0.622756 0.076163 0.491943 -0.779437
H60   H     H_    0.657836 0.045789 0.449789 0.335944
O25   O     O_3   0.622267 0.922105 0.521332 -0.778800
H61   H     H_    0.655938 0.951622 0.568745 0.355114
O26   O     O_3   0.376835 0.076969 0.511640 -0.778741
H62   H     H_    0.341890 0.046131 0.552763 0.336635

loop_
_geom_bond_atom_site_label_1
_geom_bond_atom_site_label_2
_ccdc_geom_bond_type
O6    Zn2   S    
O19   H55   S    
O16   H52   S    
C27   C29   S    
C75   C76   A    
O14   H10   S    
C14   C18   A    
C13   O19   S    
O15   H51   S    
N1    Zn1   S    
C8    C43   S    
C47   C48   A    
C10   N2    A    
C52   H15   S    
C37   C59   S    
C59   C60   A    
O26   H62   S    
C57   H19   S    
C71   C76   A    
C72   C73   A    
C35   C47   S    
C62   H23   S    
C63   C64   A    
C37   C41   A    
C93   C94   A    
C1    O4    A    
C38   C42   A    
C14   O20   S    
C53   C58   A    
C51   H14   S    
C1    C46   S    
C60   H21   S    
C29   C33   S    
C56   H18   S    
C65   C66   A    
O8    Zn2   S    
O18   H54   S    
C90   H46   S    
C9    O15   S    
C9    C13   A    
C67   C68   A    
C38   C45   A    
C1    O1    A    
C58   H20   S    
C55   H17   S    
C11   C15   A    
C50   H13   S    
C12   C16   A    
C79   C80   A    
C9    N1    A    
C31   C33   S    
C36   C46   A    
C68   H28   S    
C25   O8    A    
C42   C89   S    
C47   C52   A    
C59   C64   A    
C57   C58   A    
C25   C34   S    
C55   C56   A    
C61   H22   S    
C80   H38   S    
C2    C45   S    
O20   H56   S    
C54   H16   S    
C11   O17   S    
C5    H3    S    
C82   H40   S    
C25   O5    A    
C4    C7    A    
C69   C70   A    
C12   N2    A    
C87   C88   A    
C27   C34   S    
C85   H42   S    
O7    Zn1   S    
C17   C24   S    
C84   C85   A    
C30   C34   S    
C27   C31   S    
C18   C23   S    
C31   O9    S    
C36   C40   A    
C19   C22   A    
C11   N1    A    
C48   C49   A    
C4    C6    A    
C3    C8    A    
C10   C14   A    
C81   H39   S    
C5    C7    A    
C30   O14   S    
C74   H33   S    
C39   C43   A    
O2    Zn2   S    
C36   C53   S    
C79   H37   S    
C49   C50   A    
O9    H5    S    
C73   H32   S    
C88   H45   S    
C32   C34   S    
C65   C70   A    
O24   H60   S    
C35   C39   A    
O25   H61   S    
C41   C83   S    
C86   H43   S    
C26   C33   S    
C61   C62   A    
C20   C23   A    
C28   C32   S    
C30   C31   S    
C28   O12   S    
C73   C74   A    
C64   H25   S    
C7    C44   S    
C6    H4    S    
C26   O6    A    
C91   C92   A    
C12   O18   S    
C66   H26   S    
O22   H58   S    
C67   H27   S    
C83   C88   A    
O11   H7    S    
C77   C82   A    
C93   H49   S    
C78   H36   S    
C83   C84   A    
C2    O2    A    
C80   C81   A    
C41   C44   A    
O4    Zn2   S    
C51   C52   A    
C42   C43   A    
O1    Zn1   S    
C78   C79   A    
C35   C45   A    
C19   O23   S    
O17   H53   S    
C16   O22   S    
C4    H2    S    
C63   H24   S    
C21   O25   S    
C40   C77   S    
C89   C94   A    
C68   C69   A    
C92   H48   S    
C53   C54   A    
C84   H41   S    
C87   H44   S    
C86   C87   A    
C3    C5    A    
C48   H11   S    
C28   C33   S    
C6    C8    A    
C71   C72   A    
O5    Zn1   S    
C81   C82   A    
C13   C17   A    
O23   H59   S    
C29   C32   S    
C15   O21   S    
C2    O3    A    
C22   O26   S    
C28   C30   S    
C77   C78   A    
C56   C57   A    
C91   H47   S    
O21   H57   S    
N2    Zn2   S    
C66   C67   A    
C50   C51   A    
C75   H34   S    
C69   H29   S    
C49   H12   S    
C10   O16   S    
C39   C71   S    
O3    Zn1   S    
C3    H1    S    
C62   C63   A    
C72   H31   S    
C76   H35   S    
C19   C24   A    
O10   H6    S    
C38   C65   S    
O12   H8    S    
C27   O11   S    
C70   H30   S    
C40   C44   A    
O13   H9    S    
C20   C21   A    
C54   C55   A    
C16   C18   A    
C60   C61   A    
C21   C24   A    
C92   C93   A    
C74   C75   A    
C22   C23   A    
C20   O24   S    
C26   O7    A    
C89   C90   A    
C29   O13   S    
C37   C46   A    
C15   C17   A    
C94   H50   S    
C85   C86   A    
C32   O10   S    
C90   C91   A    
