data_mof_unit_65542.cif
_audit_creation_date              2012-12-10T18:19:07-0500
_audit_creation_method            fapswitch 2.2
_symmetry_space_group_name_H-M    P1
_symmetry_Int_Tables_number       1
_space_group_crystal_system       triclinic
_cell_length_a                    18.657795
_cell_length_b                    18.595673
_cell_length_c                    18.480252
_cell_angle_alpha                 108.860055
_cell_angle_beta                  109.020867
_cell_angle_gamma                 109.527476
_cell_volume                      4995.96509553

loop_
_atom_site_label
_atom_site_type_symbol
_atom_type_description
_atom_site_fract_x
_atom_site_fract_y
_atom_site_fract_z
_atom_type_partial_charge
C1    C     C_R   0.622583 0.501532 0.621062 0.872984
C2    C     C_R   0.375575 0.496507 0.379244 0.851520
C3    C     C_3   0.302760 0.221817 0.455641 -0.356055
C4    C     C_3   0.678039 0.772190 0.519302 -0.376017
C5    C     C_3   0.312974 0.313035 0.504298 0.012304
C6    C     C_3   0.685904 0.688036 0.495654 0.016949
C7    C     C_3   0.186208 0.193888 0.500205 0.132216
C8    C     C_3   0.813230 0.809550 0.502732 0.136310
C9    C     C_3   0.148525 0.237705 0.446632 0.422077
C10   C     C_3   0.851255 0.782889 0.575247 0.442651
C11   C     C_3   0.233867 0.153853 0.460500 -0.454560
C12   C     C_3   0.749601 0.841541 0.517820 -0.437047
C13   C     C_3   0.716712 0.570663 0.781202 -0.413527
C14   C     C_3   0.238519 0.400162 0.239326 -0.470575
C15   C     C_3   0.795692 0.579294 0.853954 -0.139748
C16   C     C_3   0.167174 0.397794 0.163608 -0.105341
C17   C     C_3   0.654582 0.411162 0.682448 -0.419002
C18   C     C_3   0.350618 0.541357 0.268680 -0.428363
C19   C     C_3   0.771306 0.522045 0.675679 -0.425894
C20   C     C_3   0.262784 0.542138 0.348940 -0.341326
C21   C     C_3   0.690634 0.501862 0.689023 0.081904
C22   C     C_3   0.307491 0.495319 0.310647 0.088702
C23   C     C_R   0.382041 0.379354 0.503621 0.841298
C24   C     C_R   0.616641 0.620696 0.495217 0.838765
C25   C     C_3   0.810682 0.500351 0.809461 -0.003413
C26   C     C_3   0.189392 0.496902 0.188485 0.027155
C27   C     C_3   0.722659 0.410015 0.755990 0.043999
C28   C     C_3   0.284546 0.551280 0.202456 0.020737
C29   C     C_3   0.839266 0.514083 0.742053 -0.362209
C30   C     C_3   0.191056 0.540107 0.276512 -0.428918
C31   C     C_3   0.005537 0.312795 0.812818 0.036197
C32   C     C_3   0.006819 0.688905 0.197041 -0.011341
C33   C     C_R   0.997585 0.119115 0.620807 0.849281
C34   C     C_R   0.999648 0.878242 0.379028 0.876682
C35   C     C_R   0.120218 0.123742 0.501254 0.849078
C36   C     C_R   0.879632 0.878667 0.501161 0.845111
C37   C     C_R   0.004247 0.620747 0.125756 0.893630
C38   C     C_R   0.004548 0.379265 0.882497 0.911271
C39   C     C_R   0.878963 0.498757 0.876867 0.926708
C40   C     C_R   0.121349 0.498985 0.120874 0.886568
C41   C     C_3   0.928701 0.214487 0.647286 0.008416
C42   C     C_3   0.098797 0.837410 0.334331 -0.011982
C43   C     C_3   0.975819 0.155439 0.750081 -0.428262
C44   C     C_3   0.947325 0.793888 0.219683 -0.379658
C45   C     C_3   0.099631 0.333567 0.825508 0.013867
C46   C     C_3   0.968619 0.652721 0.249970 0.032790
C47   C     C_3   0.967654 0.224769 0.814758 -0.436623
C48   C     C_3   0.946841 0.719720 0.151916 -0.448692
C49   C     C_3   0.944628 0.298384 0.721140 -0.191004
C50   C     C_3   0.100398 0.771019 0.259142 -0.146555
C51   C     C_3   0.996652 0.187110 0.687863 0.114865
C52   C     C_3   0.002295 0.810793 0.312918 0.085883
C53   C     C_3   0.089365 0.268251 0.741199 -0.491778
C54   C     C_3   0.962977 0.724554 0.315863 -0.475323
C55   C     C_3   0.330097 0.336109 0.599800 -0.145132
C56   C     C_3   0.686207 0.654991 0.406212 -0.143248
C57   C     C_3   0.254684 0.265219 0.596812 -0.492996
C58   C     C_3   0.759691 0.728537 0.409939 -0.503793
C59   C     C_3   0.227278 0.311376 0.454716 -0.417000
C60   C     C_3   0.772827 0.709988 0.568182 -0.421202
H1    H     H_    0.130793 0.319135 0.877272 0.219900
H2    H     H_    0.900801 0.598005 0.202970 0.187097
H3    H     H_    0.282547 0.202909 0.385583 0.186830
H4    H     H_    0.685110 0.799017 0.586043 0.190382
H5    H     H_    0.365567 0.222307 0.483683 0.215637
H6    H     H_    0.612887 0.758093 0.473578 0.207821
H7    H     H_    0.266094 0.129549 0.501281 0.226219
H8    H     H_    0.718249 0.854118 0.464250 0.221487
H9    H     H_    0.187273 0.097545 0.393984 0.169372
H10   H     H_    0.784552 0.904556 0.579346 0.151847
H11   H     H_    0.218252 0.303188 0.389292 0.164415
H12   H     H_    0.771773 0.729549 0.631444 0.184162
H13   H     H_    0.658602 0.549622 0.790764 0.214039
H14   H     H_    0.271037 0.366030 0.214004 0.211011
H15   H     H_    0.729123 0.634471 0.783907 0.229107
H16   H     H_    0.211185 0.364740 0.270539 0.188637
H17   H     H_    0.141007 0.249959 0.759796 0.183510
H18   H     H_    0.893596 0.702753 0.298918 0.153978
H19   H     H_    0.594582 0.394888 0.688158 0.176931
H20   H     H_    0.375371 0.503004 0.234418 0.196001
H21   H     H_    0.696268 0.401609 0.800302 0.220507
H22   H     H_    0.285129 0.524332 0.139790 0.197850
H23   H     H_    0.752838 0.475960 0.608216 0.185064
H24   H     H_    0.311551 0.611371 0.399019 0.182284
H25   H     H_    0.799796 0.588992 0.683891 0.200985
H26   H     H_    0.234146 0.509892 0.381598 0.193197
H27   H     H_    0.903871 0.573120 0.774617 0.211877
H28   H     H_    0.127372 0.505751 0.272331 0.214155
H29   H     H_    0.846189 0.458715 0.706108 0.220365
H30   H     H_    0.202343 0.607216 0.294243 0.198210
H31   H     H_    0.635400 0.360917 0.616514 0.206347
H32   H     H_    0.408901 0.605440 0.321380 0.187380
H33   H     H_    0.881182 0.288326 0.718134 0.116829
H34   H     H_    0.114797 0.801798 0.219163 0.165242
H35   H     H_    0.099851 0.298642 0.699970 0.211203
H36   H     H_    0.997043 0.735596 0.383601 0.193816
H37   H     H_    0.938427 0.227204 0.595555 0.212047
H38   H     H_    0.129956 0.835661 0.395819 0.229920
H39   H     H_    0.029024 0.145827 0.787072 0.191462
H40   H     H_    0.878992 0.775419 0.205193 0.205084
H41   H     H_    0.914826 0.091559 0.713067 0.175189
H42   H     H_    0.973592 0.853877 0.214159 0.193960
H43   H     H_    0.898070 0.200332 0.797651 0.204734
H44   H     H_    0.968654 0.743372 0.110974 0.243655
H45   H     H_    0.002899 0.234466 0.881660 0.219064
H46   H     H_    0.879275 0.664450 0.108838 0.214373
H47   H     H_    0.329764 0.398565 0.629297 0.149106
H48   H     H_    0.701665 0.600794 0.397325 0.145830
H49   H     H_    0.279922 0.235062 0.634633 0.224789
H50   H     H_    0.732439 0.747070 0.360140 0.219681
H51   H     H_    0.224409 0.294994 0.630687 0.149708
H52   H     H_    0.801979 0.705129 0.391663 0.145894
H53   H     H_    0.233847 0.376603 0.489226 0.172603
H54   H     H_    0.777500 0.649188 0.554151 0.156225
O1    O     O_R   0.592570 0.552270 0.644860 -0.611099
O2    O     O_R   0.407430 0.447730 0.355140 -0.609121
O3    O     O_R   0.947720 0.540390 0.092600 -0.623768
O4    O     O_R   0.052280 0.459610 0.907400 -0.590723
O5    O     O_R   0.959660 0.552230 0.907350 -0.578926
O6    O     O_R   0.040340 0.447770 0.092650 -0.627419
O7    O     O_R   0.855120 0.447750 0.907440 -0.591075
O8    O     O_R   0.144880 0.552250 0.092560 -0.601254
O9    O     O_R   0.592650 0.447750 0.540350 -0.635378
O10   O     O_R   0.407350 0.552250 0.459650 -0.636803
O11   O     O_R   0.407370 0.459660 0.552260 -0.619565
O12   O     O_R   0.592630 0.540340 0.447740 -0.610655
O13   O     O_R   0.407450 0.355140 0.447760 -0.630651
O14   O     O_R   0.592550 0.644860 0.552240 -0.628124
O15   O     O_R   0.052270 0.092540 0.644860 -0.628225
O16   O     O_R   0.947730 0.907460 0.355140 -0.623023
O17   O     O_R   0.947710 0.092600 0.540380 -0.634504
O18   O     O_R   0.052290 0.907400 0.459620 -0.631551
O19   O     O_R   0.144880 0.092570 0.552230 -0.623638
O20   O     O_R   0.855120 0.907430 0.447770 -0.626888
O21   O     O_R   0.040310 0.092630 0.447750 -0.630771
O22   O     O_R   0.959690 0.907370 0.552250 -0.635479
O23   O     O_R   0.052260 0.644880 0.092510 -0.570418
O24   O     O_R   0.947740 0.355120 0.907490 -0.635354
Zn1   Zn    Zn3+2 0.499940 0.569790 0.569780 0.972431
Zn2   Zn    Zn3+2 0.500060 0.430210 0.430220 0.981328
Zn3   Zn    Zn3+2 0.069820 0.999960 0.569760 0.941553
Zn4   Zn    Zn3+2 0.930180 0.000040 0.430240 0.942822
Zn5   Zn    Zn3+2 0.069800 0.569760 0.999940 1.045589
Zn6   Zn    Zn3+2 0.930200 0.430240 0.000060 1.014954
C61   C     C_3   0.084951 0.173120 0.346887 -0.842416
H55   H     H_    0.023413 0.120874 0.332439 0.262854
H56   H     H_    0.065564 0.208839 0.313338 0.239643
H57   H     H_    0.115757 0.142850 0.314533 0.220091
C62   C     C_3   0.902554 0.860621 0.670288 -0.874736
H58   H     H_    0.960260 0.915819 0.682144 0.258034
H59   H     H_    0.860716 0.885668 0.687029 0.220385
H60   H     H_    0.926626 0.839013 0.718131 0.244596
C63   C     C_2   0.877394 0.667273 0.892970 0.912058
O25   O     O_2   0.941422 0.693550 0.961444 -0.647955
O26   O     O_R   0.880808 0.717300 0.850226 -0.827476
H61   H     H_    0.938756 0.772961 0.882673 0.346882
C64   C     C_2   0.078135 0.341950 0.152961 0.935696
O27   O     O_2   0.016290 0.286279 0.080181 -0.602588
O28   O     O_R   0.067115 0.352974 0.226492 -0.843277
H62   H     H_    0.005876 0.312060 0.210724 0.342116
C65   C     C_2   0.773719 0.580810 0.927317 0.832015
O29   O     O_2   0.762717 0.640343 0.965056 -0.620303
O30   O     O_R   0.763104 0.515013 0.950466 -0.808049
H63   H     H_    0.746362 0.523825 0.998337 0.341218
C66   C     C_2   0.166840 0.350632 0.078284 0.858323
O31   O     O_2   0.169332 0.382468 0.030255 -0.724120
O32   O     O_R   0.159379 0.267786 0.052960 -0.784273
H64   H     H_    0.157981 0.242147 0.994711 0.337737
C67   C     C_3   0.730845 0.327724 0.716277 -0.927750
H65   H     H_    0.666986 0.268489 0.685854 0.248059
H66   H     H_    0.748961 0.325239 0.664375 0.242961
H67   H     H_    0.778598 0.322642 0.765886 0.260959
C68   C     C_3   0.320594 0.650278 0.233306 -0.787034
H68   H     H_    0.387893 0.679477 0.243224 0.215150
H69   H     H_    0.284811 0.664688 0.184454 0.293936
H70   H     H_    0.324543 0.685559 0.296823 0.255897
C69   C     C_3   0.832245 0.142162 0.599891 -0.940225
H71   H     H_    0.819626 0.079371 0.551302 0.267981
H72   H     H_    0.811370 0.130017 0.646447 0.249091
H73   H     H_    0.789844 0.162857 0.564310 0.244151
C70   C     C_3   0.153396 0.930851 0.353755 -0.973149
H74   H     H_    0.219507 0.943363 0.364450 0.267676
H75   H     H_    0.122667 0.941966 0.299044 0.244068
H76   H     H_    0.161530 0.977968 0.414741 0.259093
C71   C     C_2   0.977973 0.377466 0.707992 0.863380
O33   O     O_2   0.974964 0.442008 0.748050 -0.652783
O34   O     O_R   0.012635 0.377943 0.651286 -0.841359
H77   H     H_    0.032650 0.434889 0.649519 0.345753
C72   C     C_2   0.174896 0.752847 0.292430 0.845319
O35   O     O_2   0.197580 0.720436 0.241700 -0.646313
O36   O     O_R   0.222130 0.778470 0.381058 -0.832870
H78   H     H_    0.271953 0.765265 0.394219 0.333681
C73   C     C_3   0.166788 0.427431 0.855649 -0.807013
H79   H     H_    0.190776 0.470729 0.925693 0.265592
H80   H     H_    0.224764 0.428015 0.850753 0.228707
H81   H     H_    0.141017 0.455304 0.815991 0.271592
C74   C     C_3   0.017762 0.614764 0.295934 -0.915142
H82   H     H_    0.978499 0.577806 0.318594 0.246180
H83   H     H_    0.028897 0.569246 0.250856 0.244674
H84   H     H_    0.081090 0.666910 0.354125 0.277553
C75   C     C_2   0.417031 0.349013 0.658918 0.883983
O37   O     O_2   0.473971 0.421730 0.719426 -0.639693
O38   O     O_R   0.430787 0.277498 0.646789 -0.828439
H85   H     H_    0.488373 0.293063 0.694578 0.336062
C76   C     C_2   0.599290 0.619472 0.327641 0.903075
O39   O     O_2   0.557232 0.541631 0.274412 -0.623920
O40   O     O_R   0.568150 0.675483 0.314695 -0.837039
H86   H     H_    0.511096 0.644094 0.258365 0.334952
C77   C     C_3   0.099720 0.279084 0.483642 -0.872626
H87   H     H_    0.143630 0.333546 0.551701 0.224211
H88   H     H_    0.073040 0.306999 0.443960 0.246328
H89   H     H_    0.044353 0.231009 0.482638 0.261375
C78   C     C_3   0.912289 0.745692 0.562071 -0.884692
H90   H     H_    0.878444 0.686573 0.497477 0.216095
H91   H     H_    0.972342 0.793201 0.569160 0.265248
H92   H     H_    0.933859 0.725709 0.612165 0.236197

loop_
_geom_bond_atom_site_label_1
_geom_bond_atom_site_label_2
_ccdc_geom_bond_type
O38   H85   S    
C1    C21   S    
C66   O31   D    
C20   H26   S    
C53   H35   S    
C75   O38   S    
C75   O37   D    
O10   Zn1   S    
C60   H54   S    
O30   H63   S    
O6    Zn6   S    
C30   H30   S    
C43   C51   S    
C35   O19   A    
C29   H29   S    
C65   O29   D    
C20   C30   S    
C70   H74   S    
O11   Zn1   S    
C7    C11   S    
C12   H8    S    
O12   Zn2   S    
C64   O27   D    
C46   H2    S    
C58   H52   S    
C14   H14   S    
C41   C69   S    
C19   C21   S    
O14   Zn1   S    
C43   H39   S    
C42   H38   S    
C10   C62   S    
C28   C68   S    
C71   O34   S    
O15   Zn3   S    
C19   H25   S    
C60   H12   S    
C55   C75   S    
C17   H19   S    
C77   H89   S    
O5    Zn5   S    
C72   O36   S    
C33   O17   A    
C8    C36   S    
C9    C61   S    
C74   H83   S    
C50   C72   S    
C56   H48   S    
C15   C63   S    
O2    Zn2   S    
C8    C58   S    
C2    O2    A    
O21   Zn4   S    
C48   H46   S    
C56   C76   S    
C13   H15   S    
C9    C77   S    
C69   H72   S    
C17   H31   S    
C2    C22   S    
C1    O9    A    
C4    C12   S    
C18   C22   S    
C27   C67   S    
C54   H36   S    
C73   H79   S    
C59   H53   S    
C23   O11   A    
C5    C55   S    
C44   C52   S    
C70   H75   S    
O23   Zn5   S    
C45   C53   S    
C66   O32   S    
C37   O23   A    
C24   O12   A    
C32   C48   S    
O7    Zn6   S    
C3    H5    S    
C32   C46   S    
O8    Zn5   S    
C31   C49   S    
C19   H23   S    
C36   O22   A    
C41   C49   S    
C26   C28   S    
C65   O30   S    
C11   H7    S    
C61   H55   S    
C76   O40   S    
C42   C70   S    
C25   C29   S    
C57   H49   S    
C47   H43   S    
C61   H56   S    
C28   H22   S    
O40   H86   S    
C17   C27   S    
C67   H65   S    
C6    C60   S    
C27   H21   S    
O3    Zn6   S    
C18   C28   S    
C4    C6    S    
O4    Zn5   S    
C62   H60   S    
C35   O21   A    
O32   H64   S    
C5    C59   S    
C50   H34   S    
C46   C74   S    
C73   H80   S    
C76   O39   D    
O9    Zn2   S    
C74   H82   S    
C20   H24   S    
C17   C21   S    
C33   C51   S    
O36   H78   S    
C55   H47   S    
C51   C53   S    
C45   C73   S    
C14   H16   S    
C64   O28   S    
C74   H84   S    
C53   H17   S    
C43   H41   S    
O22   Zn3   S    
O20   Zn4   S    
O28   H62   S    
C5    C23   S    
C13   C15   S    
C78   H90   S    
C16   C66   S    
C8    C12   S    
C69   H73   S    
C6    C24   S    
C46   C54   S    
C77   H87   S    
C38   O24   A    
C13   C21   S    
C32   C37   S    
O17   Zn4   S    
C32   C50   S    
C68   H69   S    
C42   C50   S    
C8    C10   S    
C40   O6    A    
C41   C51   S    
C13   H13   S    
C26   C30   S    
C3    H3    S    
C55   C57   S    
C67   H67   S    
C14   C16   S    
C63   O26   S    
O13   Zn2   S    
C20   C22   S    
C30   H28   S    
C19   C29   S    
C61   H57   S    
C23   O13   A    
C67   H66   S    
C70   H76   S    
C33   O15   A    
O18   Zn3   S    
C7    C9    S    
C12   H10   S    
C10   C60   S    
C77   H88   S    
C44   H42   S    
C16   C64   S    
C58   H50   S    
C7    C35   S    
C15   C65   S    
O1    Zn1   S    
C3    C5    S    
C16   C26   S    
C36   O20   A    
C11   H9    S    
C10   C78   S    
C78   H92   S    
C2    O10   A    
C25   C27   S    
C40   O8    A    
C4    H4    S    
C34   C52   S    
C39   O7    A    
C31   C38   S    
C49   H33   S    
C18   H32   S    
C14   C22   S    
C62   H59   S    
C78   H91   S    
O34   H77   S    
O24   Zn6   S    
C62   H58   S    
C6    C56   S    
C73   H81   S    
C4    H6    S    
C44   H40   S    
C26   C40   S    
C71   O33   D    
C57   H51   S    
C39   O5    A    
C45   H1    S    
C68   H70   S    
C37   O3    A    
C56   C58   S    
C52   C54   S    
C41   H37   S    
C72   O35   D    
O16   Zn4   S    
C29   H27   S    
C3    C11   S    
C34   O18   A    
C38   O4    A    
C49   C71   S    
C34   O16   A    
C15   C25   S    
C18   H20   S    
C69   H71   S    
C31   C45   S    
C42   C52   S    
O26   H61   S    
C24   O14   A    
C47   H45   S    
C31   C47   S    
O19   Zn3   S    
C1    O1    A    
C9    C59   S    
C63   O25   D    
C68   H68   S    
C43   C47   S    
C7    C57   S    
C25   C39   S    
C44   C48   S    
C59   H11   S    
C54   H18   S    
C48   H44   S    
