data_mof_unit_26250.cif
_audit_creation_date              2012-12-10T20:49:10-0500
_audit_creation_method            fapswitch 2.2
_symmetry_space_group_name_H-M    P1
_symmetry_Int_Tables_number       1
_space_group_crystal_system       triclinic
_cell_length_a                    9.008477
_cell_length_b                    8.111479
_cell_length_c                    10.55369
_cell_angle_alpha                 90.199947
_cell_angle_beta                  92.335249
_cell_angle_gamma                 89.897176
_cell_volume                      770.533797726

loop_
_atom_site_label
_atom_site_type_symbol
_atom_type_description
_atom_site_fract_x
_atom_site_fract_y
_atom_site_fract_z
_atom_type_partial_charge
C1    C     C_R   0.217876 0.500105 0.500186 0.905895
C2    C     C_3   0.638727 0.513328 0.056630 0.079429
C3    C     C_3   0.513930 0.500697 0.876611 -0.145926
C4    C     C_3   0.489676 0.498793 0.122689 -0.125143
C5    C     C_1   0.065126 0.500237 0.501957 -0.204116
C6    C     C_1   0.935091 0.500031 0.502686 -0.191703
C7    C     C_3   0.220844 0.465591 0.861705 -0.375298
C8    C     C_3   0.085575 0.491068 0.938968 -0.943928
C9    C     C_3   0.786665 0.543009 0.129298 -0.422398
C10   C     C_3   0.854028 0.384919 0.184642 -0.860224
C11   C     C_R   0.782197 0.499954 0.501904 0.924911
C12   C     C_R   0.485305 0.499623 0.257063 0.896364
C13   C     C_R   0.517872 0.500289 0.742448 0.881292
C14   C     C_3   0.416994 0.626430 0.032379 0.095231
C15   C     C_3   0.586535 0.373085 0.966129 0.097541
C16   C     C_3   0.563849 0.640630 0.966569 0.045963
C17   C     C_3   0.439422 0.358377 0.032275 0.069088
C18   C     C_3   0.364765 0.485849 0.942291 0.078000
H1    H     H_    0.094910 0.416320 0.026488 0.271687
H2    H     H_    0.769712 0.632475 0.207251 0.222929
H3    H     H_    0.282548 0.822171 0.992343 0.191732
H4    H     H_    0.243854 0.721882 0.126541 0.177358
H5    H     H_    0.695744 0.157485 0.000431 0.196218
H6    H     H_    0.772381 0.277683 0.890775 0.171812
H7    H     H_    0.658823 0.861176 0.008571 0.190378
H8    H     H_    0.728214 0.765619 0.882732 0.173090
H9    H     H_    0.342524 0.138133 0.990421 0.198358
H10   H     H_    0.278543 0.231361 0.119708 0.178268
H11   H     H_    0.075918 0.623488 0.963453 0.253356
H12   H     H_    0.984671 0.454323 0.882098 0.255309
H13   H     H_    0.217667 0.557277 0.783721 0.215274
H14   H     H_    0.218051 0.340086 0.819204 0.216986
H15   H     H_    0.775567 0.323387 0.247277 0.287369
H16   H     H_    0.883422 0.298212 0.108486 0.244726
H17   H     H_    0.957481 0.414940 0.240463 0.243308
H18   H     H_    0.863888 0.601386 0.065112 0.206286
N1    N     N_1   0.500000 0.073640 0.500000 -0.028522
N2    N     N_1   0.500000 0.926360 0.500000 -0.027962
N3    N     N_3   0.330297 0.767038 0.073546 -0.426941
N4    N     N_3   0.671851 0.232919 0.922306 -0.426788
N5    N     N_3   0.629431 0.794799 0.926384 -0.416544
N6    N     N_3   0.375070 0.203422 0.072385 -0.418679
O1    O     O_R   0.285350 0.636850 0.500000 -0.617732
O2    O     O_R   0.714650 0.363150 0.500000 -0.622056
O3    O     O_R   0.714650 0.636850 0.500000 -0.620156
O4    O     O_R   0.285350 0.363150 0.500000 -0.619375
O5    O     O_R   0.499970 0.636850 0.313950 -0.615353
O6    O     O_R   0.500030 0.363150 0.686050 -0.610045
O7    O     O_R   0.500030 0.636850 0.686050 -0.610046
O8    O     O_R   0.499970 0.363150 0.313950 -0.613387
Zn1   Zn    Zn3+2 0.500000 0.682780 0.500000 0.988401
Zn2   Zn    Zn3+2 0.500000 0.317220 0.500000 0.985762

loop_
_geom_bond_atom_site_label_1
_geom_bond_atom_site_label_2
_ccdc_geom_bond_type
C13   O6    A    
O8    Zn2   S    
N1    N2    T    
N2    Zn1   S    
C4    C12   S    
C2    C16   S    
C9    C10   S    
C14   C18   S    
C9    H2    S    
C2    C4    S    
C3    C13   S    
C7    C18   S    
C8    H12   S    
O2    Zn2   S    
C17   C18   S    
C7    C8    S    
C10   H16   S    
C2    C15   S    
H9    N6    S    
O1    Zn1   S    
C10   H17   S    
C12   O5    A    
C13   O7    A    
C8    H11   S    
H10   N6    S    
H6    N4    S    
C10   H15   S    
C14   C16   S    
C11   O2    A    
C4    C14   S    
C5    C6    T    
C1    O4    A    
C1    C5    S    
C15   N4    S    
C11   O3    A    
C8    H1    S    
C7    H13   S    
C4    C17   S    
H5    N4    S    
C9    H18   S    
O4    Zn2   S    
O6    Zn2   S    
C3    C15   S    
C3    C18   S    
H7    N5    S    
C6    C11   S    
C15   C17   S    
N1    Zn2   S    
O3    Zn1   S    
C17   N6    S    
O5    Zn1   S    
C7    H14   S    
C14   N3    S    
C2    C9    S    
H4    N3    S    
C16   N5    S    
C1    O1    A    
C3    C16   S    
H8    N5    S    
C12   O8    A    
O7    Zn1   S    
H3    N3    S    
