data_mof_unit_49069.cif
_audit_creation_date              2012-12-10T19:48:30-0500
_audit_creation_method            fapswitch 2.2
_symmetry_space_group_name_H-M    P1
_symmetry_Int_Tables_number       1
_space_group_crystal_system       triclinic
_cell_length_a                    10.845415
_cell_length_b                    10.658452
_cell_length_c                    9.447254
_cell_angle_alpha                 88.617706
_cell_angle_beta                  90.431106
_cell_angle_gamma                 88.542925
_cell_volume                      1091.35150652

loop_
_atom_site_label
_atom_site_type_symbol
_atom_type_description
_atom_site_fract_x
_atom_site_fract_y
_atom_site_fract_z
_atom_type_partial_charge
C1    C     C_R   0.502991 0.259748 0.501638 0.900919
C2    C     C_R   0.497009 0.740251 0.498362 0.900911
C3    C     C_R   0.871496 0.494518 0.500997 -0.078701
C4    C     C_R   0.128504 0.505483 0.499003 -0.078703
C5    C     C_R   0.941660 0.427796 0.605347 0.114966
C6    C     C_R   0.058340 0.572205 0.394652 0.114960
C7    C     C_3   0.515571 0.034504 0.637843 -0.326613
C8    C     C_3   0.484430 0.965496 0.362157 -0.326660
C9    C     C_3   0.604493 0.950612 0.551602 0.316696
C10   C     C_3   0.395508 0.049388 0.448399 0.316690
C11   C     C_3   0.496167 0.876737 0.494939 -0.131939
C12   C     C_3   0.503833 0.123262 0.505061 -0.131922
C13   C     C_3   0.407011 0.960672 0.577854 0.303841
C14   C     C_3   0.592990 0.039328 0.422146 0.303831
C15   C     C_3   0.532306 0.607548 0.047704 -0.045162
C16   C     C_3   0.467694 0.392452 0.952296 -0.045166
C17   C     C_3   0.424084 0.584692 0.946163 -0.020307
C18   C     C_3   0.575916 0.415308 0.053837 -0.020301
C19   C     C_3   0.608447 0.522871 0.950067 -0.028974
C20   C     C_3   0.391553 0.477129 0.049933 -0.028976
C21   C     C_R   0.262520 0.503716 0.499385 0.820623
C22   C     C_R   0.737480 0.496284 0.500615 0.820618
C23   C     C_R   0.203757 0.846894 0.206169 -0.337444
C24   C     C_R   0.796259 0.153093 0.793819 -0.337435
C25   C     C_R   0.164778 0.766780 0.315324 -0.272840
C26   C     C_R   0.835234 0.233212 0.684667 -0.272835
C27   C     C_R   0.113533 0.651508 0.283069 -0.119441
C28   C     C_R   0.886467 0.348488 0.716927 -0.119450
C29   C     C_R   0.104265 0.616286 0.141771 0.510592
C30   C     C_R   0.895728 0.383709 0.858224 0.510595
C31   C     C_R   0.140742 0.697590 0.032521 0.564570
C32   C     C_R   0.859253 0.302401 0.967472 0.564573
C33   C     C_R   0.191053 0.813333 0.063850 0.292031
C34   C     C_R   0.808954 0.186654 0.936139 0.292029
C35   C     C_R   0.930377 0.565021 0.396143 -0.094117
C36   C     C_R   0.069623 0.434980 0.603856 -0.094102
Cu1   Cu    Cu3+1 0.500030 0.499990 0.643150 0.999259
Cu2   Cu    Cu3+1 0.499970 0.500010 0.356850 0.999259
H1    H     H_    0.363861 0.658020 0.894548 0.206487
H2    H     H_    0.636138 0.341979 0.105452 0.206487
H3    H     H_    0.559569 0.698378 0.092069 0.134462
H4    H     H_    0.440431 0.301622 0.907930 0.134463
H5    H     H_    0.698711 0.546169 0.903724 0.182167
H6    H     H_    0.301288 0.453832 0.096275 0.182156
H7    H     H_    0.241730 0.935981 0.231472 0.217032
H8    H     H_    0.758296 0.064002 0.768513 0.217070
H9    H     H_    0.171993 0.795604 0.424170 0.217965
H10   H     H_    0.828027 0.204388 0.575821 0.217980
H11   H     H_    0.876187 0.617634 0.316801 0.162242
H12   H     H_    0.123813 0.382367 0.683198 0.162244
H13   H     H_    0.527302 0.063316 0.749167 0.172394
H14   H     H_    0.472701 0.936684 0.250833 0.172396
N1    N     N_3   0.500090 0.499970 0.858290 -0.179356
N2    N     N_3   0.499910 0.500030 0.141710 -0.179355
O1    O     O_R   0.500060 0.316850 0.620870 -0.616750
O2    O     O_R   0.499940 0.683150 0.379130 -0.616748
O3    O     O_R   0.500000 0.316860 0.379090 -0.533185
O4    O     O_R   0.500000 0.683140 0.620910 -0.533184
O5    O     O_R   0.319670 0.500010 0.620890 -0.562132
O6    O     O_R   0.680330 0.499990 0.379110 -0.562132
O7    O     O_R   0.319620 0.500010 0.379110 -0.580732
O8    O     O_R   0.680380 0.499990 0.620890 -0.580734
O9    O     O_3   0.227152 0.891147 0.953998 -0.664551
H15   H     H_    0.261725 0.968170 0.993729 0.326365
O10   O     O_3   0.772858 0.108835 0.045989 -0.664563
H16   H     H_    0.738303 0.031806 0.006255 0.326369
F1    F     F_    0.062667 0.501238 0.111628 -0.563169
F2    F     F_    0.937318 0.498760 0.888371 -0.563174
F3    F     F_    0.128353 0.663610 0.895760 -0.571435
F4    F     F_    0.871638 0.336380 0.104234 -0.571435
O11   O     O_3   0.712940 0.890946 0.602912 -0.721882
H17   H     H_    0.782089 0.938036 0.561508 0.334156
O12   O     O_3   0.287058 0.109053 0.397094 -0.721867
H18   H     H_    0.217913 0.061916 0.438438 0.334156
O13   O     O_3   0.307883 0.915488 0.655825 -0.676992
H19   H     H_    0.265296 0.991213 0.692557 0.348956
O14   O     O_3   0.692118 0.084513 0.344175 -0.676995
H20   H     H_    0.734697 0.008789 0.307429 0.348950

loop_
_geom_bond_atom_site_label_1
_geom_bond_atom_site_label_2
_ccdc_geom_bond_type
C7    C13   S    
C4    C36   A    
C23   H7    S    
C16   H4    S    
C27   C29   A    
O12   H18   S    
C9    C14   S    
Cu1   O8    S    
O14   H20   S    
C15   C19   S    
C16   C20   S    
C24   C26   A    
C21   O5    A    
C22   O6    A    
C10   O12   S    
Cu2   O3    S    
C5    C36   A    
C17   C20   S    
C6    C35   A    
C7    C9    S    
C18   C19   S    
C17   H1    S    
C14   O14   S    
C18   H2    S    
C16   N1    S    
C29   F1    S    
C13   O13   S    
C23   C33   A    
C35   H11   S    
C31   C33   A    
C8    H14   S    
C21   O7    A    
Cu1   O4    S    
C26   H10   S    
Cu2   O7    S    
Cu1   N1    S    
C19   N1    S    
C1    C12   S    
C2    C11   S    
C34   O10   S    
C20   H6    S    
C19   H5    S    
C7    C12   S    
C15   N2    S    
C15   H3    S    
C4    C6    A    
C32   F4    S    
C24   C34   A    
C32   C34   A    
O13   H19   S    
Cu1   Cu2   S    
C1    O3    A    
C22   O8    A    
C5    C28   S    
C6    C27   S    
Cu2   N2    S    
C3    C35   A    
C33   O9    S    
C16   C18   S    
C9    C11   S    
Cu1   O5    S    
C10   C12   S    
Cu2   O6    S    
C20   N2    S    
C12   C14   S    
C17   N1    S    
C36   H12   S    
C15   C17   S    
C25   H9    S    
C8    C14   S    
C9    O11   S    
C3    C5    A    
C10   C13   S    
C2    O4    A    
C25   C27   A    
C26   C28   A    
C24   H8    S    
C28   C30   A    
C1    O1    A    
C7    H13   S    
O11   H17   S    
C29   C31   A    
C2    O2    A    
C30   C32   A    
C4    C21   S    
C11   C13   S    
C8    C11   S    
C23   C25   A    
C18   N2    S    
O9    H15   S    
Cu1   O1    S    
C31   F3    S    
Cu2   O2    S    
C8    C10   S    
O10   H16   S    
C3    C22   S    
C30   F2    S    
