data_mof_unit_59134.cif
_audit_creation_date              2012-12-10T16:49:23-0500
_audit_creation_method            fapswitch 2.2
_symmetry_space_group_name_H-M    P1
_symmetry_Int_Tables_number       1
_space_group_crystal_system       triclinic
_cell_length_a                    7.812048
_cell_length_b                    8.570884
_cell_length_c                    12.85667
_cell_angle_alpha                 89.35695
_cell_angle_beta                  88.301069
_cell_angle_gamma                 93.619317
_cell_volume                      858.664644899

loop_
_atom_site_label
_atom_site_type_symbol
_atom_type_description
_atom_site_fract_x
_atom_site_fract_y
_atom_site_fract_z
_atom_type_partial_charge
C1    C     C_R   0.454855 0.205481 0.497414 0.949101
C2    C     C_R   0.715475 0.525018 0.140903 -0.202830
C3    C     C_R   0.593202 0.530091 0.868839 -0.293806
C4    C     C_R   0.406798 0.469909 0.131161 -0.293806
C5    C     C_R   0.581179 0.517156 0.975451 0.194078
C6    C     C_R   0.418821 0.482844 0.024549 0.194078
C7    C     C_2   0.431224 0.041874 0.495875 -0.383207
C8    C     C_2   0.568775 0.958125 0.504125 -0.383208
C9    C     C_3   0.077734 0.696566 0.331527 -0.164025
C10   C     C_3   0.922266 0.303434 0.668473 -0.164025
C11   C     C_R   0.545145 0.794519 0.502586 0.949101
C12   C     C_R   0.466596 0.504100 0.699555 0.856374
C13   C     C_R   0.533404 0.495900 0.300445 0.856374
C14   C     C_R   0.553817 0.494411 0.189319 -0.037111
C15   C     C_R   0.446183 0.505589 0.810681 -0.037111
C16   C     C_R   0.270814 0.463338 0.966448 -0.237244
C17   C     C_R   0.729186 0.536662 0.033552 -0.237244
C18   C     C_R   0.284525 0.474982 0.859097 -0.202830
H1    H     H_    0.282156 0.442779 0.168727 0.151140
H2    H     H_    0.203536 0.756435 0.347548 0.182872
H3    H     H_    0.006372 0.779039 0.284865 0.133217
H4    H     H_    0.796464 0.243565 0.652452 0.182872
H5    H     H_    0.908284 0.409235 0.716384 0.137005
H6    H     H_    0.993628 0.220961 0.715135 0.133217
H7    H     H_    0.717844 0.557221 0.831273 0.151139
H8    H     H_    0.829720 0.543474 0.185784 0.155777
H9    H     H_    0.170280 0.456526 0.814216 0.155777
H10   H     H_    0.145858 0.437613 0.003806 0.134834
H11   H     H_    0.854142 0.562387 0.996194 0.134834
H12   H     H_    0.301244 0.990893 0.487959 0.195137
H13   H     H_    0.698756 0.009107 0.512041 0.195137
H14   H     H_    0.091716 0.590765 0.283616 0.137004
N1    N     N_2   0.054030 0.541640 0.471970 0.192618
N2    N     N_2   0.945970 0.458360 0.528030 0.192618
O1    O     O_R   0.609680 0.261530 0.506880 -0.632233
O2    O     O_3   0.017467 0.339508 0.576323 -0.523111
O3    O     O_R   0.390320 0.738470 0.493120 -0.632233
O4    O     O_R   0.323330 0.288220 0.488910 -0.571658
O5    O     O_R   0.676670 0.711780 0.511090 -0.571658
O6    O     O_R   0.619510 0.488830 0.661140 -0.662615
O7    O     O_R   0.380490 0.511170 0.338860 -0.662615
O8    O     O_R   0.333160 0.515520 0.643180 -0.596750
O9    O     O_R   0.666840 0.484480 0.356820 -0.596750
O10   O     O_3   0.982533 0.660492 0.423677 -0.523111
Zn1   Zn    Zn3+2 0.691200 0.482180 0.511990 1.022439
Zn2   Zn    Zn3+2 0.308800 0.517820 0.488010 1.022439

loop_
_geom_bond_atom_site_label_1
_geom_bond_atom_site_label_2
_ccdc_geom_bond_type
C12   O6    A    
C15   C18   A    
C10   O2    S    
O7    Zn2   S    
C16   H10   S    
C10   H5    S    
C17   H11   S    
C9    H2    S    
C4    H1    S    
C12   C15   S    
C13   O9    A    
O5    Zn1   S    
C13   O7    A    
N1    N2    D    
C7    C8    D    
C2    H8    S    
N2    Zn1   S    
C13   C14   S    
C10   H4    S    
C2    C17   A    
C11   O5    A    
N1    Zn2   S    
N1    O10   S    
C9    H3    S    
C5    C6    A    
C1    O4    A    
C8    C11   S    
C16   C18   A    
N2    O2    S    
C4    C14   A    
O6    Zn1   S    
C2    C14   A    
O4    Zn2   S    
C5    C17   A    
C6    C16   A    
O1    Zn1   S    
C3    H7    S    
C3    C15   A    
C1    O1    A    
C4    C6    A    
O8    Zn2   S    
C11   O3    A    
C9    O10   S    
C12   O8    A    
C9    H14   S    
C10   H6    S    
O3    Zn2   S    
C1    C7    S    
C8    H13   S    
O9    Zn1   S    
C18   H9    S    
C3    C5    A    
C7    H12   S    
