data_mof_unit_63832.cif
_audit_creation_date              2012-12-10T17:06:08-0500
_audit_creation_method            fapswitch 2.2
_symmetry_space_group_name_H-M    P1
_symmetry_Int_Tables_number       1
_space_group_crystal_system       triclinic
_cell_length_a                    23.477411
_cell_length_b                    30.155701
_cell_length_c                    19.340187
_cell_angle_alpha                 89.99976
_cell_angle_beta                  125.974004
_cell_angle_gamma                 90.000157
_cell_volume                      11081.0531803

loop_
_atom_site_label
_atom_site_type_symbol
_atom_type_description
_atom_site_fract_x
_atom_site_fract_y
_atom_site_fract_z
_atom_type_partial_charge
C1    C     C_R   0.690910 0.810401 0.881507 0.928817
C2    C     C_R   0.309090 0.189599 0.118493 0.928817
C3    C     C_R   0.309090 0.810401 0.118493 0.928816
C4    C     C_R   0.690910 0.189599 0.881507 0.928817
C5    C     C_R   0.190910 0.310401 0.881507 0.928817
C6    C     C_R   0.809090 0.689599 0.118493 0.928816
C7    C     C_R   0.809090 0.310401 0.118493 0.928817
C8    C     C_R   0.190910 0.689599 0.881507 0.928817
C9    C     C_R   0.682260 0.848389 0.764408 0.016041
C10   C     C_R   0.317740 0.151611 0.235592 0.016042
C11   C     C_R   0.317741 0.848388 0.235593 0.016043
C12   C     C_R   0.682259 0.151612 0.764407 0.016043
C13   C     C_R   0.182259 0.348389 0.764408 0.016042
C14   C     C_R   0.817741 0.651611 0.235592 0.016041
C15   C     C_R   0.817741 0.348389 0.235592 0.016042
C16   C     C_R   0.182259 0.651612 0.764407 0.016043
C17   C     C_R   0.661103 0.844504 0.818457 -0.203417
C18   C     C_R   0.338897 0.155496 0.181543 -0.203417
C19   C     C_R   0.338897 0.844504 0.181543 -0.203419
C20   C     C_R   0.661103 0.155496 0.818457 -0.203419
C21   C     C_R   0.161103 0.344504 0.818457 -0.203417
C22   C     C_R   0.838897 0.655496 0.181542 -0.203417
C23   C     C_R   0.838897 0.344504 0.181543 -0.203419
C24   C     C_R   0.161103 0.655496 0.818457 -0.203419
C25   C     C_R   0.606060 0.869440 0.806708 0.206799
C26   C     C_R   0.393940 0.130560 0.193292 0.206799
C27   C     C_R   0.393938 0.869442 0.193290 0.206803
C28   C     C_R   0.606062 0.130558 0.806710 0.206802
C29   C     C_R   0.106060 0.369440 0.806708 0.206798
C30   C     C_R   0.893940 0.630560 0.193291 0.206800
C31   C     C_R   0.893939 0.369441 0.193291 0.206801
C32   C     C_R   0.106062 0.630558 0.806710 0.206802
C33   C     C_R   0.571946 0.900114 0.740653 0.251107
C34   C     C_R   0.428054 0.099886 0.259347 0.251107
C35   C     C_R   0.428051 0.900116 0.259344 0.251100
C36   C     C_R   0.571949 0.099884 0.740656 0.251101
C37   C     C_R   0.071946 0.400114 0.740653 0.251107
C38   C     C_R   0.928053 0.599886 0.259346 0.251104
C39   C     C_R   0.928053 0.400115 0.259345 0.251104
C40   C     C_R   0.071949 0.599884 0.740656 0.251101
C41   C     C_R   0.588898 0.902416 0.681151 -0.224046
C42   C     C_R   0.411102 0.097584 0.318849 -0.224045
C43   C     C_R   0.411102 0.902416 0.318848 -0.224045
C44   C     C_R   0.588898 0.097584 0.681152 -0.224045
C45   C     C_R   0.088897 0.402416 0.681151 -0.224046
C46   C     C_R   0.911102 0.597584 0.318849 -0.224046
C47   C     C_R   0.911102 0.402416 0.318848 -0.224046
C48   C     C_R   0.088898 0.597584 0.681152 -0.224045
C49   C     C_R   0.058809 0.561736 0.618557 0.978783
C50   C     C_R   0.941191 0.438264 0.381443 0.978782
C51   C     C_R   0.941192 0.561736 0.381443 0.978782
C52   C     C_R   0.058808 0.438264 0.618557 0.978782
C53   C     C_R   0.558809 0.061736 0.618557 0.978783
C54   C     C_R   0.441191 0.938264 0.381443 0.978784
C55   C     C_R   0.441192 0.061736 0.381443 0.978782
C56   C     C_R   0.558808 0.938264 0.618557 0.978782
C57   C     C_R   0.640901 0.750228 0.000406 0.896249
C58   C     C_R   0.359099 0.249772 0.999594 0.896249
C59   C     C_R   0.359099 0.750228 0.999593 0.896250
C60   C     C_R   0.640901 0.249772 0.000407 0.896250
C61   C     C_R   0.140901 0.250228 0.000406 0.896249
C62   C     C_R   0.859099 0.749772 0.999594 0.896249
C63   C     C_R   0.859099 0.250228 0.999593 0.896251
C64   C     C_R   0.140901 0.749772 0.000407 0.896250
C65   C     C_1   0.580850 0.750972 0.000773 -0.130168
C66   C     C_1   0.419150 0.249028 0.999227 -0.130168
C67   C     C_1   0.419150 0.750972 0.999227 -0.130171
C68   C     C_1   0.580850 0.249028 0.000773 -0.130170
C69   C     C_1   0.080850 0.250972 0.000773 -0.130168
C70   C     C_1   0.919150 0.749028 0.999227 -0.130168
C71   C     C_1   0.919149 0.250972 0.999227 -0.130170
C72   C     C_1   0.080850 0.749028 0.000773 -0.130171
C73   C     C_1   0.529836 0.751314 0.000387 0.041426
C74   C     C_1   0.470164 0.248686 0.999613 0.041426
C75   C     C_1   0.470164 0.751314 0.999613 0.041425
C76   C     C_1   0.529836 0.248686 0.000387 0.041425
C77   C     C_1   0.029836 0.251314 0.000387 0.041426
C78   C     C_1   0.970164 0.748686 0.999613 0.041426
C79   C     C_1   0.970164 0.251314 0.999613 0.041426
C80   C     C_1   0.029836 0.748686 0.000387 0.041425
C81   C     C_R   0.743401 0.826716 0.783439 -0.124813
C82   C     C_R   0.256599 0.173284 0.216561 -0.124813
C83   C     C_R   0.256601 0.826715 0.216563 -0.124813
C84   C     C_R   0.743399 0.173285 0.783437 -0.124813
C85   C     C_R   0.243400 0.326716 0.783438 -0.124813
C86   C     C_R   0.756600 0.673284 0.216562 -0.124813
C87   C     C_R   0.756600 0.326716 0.216562 -0.124814
C88   C     C_R   0.243399 0.673286 0.783436 -0.124813
C89   C     C_R   0.759759 0.826798 0.725181 -0.177410
C90   C     C_R   0.240240 0.173202 0.274819 -0.177410
C91   C     C_R   0.240243 0.826796 0.274822 -0.177411
C92   C     C_R   0.759757 0.173204 0.725178 -0.177411
C93   C     C_R   0.259758 0.326797 0.725179 -0.177410
C94   C     C_R   0.740241 0.673202 0.274820 -0.177410
C95   C     C_R   0.740241 0.326797 0.274820 -0.177411
C96   C     C_R   0.259757 0.673204 0.725177 -0.177411
C97   C     C_R   0.712890 0.845272 0.645007 -0.147354
C98   C     C_R   0.287110 0.154728 0.354993 -0.147355
C99   C     C_R   0.287112 0.845270 0.354996 -0.147354
C100  C     C_R   0.712887 0.154730 0.645004 -0.147353
C101  C     C_R   0.212889 0.345271 0.645005 -0.147354
C102  C     C_R   0.787111 0.654728 0.354994 -0.147354
C103  C     C_R   0.787111 0.345271 0.354994 -0.147355
C104  C     C_R   0.212887 0.654730 0.645004 -0.147354
C105  C     C_R   0.651893 0.866525 0.624740 0.315179
C106  C     C_R   0.348106 0.133475 0.375260 0.315179
C107  C     C_R   0.348108 0.866524 0.375261 0.315177
C108  C     C_R   0.651891 0.133476 0.624738 0.315178
C109  C     C_R   0.151893 0.366525 0.624739 0.315179
C110  C     C_R   0.848107 0.633475 0.375260 0.315179
C111  C     C_R   0.848107 0.366525 0.375260 0.315179
C112  C     C_R   0.151892 0.633476 0.624738 0.315179
C113  C     C_R   0.640309 0.873175 0.688734 0.002777
C114  C     C_R   0.359691 0.126824 0.311266 0.002777
C115  C     C_R   0.359691 0.873175 0.311266 0.002778
C116  C     C_R   0.640308 0.126825 0.688733 0.002778
C117  C     C_R   0.140309 0.373175 0.688734 0.002777
C118  C     C_R   0.859691 0.626825 0.311266 0.002778
C119  C     C_R   0.859691 0.373175 0.311266 0.002778
C120  C     C_R   0.140308 0.626825 0.688733 0.002779
H1    H     H_    0.778940 0.809628 0.843472 0.121605
H2    H     H_    0.221060 0.190372 0.156528 0.121604
H3    H     H_    0.221062 0.809626 0.156531 0.121606
H4    H     H_    0.778938 0.190373 0.843469 0.121606
H5    H     H_    0.278939 0.309628 0.843471 0.121605
H6    H     H_    0.721061 0.690372 0.156529 0.121605
H7    H     H_    0.721061 0.309628 0.156529 0.121605
H8    H     H_    0.278937 0.690374 0.843468 0.121606
H9    H     H_    0.806516 0.809976 0.740204 0.166448
H10   H     H_    0.193484 0.190024 0.259796 0.166448
H11   H     H_    0.193487 0.809973 0.259799 0.166448
H12   H     H_    0.806512 0.190027 0.740200 0.166448
H13   H     H_    0.306514 0.309975 0.740202 0.166448
H14   H     H_    0.693485 0.690025 0.259797 0.166448
H15   H     H_    0.693485 0.309975 0.259797 0.166448
H16   H     H_    0.306512 0.690027 0.740200 0.166448
H17   H     H_    0.722156 0.840867 0.596792 0.180720
H18   H     H_    0.277844 0.159133 0.403208 0.180720
H19   H     H_    0.277847 0.840864 0.403211 0.180720
H20   H     H_    0.722152 0.159136 0.596788 0.180720
H21   H     H_    0.222155 0.340866 0.596790 0.180720
H22   H     H_    0.777845 0.659134 0.403209 0.180719
H23   H     H_    0.777844 0.340866 0.403209 0.180720
H24   H     H_    0.222153 0.659136 0.596788 0.180720
O1    O     O_R   0.678330 0.769930 0.856640 -0.608541
O2    O     O_R   0.321670 0.230070 0.143360 -0.608541
O3    O     O_R   0.321670 0.769930 0.143360 -0.608542
O4    O     O_R   0.678330 0.230070 0.856640 -0.608541
O5    O     O_R   0.178330 0.269930 0.856640 -0.608541
O6    O     O_R   0.821670 0.730070 0.143360 -0.608541
O7    O     O_R   0.821670 0.269930 0.143360 -0.608541
O8    O     O_R   0.178330 0.730070 0.856640 -0.608542
O9    O     O_R   0.730030 0.821640 0.960080 -0.598506
O10   O     O_R   0.269970 0.178360 0.039920 -0.598506
O11   O     O_R   0.269970 0.821640 0.039920 -0.598505
O12   O     O_R   0.730030 0.178360 0.960080 -0.598505
O13   O     O_R   0.230030 0.321640 0.960080 -0.598506
O14   O     O_R   0.769970 0.678360 0.039920 -0.598505
O15   O     O_R   0.769970 0.321640 0.039920 -0.598505
O16   O     O_R   0.230030 0.678360 0.960080 -0.598505
O17   O     O_R   0.641350 0.724120 0.948260 -0.617823
O18   O     O_R   0.358650 0.275880 0.051740 -0.617823
O19   O     O_R   0.358650 0.724120 0.051740 -0.617824
O20   O     O_R   0.641350 0.275880 0.948260 -0.617824
O21   O     O_R   0.141350 0.224120 0.948260 -0.617823
O22   O     O_R   0.858650 0.775880 0.051740 -0.617823
O23   O     O_R   0.858650 0.224120 0.051740 -0.617824
O24   O     O_R   0.141350 0.775880 0.948260 -0.617824
O25   O     O_R   0.693050 0.775840 0.051700 -0.594453
O26   O     O_R   0.306950 0.224160 0.948300 -0.594452
O27   O     O_R   0.306950 0.775840 0.948300 -0.594452
O28   O     O_R   0.693050 0.224160 0.051700 -0.594453
O29   O     O_R   0.193050 0.275840 0.051700 -0.594453
O30   O     O_R   0.806950 0.724160 0.948300 -0.594452
O31   O     O_R   0.806950 0.275840 0.948300 -0.594453
O32   O     O_R   0.193050 0.724160 0.051700 -0.594453
O33   O     O_R   0.999060 0.545790 0.591600 -0.549625
O34   O     O_R   0.000940 0.454210 0.408400 -0.549626
O35   O     O_R   0.000940 0.545790 0.408400 -0.549626
O36   O     O_R   0.999060 0.454210 0.591600 -0.549626
O37   O     O_R   0.499060 0.045790 0.591600 -0.549625
O38   O     O_R   0.500940 0.954210 0.408400 -0.549625
O39   O     O_R   0.500940 0.045790 0.408400 -0.549626
O40   O     O_R   0.499060 0.954210 0.591600 -0.549625
O41   O     O_R   0.092510 0.545780 0.591590 -0.622785
O42   O     O_R   0.907490 0.454220 0.408410 -0.622785
O43   O     O_R   0.907490 0.545780 0.408410 -0.622786
O44   O     O_R   0.092510 0.454220 0.591590 -0.622785
O45   O     O_R   0.592510 0.045780 0.591590 -0.622785
O46   O     O_R   0.407490 0.954220 0.408410 -0.622785
O47   O     O_R   0.407490 0.045780 0.408410 -0.622786
O48   O     O_R   0.592510 0.954220 0.591590 -0.622785
Zn1   Zn    Zn3+2 0.715450 0.715450 0.930910 1.044018
Zn2   Zn    Zn3+2 0.284550 0.284550 0.069090 1.044018
Zn3   Zn    Zn3+2 0.284550 0.715450 0.069090 1.044018
Zn4   Zn    Zn3+2 0.715450 0.284550 0.930910 1.044018
Zn5   Zn    Zn3+2 0.215450 0.215450 0.930910 1.044017
Zn6   Zn    Zn3+2 0.784550 0.784550 0.069090 1.044018
Zn7   Zn    Zn3+2 0.784550 0.215450 0.069090 1.044019
Zn8   Zn    Zn3+2 0.215450 0.784550 0.930910 1.044018
Zn9   Zn    Zn3+2 0.937580 0.500000 0.499990 1.120429
Zn10  Zn    Zn3+2 0.062420 0.500000 0.500010 1.120429
Zn11  Zn    Zn3+2 0.437580 0.000000 0.499990 1.120430
Zn12  Zn    Zn3+2 0.562420 0.000000 0.500010 1.120429
Br1   Br    Br    0.577681 0.861212 0.881973 -0.373002
Br2   Br    Br    0.422319 0.138789 0.118027 -0.373002
Br3   Br    Br    0.422315 0.861215 0.118024 -0.372999
Br4   Br    Br    0.577685 0.138785 0.881976 -0.372999
Br5   Br    Br    0.077682 0.361212 0.881973 -0.373002
Br6   Br    Br    0.922318 0.638788 0.118026 -0.373002
Br7   Br    Br    0.922317 0.361213 0.118026 -0.373001
Br8   Br    Br    0.077685 0.638785 0.881976 -0.372999
Br9   Br    Br    0.579842 0.870669 0.504747 -0.450561
Br10  Br    Br    0.420158 0.129331 0.495253 -0.450560
Br11  Br    Br    0.420160 0.870668 0.495254 -0.450562
Br12  Br    Br    0.579839 0.129332 0.504746 -0.450562
Br13  Br    Br    0.079840 0.370668 0.504746 -0.450561
Br14  Br    Br    0.920160 0.629332 0.495253 -0.450561
Br15  Br    Br    0.920159 0.370668 0.495253 -0.450560
Br16  Br    Br    0.079839 0.629332 0.504746 -0.450562
Br17  Br    Br    0.504392 0.938752 0.737498 -0.287674
Br18  Br    Br    0.495609 0.061248 0.262502 -0.287674
Br19  Br    Br    0.495600 0.938757 0.262494 -0.287679
Br20  Br    Br    0.504400 0.061243 0.737506 -0.287679
Br21  Br    Br    0.004392 0.438752 0.737498 -0.287674
Br22  Br    Br    0.995605 0.561246 0.262498 -0.287677
Br23  Br    Br    0.995604 0.438754 0.262498 -0.287677
Br24  Br    Br    0.004400 0.561243 0.737505 -0.287679

loop_
_geom_bond_atom_site_label_1
_geom_bond_atom_site_label_2
_ccdc_geom_bond_type
C56   O48   A    
C3    O3    A    
C37   Br21  S    
C86   H6    S    
C69   C77   T    
C85   H5    S    
C52   O36   A    
C34   C42   A    
C57   O25   A    
C110  C118  A    
C87   H7    S    
C109  C117  A    
C48   C120  A    
O37   Zn11  S    
O6    Zn6   S    
C46   C118  A    
C74   C76   S    
C106  C114  A    
O38   Zn12  S    
O39   Zn12  S    
C44   C116  A    
C105  C113  A    
C58   O26   A    
C61   O21   A    
C93   H13   S    
C16   C120  A    
C32   Br8   S    
C78   C80   S    
O46   Zn11  S    
C70   C78   T    
C101  C109  A    
C6    C22   S    
C5    O5    A    
C62   C70   S    
O28   Zn7   S    
C103  C111  A    
C98   C106  A    
C24   C32   A    
C89   C97   A    
C86   C94   A    
C62   O30   A    
C43   C115  A    
C85   C93   A    
C44   C53   S    
C42   C114  A    
O17   Zn1   S    
C95   C103  A    
C14   C118  A    
C18   C26   A    
C29   C37   A    
C84   C92   A    
C54   O38   A    
O3    Zn3   S    
C84   H4    S    
C55   O47   A    
O2    Zn2   S    
C35   C43   A    
C36   Br20  S    
O1    Zn1   S    
C10   C114  A    
C50   O42   A    
C12   C84   A    
C38   Br22  S    
C81   C89   A    
C15   C23   A    
O18   Zn2   S    
C16   C24   A    
O40   Zn11  S    
C26   C34   A    
C90   H10   S    
C73   C75   S    
O8    Zn8   S    
C99   H19   S    
C26   Br2   S    
O47   Zn11  S    
C99   C107  A    
C111  Br15  S    
C59   O27   A    
C15   C119  A    
C97   H17   S    
C63   O23   A    
C6    O14   A    
C104  C112  A    
O4    Zn4   S    
C47   C50   S    
C49   O33   A    
C77   C79   S    
O45   Zn12  S    
C112  Br16  S    
O15   Zn4   S    
C106  Br10  S    
C7    O15   A    
C100  C108  A    
O14   Zn1   S    
C105  Br9   S    
C13   C21   A    
O13   Zn2   S    
C60   O28   A    
O7    Zn7   S    
C11   C115  A    
C59   O19   A    
C14   C86   A    
C96   H16   S    
O36   Zn9   S    
C65   C73   T    
C93   C101  A    
C112  C120  A    
O10   Zn5   S    
C17   C25   A    
C33   Br17  S    
O9    Zn6   S    
C56   O40   A    
C45   C52   S    
C27   C35   A    
C39   C47   A    
C21   C29   A    
C46   C51   S    
C10   C82   A    
C71   C79   T    
C72   C80   T    
O42   Zn9   S    
C87   C95   A    
C88   C96   A    
C92   H12   S    
C5    C21   S    
C23   C31   A    
O41   Zn10  S    
C40   Br24  S    
C60   O20   A    
C1    O9    A    
O22   Zn6   S    
C41   C56   S    
O27   Zn8   S    
O21   Zn5   S    
C42   C55   S    
C66   C74   T    
C59   C67   S    
C63   O31   A    
O35   Zn10  S    
O19   Zn3   S    
C11   C19   A    
C12   C20   A    
C25   C33   A    
C3    O11   A    
C95   H15   S    
O48   Zn12  S    
C49   O41   A    
C4    O12   A    
C8    O16   A    
C68   C76   T    
C94   H14   S    
C43   C54   S    
C3    C19   S    
C28   C36   A    
C108  Br12  S    
O16   Zn3   S    
C7    O7    A    
C111  C119  A    
C9    C17   A    
C48   C49   S    
C62   O22   A    
C63   C71   S    
C5    O13   A    
C32   C40   A    
C96   C104  A    
C31   Br7   S    
C14   C22   A    
C28   Br4   S    
O33   Zn9   S    
C36   C44   A    
O12   Zn7   S    
C67   C75   T    
C1    O1    A    
C37   C45   A    
C83   C91   A    
C58   O18   A    
C20   C28   A    
O31   Zn4   S    
C51   O35   A    
C19   C27   A    
C47   C119  A    
C92   C100  A    
C58   C66   S    
C45   C117  A    
C40   C48   A    
C55   O39   A    
C54   O46   A    
C50   O34   A    
C101  H21   S    
C100  H20   S    
O24   Zn8   S    
C41   C113  A    
C2    C18   S    
C8    O8    A    
C107  Br11  S    
C103  H23   S    
C30   Br6   S    
C13   C117  A    
O20   Zn4   S    
C29   Br5   S    
C53   O37   A    
C12   C116  A    
C2    O2    A    
C102  H22   S    
O43   Zn9   S    
C35   Br19  S    
C1    C17   S    
C6    O6    A    
C82   C90   A    
C60   C68   S    
C33   C41   A    
C108  C116  A    
O34   Zn10  S    
C64   O32   A    
C97   C105  A    
C88   H8    S    
C109  Br13  S    
C22   C30   A    
C98   H18   S    
C81   H1    S    
C11   C83   A    
C2    O10   A    
C10   C18   A    
C102  C110  A    
C7    C23   S    
C9    C113  A    
O44   Zn10  S    
C8    C24   S    
C57   O17   A    
C31   C39   A    
C107  C115  A    
C27   Br3   S    
C61   C69   S    
C64   C72   S    
O32   Zn3   S    
C110  Br14  S    
C82   H2    S    
C39   Br23  S    
C38   C46   A    
C51   O43   A    
C104  H24   S    
C4    C20   S    
C91   H11   S    
C25   Br1   S    
O30   Zn1   S    
C64   O24   A    
C15   C87   A    
C13   C85   A    
O29   Zn2   S    
C16   C88   A    
C61   O29   A    
O23   Zn7   S    
C9    C81   A    
C52   O44   A    
C30   C38   A    
C83   H3    S    
C91   C99   A    
C89   H9    S    
C53   O45   A    
C90   C98   A    
O26   Zn5   S    
O11   Zn8   S    
C34   Br18  S    
C94   C102  A    
O5    Zn5   S    
O25   Zn6   S    
C57   C65   S    
C4    O4    A    
