data_mof_unit_19799.cif
_audit_creation_date              2012-12-10T17:15:53-0500
_audit_creation_method            fapswitch 2.2
_symmetry_space_group_name_H-M    P1
_symmetry_Int_Tables_number       1
_space_group_crystal_system       triclinic
_cell_length_a                    10.083615
_cell_length_b                    10.602985
_cell_length_c                    10.650398
_cell_angle_alpha                 88.607767
_cell_angle_beta                  93.194328
_cell_angle_gamma                 81.799146
_cell_volume                      1124.70784365

loop_
_atom_site_label
_atom_site_type_symbol
_atom_type_description
_atom_site_fract_x
_atom_site_fract_y
_atom_site_fract_z
_atom_type_partial_charge
C1    C     C_R   0.446384 0.509501 0.266309 0.953850
C2    C     C_R   0.637098 0.045478 0.531574 0.029181
C3    C     C_R   0.517605 0.125730 0.559791 -0.205026
C4    C     C_R   0.401621 0.072257 0.585976 0.204498
C5    C     C_R   0.393777 0.950551 0.545480 -0.214158
C6    C     C_R   0.503328 0.877660 0.494994 -0.176354
C7    C     C_2   0.423021 0.508490 0.131108 -0.028543
C8    C     C_2   0.493766 0.411708 0.071070 0.124347
C9    C     C_2   0.574593 0.449697 0.867928 -0.462055
C10   C     C_2   0.477274 0.408542 0.934809 0.209508
C11   C     C_2   0.073964 0.488923 0.490732 -0.130007
C12   C     C_R   0.505862 0.261248 0.525710 0.905392
C13   C     C_2   0.926341 0.509733 0.510541 -0.151473
C14   C     C_R   0.552860 0.482067 0.733980 0.949124
C15   C     C_R   0.499469 0.742010 0.491266 0.885177
C16   C     C_R   0.768299 0.080343 0.549566 0.194951
C17   C     C_R   0.875360 0.015872 0.484111 0.199242
C18   C     C_R   0.851867 0.912641 0.411038 -0.210383
C19   C     C_R   0.728359 0.868730 0.408783 -0.221566
C20   C     C_R   0.623076 0.928921 0.477819 0.054223
H1    H     H_    0.931425 0.862019 0.359620 0.161326
H2    H     H_    0.669861 0.463789 0.914334 0.143425
N1    N     N_2   0.157290 0.551390 0.551110 -0.197622
N2    N     N_2   0.842740 0.448550 0.448960 -0.205531
O1    O     O_R   0.568950 0.489660 0.307530 -0.600520
O2    O     O_R   0.348880 0.522640 0.340350 -0.611809
O3    O     O_R   0.610060 0.300270 0.483590 -0.588188
O4    O     O_R   0.389990 0.333260 0.516410 -0.624377
O5    O     O_R   0.651120 0.477360 0.659650 -0.603594
O6    O     O_R   0.431050 0.510340 0.692470 -0.616913
O7    O     O_R   0.610010 0.666740 0.483590 -0.616457
O8    O     O_R   0.389940 0.699730 0.516410 -0.615332
Zn1   Zn    Zn3+2 0.646940 0.477980 0.478090 0.934563
Zn2   Zn    Zn3+2 0.353060 0.522020 0.521910 0.925880
N3    N     N_2   0.294739 0.138831 0.652774 -0.289117
H3    H     H_    0.312818 0.225280 0.686390 0.274388
C21   C     C_3   0.239680 0.065582 0.749244 -0.837653
H4    H     H_    0.155950 0.126016 0.791244 0.236188
H5    H     H_    0.318612 0.030527 0.823881 0.247434
H6    H     H_    0.195443 0.984014 0.710635 0.244239
N4    N     N_2   0.339764 0.612598 0.063267 -0.326393
H7    H     H_    0.371815 0.637000 0.976914 0.233320
C22   C     C_3   0.284371 0.722339 0.131745 -0.801862
H8    H     H_    0.226447 0.794746 0.065088 0.233437
H9    H     H_    0.366165 0.765874 0.180456 0.223590
H10   H     H_    0.214176 0.694664 0.200556 0.266726
H11   H     H_    0.888045 0.578166 0.578589 0.177092
H12   H     H_    0.112452 0.419466 0.423672 0.173172
H13   H     H_    0.882187 0.384968 0.384497 0.158681
H14   H     H_    0.117416 0.616693 0.613986 0.161474
N5    N     N_2   0.791354 0.175409 0.637496 -0.284350
H15   H     H_    0.856751 0.236534 0.612295 0.240549
C23   C     C_3   0.810666 0.130144 0.767139 -0.839801
H16   H     H_    0.822608 0.211438 0.828423 0.240726
H17   H     H_    0.902383 0.058266 0.780242 0.235521
H18   H     H_    0.722093 0.087310 0.795572 0.256483
N6    N     N_2   0.007084 0.050685 0.493431 -0.315696
H19   H     H_    0.028568 0.105549 0.567926 0.248296
C24   C     C_3   0.056728 0.092661 0.376847 -0.808223
H20   H     H_    0.157829 0.120636 0.395386 0.256321
H21   H     H_    0.988454 0.176281 0.334948 0.223166
H22   H     H_    0.066040 0.014810 0.308736 0.245057
H23   H     H_    0.715753 0.789420 0.349586 0.176833
H24   H     H_    0.301907 0.911000 0.555266 0.196046
N7    N     N_2   0.348497 0.390408 0.879295 -0.278255
H25   H     H_    0.288964 0.474782 0.851420 0.253762
C25   C     C_3   0.272666 0.308808 0.948594 -0.834054
H26   H     H_    0.176534 0.302858 0.894999 0.239679
H27   H     H_    0.246835 0.349151 0.040813 0.246637
H28   H     H_    0.330711 0.211993 0.963241 0.248654
N8    N     N_2   0.565260 0.302601 0.139016 -0.290642
H29   H     H_    0.527446 0.219627 0.118474 0.223419
C26   C     C_3   0.709639 0.287113 0.133659 -0.757501
H30   H     H_    0.755814 0.211570 0.203184 0.239274
H31   H     H_    0.748603 0.377107 0.156997 0.246443
H32   H     H_    0.739040 0.258082 0.038535 0.222163

loop_
_geom_bond_atom_site_label_1
_geom_bond_atom_site_label_2
_ccdc_geom_bond_type
N5    C23   S    
C9    C14   S    
O7    Zn1   S    
C15   O7    A    
C21   H4    S    
N5    H15   S    
C18   H1    S    
C2    C16   A    
C9    C10   D    
N2    Zn1   S    
C16   N5    S    
O1    Zn1   S    
C22   H8    S    
N1    Zn2   S    
C25   H28   S    
C8    N8    S    
C7    N4    S    
C17   C18   A    
N6    H19   S    
C4    N3    S    
O4    Zn2   S    
C24   H20   S    
C21   H5    S    
C23   H16   S    
O3    Zn1   S    
C1    O1    A    
C22   H9    S    
N4    C22   S    
O8    Zn2   S    
C11   H12   S    
C1    O2    A    
N3    H3    S    
C12   O4    A    
C4    C5    A    
C11   N1    D    
N3    C21   S    
C14   O6    A    
C2    C3    A    
C21   H6    S    
C23   H17   S    
C26   H30   S    
C5    C6    A    
C22   H10   S    
C9    H2    S    
C24   H21   S    
C11   C13   S    
N6    C24   S    
N7    H25   S    
C26   H31   S    
C14   O5    A    
C2    C20   A    
C25   H26   S    
O5    Zn1   S    
N8    H29   S    
C6    C20   A    
C26   H32   S    
C5    H24   S    
C8    C10   S    
C7    C8    D    
N4    H7    S    
C23   H18   S    
C17   N6    S    
N2    H13   S    
N8    C26   S    
O6    Zn2   S    
C12   O3    A    
C18   C19   A    
N1    H14   S    
C3    C12   S    
C24   H22   S    
N7    C25   S    
C6    C15   S    
C1    C7    S    
C13   H11   S    
O2    Zn2   S    
C3    C4    A    
C19   C20   A    
C13   N2    D    
C19   H23   S    
C16   C17   A    
C25   H27   S    
C10   N7    S    
C15   O8    A    
