data_mof_unit_65578.cif
_audit_creation_date              2012-12-10T20:10:27-0500
_audit_creation_method            fapswitch 2.2
_symmetry_space_group_name_H-M    P1
_symmetry_Int_Tables_number       1
_space_group_crystal_system       triclinic
_cell_length_a                    19.310315
_cell_length_b                    18.468277
_cell_length_c                    11.557536
_cell_angle_alpha                 90.000841
_cell_angle_beta                  90.12855
_cell_angle_gamma                 90.004425
_cell_volume                      4121.73340929

loop_
_atom_site_label
_atom_site_type_symbol
_atom_type_description
_atom_site_fract_x
_atom_site_fract_y
_atom_site_fract_z
_atom_type_partial_charge
C1    C     C_R   0.365603 0.499997 0.499808 0.962074
C2    C     C_R   0.634397 0.500003 0.500192 0.962074
C3    C     C_R   0.071674 0.499951 0.499566 -0.324695
C4    C     C_R   0.928327 0.500048 0.500411 -0.324707
C5    C     C_R   0.546601 0.725966 0.566588 0.043326
C6    C     C_R   0.453399 0.274034 0.433412 0.043327
C7    C     C_R   0.453399 0.725957 0.433412 0.043331
C8    C     C_R   0.546601 0.274043 0.566589 0.043331
C9    C     C_R   0.547486 0.801947 0.567906 -0.249759
C10   C     C_R   0.452514 0.198053 0.432094 -0.249758
C11   C     C_R   0.452515 0.801938 0.432093 -0.249797
C12   C     C_R   0.547485 0.198062 0.567907 -0.249797
C13   C     C_R   0.500000 0.841353 0.500000 0.108329
C14   C     C_R   0.500000 0.158647 0.500000 0.108329
C15   C     C_R   0.486065 0.961982 0.398109 -0.156037
C16   C     C_R   0.513935 0.038018 0.601890 -0.156037
C17   C     C_R   0.513935 0.961986 0.601890 -0.156356
C18   C     C_R   0.486065 0.038014 0.398109 -0.156356
C19   C     C_R   0.500000 0.077303 0.500000 0.117980
C20   C     C_R   0.500000 0.922697 0.500000 0.117979
C21   C     C_R   0.499979 0.500000 0.281650 0.913887
C22   C     C_R   0.500020 0.500000 0.718350 0.913887
C23   C     C_1   0.499980 0.499999 0.161320 -0.161303
C24   C     C_1   0.500020 0.500001 0.838680 -0.161303
C25   C     C_1   0.499991 0.499999 0.059262 0.026689
C26   C     C_1   0.500009 0.500001 0.940738 0.026689
C27   C     C_R   0.745833 0.434174 0.500737 -0.291580
C28   C     C_R   0.254167 0.565826 0.499273 -0.291582
C29   C     C_R   0.254177 0.434134 0.499260 -0.291182
C30   C     C_R   0.745823 0.565865 0.500708 -0.291191
C31   C     C_R   0.817585 0.434149 0.500860 0.689419
C32   C     C_R   0.182414 0.565851 0.499142 0.689410
C33   C     C_R   0.182425 0.434085 0.499184 0.689487
C34   C     C_R   0.817575 0.565915 0.500778 0.689492
C35   C     C_R   0.853377 0.500038 0.500777 -0.015436
C36   C     C_R   0.146623 0.499962 0.499201 -0.015419
C37   C     C_R   0.709642 0.500013 0.500548 -0.230987
C38   C     C_R   0.290358 0.499986 0.499445 -0.230985
C39   C     C_R   0.963796 0.526876 0.403927 0.582905
C40   C     C_R   0.036205 0.473123 0.596049 0.582895
C41   C     C_R   0.035588 0.526830 0.403507 0.581922
C42   C     C_R   0.964413 0.473170 0.596470 0.581930
H1    H     H_    0.718782 0.382787 0.500502 0.205521
H2    H     H_    0.281217 0.617213 0.499527 0.205523
H3    H     H_    0.281234 0.382756 0.499037 0.205522
H4    H     H_    0.718766 0.617244 0.500917 0.205526
H5    H     H_    0.583375 0.696059 0.618709 0.135501
H6    H     H_    0.416626 0.303941 0.381290 0.135498
H7    H     H_    0.416626 0.696044 0.381290 0.136576
H8    H     H_    0.583374 0.303956 0.618711 0.136574
H9    H     H_    0.585748 0.829501 0.620445 0.151286
H10   H     H_    0.414252 0.170499 0.379554 0.151285
H11   H     H_    0.414253 0.829486 0.379554 0.151757
H12   H     H_    0.585747 0.170514 0.620447 0.151757
H13   H     H_    0.476285 0.933956 0.317453 0.141793
H14   H     H_    0.523715 0.066044 0.682546 0.141793
H15   H     H_    0.523716 0.933963 0.682546 0.141675
H16   H     H_    0.476284 0.066037 0.317454 0.141675
N1    N     N_R   0.500000 0.689440 0.500000 -0.100925
N2    N     N_R   0.500000 0.310560 0.500000 -0.100924
O1    O     O_R   0.398180 0.560840 0.499970 -0.627676
O2    O     O_R   0.601820 0.439160 0.500030 -0.627676
O3    O     O_R   0.601820 0.560840 0.500030 -0.627474
O4    O     O_R   0.398180 0.439160 0.499970 -0.627473
O5    O     O_R   0.500010 0.560810 0.334440 -0.614325
O6    O     O_R   0.499990 0.439190 0.665560 -0.614325
O7    O     O_R   0.499990 0.560810 0.665560 -0.615122
O8    O     O_R   0.500010 0.439190 0.334440 -0.615122
Zn1   Zn    Zn3+2 0.500000 0.581210 0.500000 0.966559
Zn2   Zn    Zn3+2 0.500000 0.418790 0.500000 0.966560
F1    F     F_    0.852171 0.370131 0.499554 -0.594621
F2    F     F_    0.147828 0.629869 0.500464 -0.594626
F3    F     F_    0.147844 0.370058 0.497838 -0.594719
F4    F     F_    0.852157 0.629943 0.502103 -0.594709
F5    F     F_    0.928761 0.551983 0.310122 -0.546323
F6    F     F_    0.071239 0.448016 0.689854 -0.546330
F7    F     F_    0.070016 0.551912 0.309317 -0.547220
F8    F     F_    0.929985 0.448089 0.690662 -0.547214

loop_
_geom_bond_atom_site_label_1
_geom_bond_atom_site_label_2
_ccdc_geom_bond_type
C15   C18   A    
C9    H9    S    
C10   H10   S    
C17   C20   A    
C39   C41   A    
C7    C11   A    
C5    H5    S    
C6    H6    S    
C32   C36   A    
C24   C26   T    
C34   C35   A    
C41   F7    S    
C29   C33   A    
C33   C36   A    
O2    Zn2   S    
C18   C19   A    
C9    C13   A    
C22   O6    A    
C18   H16   S    
O3    Zn1   S    
C16   C17   A    
C29   C38   A    
C39   F5    S    
C11   H11   S    
C40   C42   A    
C4    C35   S    
C7    N1    A    
C15   C20   A    
C30   C34   A    
C27   C31   A    
C6    N2    A    
C28   C32   A    
C7    H7    S    
C32   F2    S    
C10   C14   A    
C5    N1    A    
C25   C26   S    
C28   H2    S    
C40   F6    S    
C30   C37   A    
C29   H3    S    
O7    Zn1   S    
C15   H13   S    
C16   H14   S    
C5    C9    A    
C4    C39   A    
N2    Zn2   S    
C8    C12   A    
C1    C38   S    
C34   F4    S    
C33   F3    S    
C12   C14   A    
C3    C40   A    
C42   F8    S    
O4    Zn2   S    
N1    Zn1   S    
C21   O8    A    
C31   C35   A    
C1    O4    A    
C8    H8    S    
C2    O3    A    
O1    Zn1   S    
C3    C41   A    
C13   C20   S    
C21   O5    A    
C14   C19   S    
C30   H4    S    
C1    O1    A    
C6    C10   A    
C21   C23   S    
C8    N2    A    
C11   C13   A    
C2    C37   S    
O6    Zn2   S    
C4    C42   A    
C3    C36   S    
C27   C37   A    
C16   C19   A    
O5    Zn1   S    
C31   F1    S    
C22   C24   S    
C23   C25   T    
C22   O7    A    
C27   H1    S    
O8    Zn2   S    
C28   C38   A    
C12   H12   S    
C2    O2    A    
C17   H15   S    
