data_mof_unit_55408.cif
_audit_creation_date              2012-12-11T16:08:30-0500
_audit_creation_method            fapswitch 2.2
_symmetry_space_group_name_H-M    P1
_symmetry_Int_Tables_number       1
_space_group_crystal_system       triclinic
_cell_length_a                    12.948313
_cell_length_b                    13.276353
_cell_length_c                    27.765364
_cell_angle_alpha                 94.618802
_cell_angle_beta                  89.974839
_cell_angle_gamma                 119.062272
_cell_volume                      4154.43163127

loop_
_atom_site_label
_atom_site_type_symbol
_atom_type_description
_atom_site_fract_x
_atom_site_fract_y
_atom_site_fract_z
_atom_type_partial_charge
Br1   Br    Br    0.777887 0.045245 0.110367 -0.432107
Br2   Br    Br    0.517951 0.627081 0.391246 -0.475245
Br3   Br    Br    0.606627 0.002894 0.831776 -0.534141
Br4   Br    Br    0.003140 0.457461 0.199275 -0.455342
C1    C     C_R   0.627648 0.897274 0.426903 0.573226
C2    C     C_R   0.115129 0.730811 0.306966 -0.008693
C3    C     C_R   0.092418 0.709381 0.205723 -0.005333
C4    C     C_R   0.601073 0.222134 0.440546 0.552662
C5    C     C_R   0.058537 0.610528 0.230863 0.138099
C6    C     C_R   0.067493 0.621660 0.281008 -0.062649
C7    C     C_R   0.080228 0.699819 0.155848 -0.145573
C8    C     C_R   0.106210 0.796069 0.130424 0.007003
C9    C     C_R   0.225140 0.952807 0.356378 -0.164623
C10   C     C_R   0.200112 0.940850 0.307046 0.004536
C11   C     C_R   0.149714 0.830267 0.281721 0.018530
C12   C     C_R   0.622914 0.237825 0.219023 -0.074800
C13   C     C_R   0.232808 0.038974 0.282304 -0.127395
C14   C     C_R   0.217593 0.028462 0.232248 -0.086480
C15   C     C_R   0.170414 0.919399 0.205842 0.032685
C16   C     C_R   0.267009 0.875989 0.426544 0.574608
C17   C     C_R   0.136785 0.819606 0.231063 0.000410
C18   C     C_R   0.154491 0.907154 0.155061 0.214656
C19   C     C_R   0.201820 0.855877 0.380723 0.015758
C20   C     C_R   0.710889 0.967476 0.350408 -0.131070
C21   C     C_R   0.712925 0.955341 0.300535 -0.001415
C22   C     C_R   0.710038 0.928859 0.199228 -0.018385
C23   C     C_R   0.611635 0.220399 0.268169 -0.078950
C24   C     C_R   0.766484 0.039507 0.224129 -0.063086
C25   C     C_R   0.770685 0.053252 0.274281 0.215815
C26   C     C_R   0.715349 0.914046 0.148806 0.152280
C27   C     C_R   0.674386 0.801660 0.126367 0.017018
C28   C     C_R   0.626599 0.898998 0.565207 0.549308
C29   C     C_R   0.592862 0.758745 0.353486 0.141468
C30   C     C_R   0.595327 0.744226 0.302721 0.034231
C31   C     C_R   0.653328 0.843286 0.276340 0.000425
C32   C     C_R   0.539903 0.633562 0.277436 -0.091323
C33   C     C_R   0.542266 0.620884 0.227354 -0.124970
C34   C     C_R   0.662563 0.315222 0.303358 0.070971
C35   C     C_R   0.599033 0.718295 0.201466 0.009749
C36   C     C_R   0.653438 0.830238 0.225655 0.023746
C37   C     C_R   0.609270 0.704837 0.152012 -0.154165
C38   C     C_R   0.647923 0.871470 0.376817 0.003400
C39   C     C_R   0.734940 0.294732 0.653622 -0.136054
C40   C     C_R   0.600452 0.223181 0.579439 0.549047
C41   C     C_R   0.747711 0.311956 0.704195 0.006660
C42   C     C_R   0.770224 0.345626 0.805739 0.025199
C43   C     C_R   0.866462 0.357756 0.778609 -0.120428
C44   C     C_R   0.854950 0.340015 0.728136 -0.129855
C45   C     C_R   0.684288 0.350317 0.204865 0.062442
C46   C     C_R   0.783282 0.373050 0.855791 -0.108288
C47   C     C_R   0.688328 0.369045 0.881797 0.010000
C48   C     C_R   0.533063 0.260859 0.658046 -0.130942
C49   C     C_R   0.542635 0.272572 0.708084 -0.000881
C50   C     C_R   0.650312 0.298606 0.731427 0.058782
C51   C     C_R   0.444916 0.255855 0.735027 -0.141630
C52   C     C_R   0.272231 0.879616 0.563585 0.549545
C53   C     C_R   0.454587 0.267800 0.785256 -0.134159
C54   C     C_R   0.562681 0.298716 0.808914 0.019136
C55   C     C_R   0.660735 0.312842 0.782059 0.071417
C56   C     C_1   0.693623 0.370260 0.154480 -0.004536
C57   C     C_R   0.576469 0.323865 0.858774 -0.109130
C58   C     C_R   0.626991 0.267563 0.630492 -0.003194
C59   C     C_1   0.225218 0.863999 0.610802 -0.005134
C60   C     C_R   0.072290 0.763857 0.719514 -0.101477
C61   C     C_R   0.056511 0.754170 0.769059 -0.106523
C62   C     C_R   0.253117 0.917435 0.786688 -0.087734
C63   C     C_R   0.268948 0.927035 0.737077 -0.102002
C64   C     C_1   0.632406 0.268816 0.394662 0.028292
C65   C     C_R   0.178654 0.850092 0.703406 0.033109
C66   C     C_R   0.147018 0.830445 0.802739 0.035139
C67   C     C_1   0.649644 0.295126 0.353714 0.001507
C68   C     C_1   0.128871 0.817488 0.853493 -0.043489
C69   C     C_1   0.199045 0.856138 0.652519 -0.055069
C70   C     C_1   0.103456 0.799167 0.894842 0.003535
C71   C     C_1   0.639610 0.867585 0.612152 -0.000684
C72   C     C_R   0.627584 0.908851 0.738015 -0.075382
C73   C     C_R   0.630174 0.897701 0.787677 0.182702
C74   C     C_R   0.669096 0.737195 0.770272 -0.141617
C75   C     C_R   0.666557 0.748832 0.720743 -0.113279
C76   C     C_R   0.724179 0.427730 0.289210 -0.072226
C77   C     C_R   0.646577 0.835183 0.704533 0.006569
C78   C     C_1   0.703115 0.395868 0.113416 0.029545
C79   C     C_R   0.651494 0.811559 0.803974 0.049808
C80   C     C_1   0.664237 0.802390 0.854803 0.005535
C81   C     C_1   0.644692 0.849392 0.653710 -0.049015
C82   C     C_1   0.682670 0.792360 0.896260 0.024165
C83   C     C_R   0.061982 0.770402 0.079965 0.580893
C84   C     C_R   0.716858 0.441249 0.067306 0.555119
C85   C     C_R   0.718574 0.782670 0.080185 0.569901
C86   C     C_R   0.057157 0.766604 0.941384 0.550489
C87   C     C_R   0.710331 0.432869 0.929499 0.548738
C88   C     C_R   0.734448 0.445209 0.240046 -0.087896
C89   C     C_R   0.136394 0.743744 0.357245 0.223265
C90   C     C_R   0.716397 0.776634 0.943115 0.551088
Cl1   Cl    Cl    0.853396 0.195499 0.302361 -0.567672
Cl2   Cl    Cl    0.083976 0.620973 0.390756 -0.545353
Cl3   Cl    Cl    0.195768 0.029219 0.122214 -0.567482
Cr1   Cr    Cr6+3 0.416430 0.829200 0.492370 1.124157
Cr2   Cr    Cr6+3 0.674630 0.087020 0.504170 1.057602
Cr3   Cr    Cr6+3 0.408920 0.083740 0.503490 1.041099
Cr4   Cr    Cr6+3 0.914010 0.832750 0.013970 1.131474
Cr5   Cr    Cr6+3 0.922310 0.578600 0.003000 1.061099
Cr6   Cr    Cr6+3 0.656280 0.574630 0.003870 1.047596
H1    H     H_    0.763642 0.501621 0.316033 0.141867
H2    H     H_    0.781538 0.532703 0.229434 0.119893
H3    H     H_    0.869581 0.406414 0.873668 0.136467
H4    H     H_    0.807116 0.298912 0.632484 0.130488
H5    H     H_    0.951044 0.382732 0.796372 0.121507
H6    H     H_    0.930337 0.350055 0.707823 0.119210
H7    H     H_    0.502446 0.318373 0.878968 0.138405
H8    H     H_    0.378715 0.256436 0.805549 0.119542
H9    H     H_    0.361171 0.233876 0.717243 0.118466
H10   H     H_    0.448661 0.238614 0.640760 0.143612
H11   H     H_    0.002379 0.703363 0.693861 0.116025
H12   H     H_    0.244358 0.106683 0.214646 0.187805
H13   H     H_    0.583340 0.163931 0.192203 0.140275
H14   H     H_    0.974040 0.686561 0.781119 0.109978
H15   H     H_    0.323599 0.976920 0.812350 0.154195
H16   H     H_    0.352096 0.993374 0.724947 0.127601
H17   H     H_    0.611707 0.975678 0.725576 0.138966
H18   H     H_    0.686615 0.671118 0.782376 0.113944
H19   H     H_    0.681083 0.691274 0.695226 0.124788
H20   H     H_    0.563564 0.132944 0.278765 0.118308
H21   H     H_    0.042250 0.614692 0.136624 0.200404
H22   H     H_    0.041379 0.544180 0.299084 0.229455
H23   H     H_    0.272102 0.124398 0.301649 0.132860
H24   H     H_    0.272610 0.039196 0.374843 0.148573
H25   H     H_    0.752074 0.053728 0.368822 0.206647
H26   H     H_    0.812267 0.116519 0.205262 0.220558
H27   H     H_    0.575207 0.618086 0.134356 0.146409
H28   H     H_    0.500952 0.534458 0.208865 0.130538
H29   H     H_    0.494920 0.555733 0.295830 0.175833
O1    O     O_R   0.296680 0.802170 0.437540 -0.432953
O2    O     O_R   0.637200 0.461990 0.052510 -0.504732
O3    O     O_R   0.664790 0.681920 0.057970 -0.517636
O4    O     O_R   0.525380 0.838530 0.443500 -0.449829
O5    O     O_R   0.815840 0.852920 0.961840 -0.487136
O6    O     O_R   0.012100 0.822630 0.963670 -0.488660
O7    O     O_R   0.037010 0.668460 0.953040 -0.506783
O8    O     O_R   0.813390 0.478970 0.949660 -0.501330
O9    O     O_R   0.632250 0.456930 0.945520 -0.513556
O10   O     O_R   0.660200 0.677230 0.958780 -0.499645
O11   O     O_3   0.830870 0.661990 0.006950 -0.280384
O12   O     O_R   0.662610 0.183990 0.557860 -0.498611
O13   O     O_R   0.702130 0.995190 0.446810 -0.520996
O14   O     O_R   0.661770 0.181390 0.458760 -0.484732
O15   O     O_R   0.499820 0.198480 0.455280 -0.504461
O16   O     O_R   0.311660 0.976250 0.449080 -0.521152
O17   O     O_R   0.297580 0.804960 0.544440 -0.491181
O18   O     O_R   0.526220 0.841130 0.542590 -0.487697
O19   O     O_R   0.703030 0.997990 0.553710 -0.505807
O20   O     O_R   0.500730 0.201280 0.562180 -0.515917
O21   O     O_R   0.312500 0.978850 0.548170 -0.500789
O22   O     O_3   0.499990 0.999990 0.500010 -0.276938
O23   O     O_R   0.820790 0.857990 0.068830 -0.442464
O24   O     O_R   0.016700 0.827330 0.062850 -0.439143
O25   O     O_R   0.041970 0.673520 0.060040 -0.524134
O26   O     O_R   0.817980 0.483660 0.048840 -0.484316

loop_
_geom_bond_atom_site_label_1
_geom_bond_atom_site_label_2
_ccdc_geom_bond_type
Cr3   O21   S    
C1    O4    A    
C1    C38   S    
Cr1   O22   S    
Cr4   O23   S    
C85   O3    A    
C8    C18   A    
C51   H9    S    
C20   C38   A    
C7    H21   S    
C47   C57   A    
Cr5   O26   S    
C28   C71   S    
C86   O7    A    
C35   C37   A    
C62   C66   A    
C48   H10   S    
Cr3   O20   S    
C3    C7    A    
Cr1   O1    S    
C72   H17   S    
C45   C56   S    
C76   H1    S    
C29   C38   A    
C32   C33   A    
C15   C17   A    
Cr6   O2    S    
C80   C82   T    
C24   H26   S    
C72   C77   A    
C32   H29   S    
C26   C27   A    
C42   C55   A    
C13   H23   S    
C85   O23   A    
C73   C79   A    
C23   C34   A    
C61   C66   A    
Cr2   O22   S    
Cr1   O4    S    
C9    C19   A    
C30   C31   A    
C74   H18   S    
Cr6   O3    S    
C82   C90   S    
C47   C87   S    
C2    C11   A    
C42   C43   A    
C56   C78   T    
C74   C79   A    
C71   C81   T    
C43   C44   A    
C27   C85   S    
C16   O16   A    
C65   C69   S    
Cr6   O9    S    
C84   O26   A    
C16   O1    A    
C6    H22   S    
C5    C6    A    
C54   C57   A    
C44   H6    S    
Cr2   O13   S    
C46   H3    S    
C18   Cl3   S    
C9    C10   A    
C10   C13   A    
C57   H7    S    
C12   H13   S    
Cr5   O25   S    
C86   O6    A    
C29   C30   A    
C50   C55   A    
C49   C51   A    
C21   C25   A    
C75   H19   S    
C1    O13   A    
C90   O10   A    
C7    C8    A    
Cr2   O12   S    
C15   C18   A    
C60   H11   S    
C72   C73   A    
C68   C70   T    
C35   C36   A    
C75   C77   A    
C23   H20   S    
C74   C75   A    
C14   C15   A    
Cr5   O8    S    
C59   C69   T    
Cr4   O24   S    
C40   C58   S    
C54   C55   A    
C49   C50   A    
Cr2   O19   S    
C83   O25   A    
C63   C65   A    
C76   C88   A    
C79   C80   S    
C16   C19   S    
C40   O12   A    
C2    C89   A    
C12   C23   A    
C13   C14   A    
C52   C59   S    
C46   C47   A    
C39   H4    S    
C60   C65   A    
C20   C21   A    
C39   C41   A    
C21   C31   A    
Br2   C29   S    
Cr2   O14   S    
C41   C50   A    
C22   C26   A    
C89   Cl2   S    
C51   C53   A    
C19   C89   A    
C4    O15   A    
Cr5   O11   S    
C45   C88   A    
Br3   C73   S    
Cr6   O10   S    
C12   C45   A    
C48   C49   A    
C25   Cl1   S    
Cr1   O18   S    
C41   C44   A    
Cr3   O22   S    
C3    C5    A    
C34   C67   S    
C24   C25   A    
Cr4   O5    S    
C27   C37   A    
C8    C83   S    
C83   O24   A    
C4    O14   A    
C52   O21   A    
Cr6   O11   S    
C14   H12   S    
C2    C6    A    
Cr4   O6    S    
C4    C64   S    
C42   C46   A    
C22   C24   A    
C40   O20   A    
C37   H27   S    
C60   C61   A    
C70   C86   S    
C31   C36   A    
C52   O17   A    
C84   O2    A    
C33   C35   A    
C48   C58   A    
C3    C17   A    
Cr4   O11   S    
C22   C36   A    
C53   C54   A    
C53   H8    S    
C28   O19   A    
C34   C76   A    
Cr3   O16   S    
C64   C67   T    
C78   C84   S    
Br1   C26   S    
C62   C63   A    
C30   C32   A    
Cr5   O7    S    
C87   O8    A    
C9    H24   S    
C33   H28   S    
C88   H2    S    
C11   C17   A    
C28   O18   A    
C43   H5    S    
C62   H15   S    
C20   H25   S    
C90   O5    A    
C61   H14   S    
C10   C11   A    
C66   C68   S    
Cr3   O15   S    
Br4   C5    S    
C63   H16   S    
C77   C81   S    
C39   C58   A    
C87   O9    A    
Cr1   O17   S    
