data_mof_unit_53228.cif
_audit_creation_date              2012-12-10T19:47:23-0500
_audit_creation_method            fapswitch 2.2
_symmetry_space_group_name_H-M    P1
_symmetry_Int_Tables_number       1
_space_group_crystal_system       triclinic
_cell_length_a                    10.926349
_cell_length_b                    10.894986
_cell_length_c                    12.702425
_cell_angle_alpha                 91.322418
_cell_angle_beta                  91.428902
_cell_angle_gamma                 90.363186
_cell_volume                      1511.21840298

loop_
_atom_site_label
_atom_site_type_symbol
_atom_type_description
_atom_site_fract_x
_atom_site_fract_y
_atom_site_fract_z
_atom_type_partial_charge
C1    C     C_R   0.261947 0.495825 0.501941 0.823784
C2    C     C_R   0.738055 0.504171 0.498060 0.823774
C3    C     C_R   0.496539 0.871695 0.495822 -0.086466
C4    C     C_R   0.503430 0.128304 0.504177 -0.086437
C5    C     C_R   0.493373 0.937517 0.401495 -0.016475
C6    C     C_R   0.506583 0.062481 0.598504 -0.016487
C7    C     C_R   0.169590 0.506690 0.874413 0.207154
C8    C     C_R   0.830398 0.493119 0.125584 0.207200
C9    C     C_R   0.122107 0.481023 0.772995 -0.222743
C10   C     C_R   0.877933 0.518824 0.226980 -0.222784
C11   C     C_R   0.127309 0.569532 0.694617 0.082428
C12   C     C_R   0.872691 0.430378 0.305407 0.082388
C13   C     C_R   0.182943 0.684837 0.718006 0.215272
C14   C     C_R   0.816988 0.315090 0.282085 0.215315
C15   C     C_R   0.232911 0.708541 0.819104 -0.180306
C16   C     C_R   0.766959 0.291356 0.181013 -0.180264
C17   C     C_R   0.225461 0.620194 0.896881 -0.166784
C18   C     C_R   0.774434 0.379646 0.103192 -0.166769
C19   C     C_R   0.937809 0.551863 0.585771 0.103889
C20   C     C_R   0.062197 0.448093 0.414245 0.103873
C21   C     C_R   0.871939 0.507007 0.495721 -0.120192
C22   C     C_R   0.128065 0.492970 0.504286 -0.120165
C23   C     C_R   0.501754 0.261900 0.501924 0.783368
C24   C     C_R   0.498235 0.738099 0.498076 0.783355
C25   C     C_R   0.934841 0.459037 0.408229 -0.093242
C26   C     C_R   0.065165 0.540923 0.591783 -0.093273
C27   C     C_2   0.466969 0.464499 0.031838 -0.276189
C28   C     C_2   0.533040 0.535500 0.968162 -0.276122
C29   C     C_1   0.524732 0.525487 0.852603 0.238363
C30   C     C_1   0.475272 0.474513 0.147397 0.238347
C31   C     C_R   0.651875 0.199100 0.846776 -0.141535
C32   C     C_R   0.348031 0.800820 0.153272 -0.141528
C33   C     C_R   0.634582 0.162485 0.741339 -0.098315
C34   C     C_R   0.365346 0.837474 0.258697 -0.098301
C35   C     C_R   0.519618 0.119404 0.704705 0.139659
C36   C     C_R   0.480309 0.880590 0.295296 0.139644
C37   C     C_R   0.421895 0.114679 0.774254 -0.150249
C38   C     C_R   0.578005 0.885318 0.225723 -0.150262
C39   C     C_R   0.439437 0.151888 0.879573 -0.152478
C40   C     C_R   0.560442 0.848071 0.120416 -0.152458
C41   C     C_R   0.554666 0.192674 0.916066 -0.117905
C42   C     C_R   0.445215 0.807244 0.083959 -0.117911
C43   C     C_R   0.502194 0.935420 0.592948 -0.210969
C44   C     C_R   0.497769 0.064578 0.407050 -0.210930
Cu1   Cu    Cu3+1 0.492140 0.492110 0.395880 0.991447
Cu2   Cu    Cu3+1 0.507860 0.507890 0.604120 0.991440
H1    H     H_    0.568489 0.218348 0.998235 0.124156
H2    H     H_    0.431374 0.781533 0.001800 0.124182
H3    H     H_    0.276120 0.796325 0.837919 0.142996
H4    H     H_    0.723687 0.203592 0.162252 0.142978
H5    H     H_    0.594756 0.604192 0.002893 0.180290
H6    H     H_    0.405253 0.395806 0.997107 0.180317
H7    H     H_    0.741393 0.229833 0.874905 0.117280
H8    H     H_    0.258516 0.770053 0.125169 0.117265
H9    H     H_    0.711360 0.164152 0.689032 0.109970
H10   H     H_    0.288588 0.835801 0.311023 0.109955
H11   H     H_    0.333346 0.079260 0.747470 0.131463
H12   H     H_    0.666553 0.920761 0.252480 0.131455
H13   H     H_    0.364400 0.146842 0.933380 0.124754
H14   H     H_    0.635460 0.853113 0.066590 0.124759
H15   H     H_    0.505310 0.886258 0.666265 0.172104
H16   H     H_    0.494650 0.113741 0.333733 0.172085
H17   H     H_    0.262446 0.639779 0.975017 0.150960
H18   H     H_    0.737403 0.360039 0.025075 0.150965
H19   H     H_    0.077916 0.393189 0.755946 0.132159
H20   H     H_    0.922186 0.606638 0.243973 0.132165
N1    N     N_1   0.480320 0.480250 0.239400 -0.152127
N2    N     N_1   0.519680 0.519750 0.760600 -0.152131
O1    O     O_R   0.313000 0.493330 0.412070 -0.547841
O2    O     O_R   0.687000 0.506670 0.587930 -0.547824
O3    O     O_R   0.326280 0.506660 0.587930 -0.582977
O4    O     O_R   0.673720 0.493340 0.412070 -0.582956
O5    O     O_R   0.493370 0.312980 0.412070 -0.580925
O6    O     O_R   0.506630 0.687020 0.587930 -0.580940
O7    O     O_R   0.506650 0.326310 0.587930 -0.576130
O8    O     O_R   0.493350 0.673690 0.412070 -0.576115
N3    N     N_3   0.188299 0.778964 0.641303 -0.610603
H21   H     H_    0.235722 0.745192 0.576514 0.212537
H22   H     H_    0.099051 0.798816 0.615929 0.205869
N4    N     N_3   0.811631 0.221008 0.358826 -0.610592
H23   H     H_    0.764273 0.254839 0.423628 0.212508
H24   H     H_    0.900883 0.201119 0.384163 0.205862
N5    N     N_3   0.874728 0.612665 0.670265 -0.557680
H25   H     H_    0.886610 0.563044 0.739173 0.233339
H26   H     H_    0.911280 0.700875 0.682466 0.209980
N6    N     N_3   0.125278 0.387238 0.329782 -0.557722
H27   H     H_    0.113399 0.436806 0.260853 0.233347
H28   H     H_    0.088721 0.299027 0.317630 0.209977
N7    N     N_3   0.158934 0.418863 0.955692 -0.618180
H29   H     H_    0.199065 0.337159 0.929587 0.206668
H30   H     H_    0.065819 0.401074 0.965536 0.220349
N8    N     N_3   0.841099 0.580873 0.044251 -0.618144
H31   H     H_    0.934232 0.598538 0.034342 0.220376
H32   H     H_    0.801083 0.662651 0.070336 0.206658

loop_
_geom_bond_atom_site_label_1
_geom_bond_atom_site_label_2
_ccdc_geom_bond_type
C33   H9    S    
C34   H10   S    
C40   H14   S    
C24   O6    A    
C39   C41   A    
N3    H21   S    
C3    C43   A    
C1    O3    A    
C10   H20   S    
Cu1   O8    S    
C28   C29   S    
C19   C21   A    
C16   H4    S    
C28   H5    S    
C19   N5    S    
C20   C25   A    
C7    N7    S    
C5    C36   S    
C6    C35   S    
Cu1   O5    S    
C19   C26   A    
C38   H12   S    
C7    C17   A    
C20   N6    S    
Cu1   N1    S    
C31   C33   A    
C8    N8    S    
C14   N4    S    
N7    H30   S    
C34   C36   A    
C30   N1    T    
C40   C42   A    
C1    C22   S    
Cu1   O4    S    
C3    C24   S    
C23   O5    A    
C2    O4    A    
C32   H8    S    
Cu2   O7    S    
C9    H19   S    
N3    H22   S    
C13   N3    S    
Cu1   O1    S    
N4    H24   S    
C23   O7    A    
C4    C23   S    
N6    H27   S    
C24   O8    A    
C4    C44   A    
C11   C26   S    
C44   H16   S    
Cu1   Cu2   S    
C8    C18   A    
C32   C34   A    
Cu2   N2    S    
C29   N2    T    
N5    H25   S    
C39   H13   S    
C2    C21   S    
N8    H32   S    
C41   H1    S    
C16   C18   A    
C42   H2    S    
C31   H7    S    
C9    C11   A    
Cu2   O3    S    
C10   C12   A    
C4    C6    A    
N5    H26   S    
C5    C44   A    
C20   C22   A    
C6    C43   A    
C13   C15   A    
C14   C16   A    
Cu2   O6    S    
C27   H6    S    
C43   H15   S    
C15   C17   A    
C21   C25   A    
C31   C41   A    
C35   C37   A    
C12   C14   A    
N4    H23   S    
C3    C5    A    
C12   C25   S    
C36   C38   A    
C37   C39   A    
C17   H17   S    
C38   C40   A    
C11   C13   A    
C18   H18   S    
N8    H31   S    
C33   C35   A    
N6    H28   S    
C15   H3    S    
C1    O1    A    
Cu2   O2    S    
C7    C9    A    
C8    C10   A    
C22   C26   A    
C27   C28   D    
C32   C42   A    
N7    H29   S    
C2    O2    A    
C37   H11   S    
C27   C30   S    
