data_mof_unit_15159.cif
_audit_creation_date              2012-12-11T15:09:34-0500
_audit_creation_method            fapswitch 2.2
_symmetry_space_group_name_H-M    P1
_symmetry_Int_Tables_number       1
_space_group_crystal_system       triclinic
_cell_length_a                    20.939905
_cell_length_b                    7.129258
_cell_length_c                    14.017994
_cell_angle_alpha                 89.999965
_cell_angle_beta                  98.172181
_cell_angle_gamma                 90.000074
_cell_volume                      2071.43954246

loop_
_atom_site_label
_atom_site_type_symbol
_atom_type_description
_atom_site_fract_x
_atom_site_fract_y
_atom_site_fract_z
_atom_type_partial_charge
O1    O     O_R   0.447130 0.507140 0.597350 -0.526042
O2    O     O_R   0.552870 0.007140 0.402650 -0.526043
O3    O     O_R   0.578910 0.181280 0.586990 -0.536373
O4    O     O_R   0.421090 0.681280 0.413010 -0.536373
C1    C     C_R   0.604501 0.344482 0.607357 0.735630
C2    C     C_R   0.395499 0.844482 0.392643 0.735631
O5    O     O_R   0.449230 0.177860 0.608640 -0.544842
O6    O     O_R   0.550770 0.677860 0.391360 -0.544841
O7    O     O_R   0.422260 0.000770 0.424450 -0.535582
O8    O     O_R   0.577740 0.500770 0.575550 -0.535582
C3    C     C_R   0.433053 0.346013 0.634828 0.811473
C4    C     C_R   0.566947 0.846013 0.365172 0.811473
O9    O     O_3   0.491310 0.336980 0.439550 -0.382196
O10   O     O_3   0.508690 0.836980 0.560450 -0.382196
V1    V     V_3+5 0.501610 0.064760 0.511210 1.564235
V2    V     V_3+5 0.498390 0.564760 0.488790 1.564237
C5    C     C_R   0.615094 0.800961 0.119231 0.688910
C6    C     C_R   0.384905 0.300947 0.880768 0.688910
H1    H     H_    0.525694 0.789371 0.177064 0.178730
H2    H     H_    0.474305 0.289355 0.822935 0.178730
H3    H     H_    0.696674 0.813936 0.991484 0.208799
H4    H     H_    0.303325 0.313919 0.008514 0.208799
C7    C     C_R   0.605953 0.850234 0.287003 -0.261714
C8    C     C_R   0.394047 0.350233 0.712997 -0.261713
C9    C     C_R   0.916459 0.844180 0.300594 -0.320458
C10   C     C_R   0.083541 0.344190 0.699405 -0.320459
C11   C     C_R   0.880291 0.798273 0.372600 0.677981
C12   C     C_R   0.119709 0.298288 0.627399 0.677981
C13   C     C_R   0.813614 0.776801 0.351340 0.383637
C14   C     C_R   0.186385 0.276813 0.648658 0.383637
C15   C     C_R   0.781243 0.822819 0.257809 -0.086048
C16   C     C_R   0.218756 0.322823 0.742190 -0.086048
C17   C     C_R   0.818961 0.844623 0.180845 -0.052196
C18   C     C_R   0.181038 0.344623 0.819154 -0.052196
C19   C     C_R   0.712688 0.834751 0.236900 -0.062705
C20   C     C_R   0.287312 0.334752 0.763099 -0.062705
C21   C     C_R   0.682593 0.816929 0.140263 -0.146958
C22   C     C_R   0.317406 0.316920 0.859736 -0.146957
C23   C     C_R   0.719842 0.821097 0.065667 -0.105950
C24   C     C_R   0.280158 0.321086 0.934333 -0.105950
C25   C     C_R   0.786364 0.845908 0.083961 0.333614
C26   C     C_R   0.213636 0.345901 0.916039 0.333614
C27   C     C_R   0.672786 0.873310 0.307904 0.650019
C28   C     C_R   0.327214 0.373315 0.692097 0.650018
C29   C     C_R   0.577398 0.809512 0.193211 -0.310576
C30   C     C_R   0.422602 0.309500 0.806788 -0.310575
C31   C     C_R   0.887403 0.857881 0.204839 -0.175769
C32   C     C_R   0.112597 0.357883 0.795161 -0.175771
H5    H     H_    0.968457 0.854093 0.318543 0.181681
H6    H     H_    0.031543 0.354105 0.681457 0.181682
C33   C     C_1   0.166601 0.857207 0.168275 -0.072436
C34   C     C_1   0.833399 0.357206 0.831725 -0.072436
C35   C     C_1   0.218994 0.854958 0.219403 0.087143
C36   C     C_1   0.781006 0.354958 0.780597 0.087142
C37   C     C_1   0.280726 0.853483 0.279475 0.079574
C38   C     C_1   0.719274 0.353484 0.720525 0.079573
C39   C     C_1   0.333086 0.851113 0.330706 -0.105600
C40   C     C_1   0.666914 0.351113 0.669293 -0.105599
O11   O     O_R   0.922300 0.202240 0.924350 -0.516327
O12   O     O_R   0.077700 0.702240 0.075650 -0.516328
O13   O     O_R   0.050780 0.535130 0.891350 -0.535073
O14   O     O_R   0.949220 0.035130 0.108650 -0.535072
C41   C     C_R   0.068860 0.368215 0.867242 0.829604
C42   C     C_R   0.931140 0.868215 0.132758 0.829604
O15   O     O_R   0.921100 0.531560 0.912990 -0.522574
O16   O     O_R   0.078900 0.031560 0.087010 -0.522572
O17   O     O_R   0.947120 0.708470 0.097370 -0.534945
O18   O     O_R   0.052880 0.208470 0.902630 -0.534945
C43   C     C_R   0.895871 0.363580 0.893479 0.721717
C44   C     C_R   0.104129 0.863581 0.106521 0.721716
O19   O     O_3   0.008710 0.375800 0.060400 -0.367519
O20   O     O_3   0.991290 0.875800 0.939600 -0.367519
V3    V     V_3+5 0.998380 0.648080 0.988790 1.608007
V4    V     V_3+5 0.001620 0.148080 0.011210 1.608009
F1    F     F_    0.585676 0.774537 0.027440 -0.655003
F2    F     F_    0.414323 0.274512 0.972558 -0.655003
F3    F     F_    0.697453 0.946546 0.394863 -0.635373
F4    F     F_    0.302548 0.446558 0.605139 -0.635373
Cl1   Cl    Cl    0.776749 0.646445 0.436178 -0.486362
Cl2   Cl    Cl    0.223250 0.146462 0.563818 -0.486361
F5    F     F_    0.911081 0.761377 0.462526 -0.597278
F6    F     F_    0.088919 0.261400 0.537472 -0.597278
Cl3   Cl    Cl    0.823102 0.873388 0.978970 -0.664860
Cl4   Cl    Cl    0.176898 0.373380 0.021030 -0.664860

loop_
_geom_bond_atom_site_label_1
_geom_bond_atom_site_label_2
_ccdc_geom_bond_type
C14   C16   A    
C7    C29   A    
C11   C13   A    
C3    C8    S    
O1    C3    A    
O2    C4    A    
C2    O7    A    
O15   V3    S    
C23   C25   A    
O5    C3    A    
C4    C7    S    
C1    C40   S    
C16   C20   A    
C19   C21   A    
C5    C29   A    
C10   H6    S    
O15   C43   A    
O18   V4    S    
O16   V4    S    
O12   V3    S    
C7    C27   A    
O13   C41   A    
O14   C42   A    
C34   C43   S    
C38   C40   T    
C18   C26   A    
H3    C23   S    
C15   C17   A    
O17   V3    S    
C33   C44   S    
C19   C27   A    
C9    C31   A    
C10   C32   A    
C14   Cl2   S    
C24   C26   A    
O6    V2    S    
C2    C39   S    
C6    C30   A    
C34   C36   T    
C35   C37   S    
C36   C38   S    
C12   F6    S    
C42   O17   A    
C11   F5    S    
C26   Cl4   S    
O20   V4    S    
C31   C42   S    
O19   V3    S    
C32   C41   S    
O5    V1    S    
O13   V3    S    
C33   C35   T    
C16   C18   A    
O4    V2    S    
C13   Cl1   S    
O12   C44   A    
O6    C4    A    
H4    C24   S    
O1    V2    S    
C5    C21   A    
O2    V1    S    
O11   V4    S    
O11   C43   A    
O4    C2    A    
C37   C39   T    
C17   C31   A    
C15   C19   A    
C20   C28   A    
C9    C11   A    
O3    V1    S    
C41   O18   A    
C6    F2    S    
O20   V3    S    
O3    C1    A    
O19   V4    S    
H1    C29   S    
C27   F3    S    
C10   C12   A    
C17   C25   A    
C28   F4    S    
C6    C22   A    
C8    C30   A    
C1    O8    A    
C21   C23   A    
O8    V2    S    
C22   C24   A    
O16   C44   A    
C8    C28   A    
C20   C22   A    
C12   C14   A    
O7    V1    S    
C9    H5    S    
C18   C32   A    
C13   C15   A    
O9    V2    S    
C5    F1    S    
O10   V1    S    
O14   V4    S    
H2    C30   S    
C25   Cl3   S    
