data_mof_unit_51059.cif
_audit_creation_date              2013-03-05T16:35:53-0500
_audit_creation_method            fapswitch 2.2
_symmetry_space_group_name_H-M    P1
_symmetry_Int_Tables_number       1
_space_group_crystal_system       triclinic
_cell_length_a                    23.574251
_cell_length_b                    9.089865
_cell_length_c                    7.77687
_cell_angle_alpha                 90.093703
_cell_angle_beta                  89.884845
_cell_angle_gamma                 90.176253
_cell_volume                      1666.46680546

loop_
_atom_site_label
_atom_site_type_symbol
_atom_site_description
_atom_site_fract_x
_atom_site_fract_y
_atom_site_fract_z
_atom_type_partial_charge
O1    O     O_R   0.500000 0.288390 0.642760 -0.582033
O2    O     O_R   0.500000 0.711610 0.357240 -0.570799
O3    O     O_R   0.500000 0.711610 0.642760 -0.584451
O4    O     O_R   0.500000 0.288390 0.357240 -0.575046
C1    C     C_R   0.500014 0.219993 0.499919 0.827308
C2    C     C_R   0.500038 0.780009 0.500087 0.841868
O5    O     O_R   0.417880 0.500000 0.642820 -0.578105
O6    O     O_R   0.582120 0.500000 0.357180 -0.533724
O7    O     O_R   0.582120 0.500000 0.642820 -0.581688
O8    O     O_R   0.417880 0.500000 0.357180 -0.518340
C3    C     C_R   0.208065 0.495420 0.515563 0.201457
C4    C     C_R   0.790505 0.489498 0.512582 0.196583
C5    C     C_R   0.390495 0.503631 0.500317 0.829736
C6    C     C_R   0.609193 0.497108 0.499874 0.840399
Cu1   Cu    Cu3+1 0.500000 0.500000 0.669080 1.048002
Cu2   Cu    Cu3+1 0.500000 0.500000 0.330920 1.083967
C7    C     C_R   0.297757 0.554732 0.652094 0.314387
C8    C     C_R   0.700389 0.395256 0.616367 0.322121
C9    C     C_R   0.296313 0.461224 0.356483 0.366322
C10   C     C_R   0.702869 0.580256 0.387340 0.361395
C11   C     C_R   0.327564 0.508439 0.502164 -0.199592
C12   C     C_R   0.671514 0.489406 0.500178 -0.187433
C13   C     C_R   0.879158 0.609467 0.581663 0.628116
C14   C     C_R   0.119170 0.361868 0.489546 0.620888
C15   C     C_R   0.879696 0.365789 0.467750 0.585637
C16   C     C_R   0.118130 0.615994 0.565338 0.573101
N1    N     N_R   0.851330 0.488732 0.519783 -0.463799
N2    N     N_R   0.147018 0.490925 0.522888 -0.463353
C17   C     C_R   0.939139 0.356592 0.486110 -0.128204
C18   C     C_R   0.058860 0.612472 0.588898 -0.133754
C19   C     C_R   0.938974 0.611393 0.590950 -0.102488
C20   C     C_R   0.059234 0.356220 0.490606 -0.107214
C21   C     C_R   0.969059 0.483659 0.540130 -0.136460
C22   C     C_R   0.029014 0.483781 0.540750 -0.135777
C23   C     C_R   0.969427 0.225714 0.448003 0.298377
C24   C     C_R   0.028731 0.734990 0.655176 0.311929
C25   C     C_R   0.968932 0.736030 0.652312 0.427185
C26   C     C_R   0.029289 0.226517 0.445515 0.430635
C27   C     C_1   0.500044 0.065374 0.499895 -0.142532
C28   C     C_1   0.500049 0.934631 0.500127 -0.140648
C29   C     C_R   0.238953 0.541542 0.659091 -0.097624
C30   C     C_R   0.759425 0.398991 0.623144 -0.083048
C31   C     C_R   0.236712 0.457692 0.364174 -0.194573
C32   C     C_R   0.762440 0.578944 0.394336 -0.187001
N3    N     N_1   0.500000 0.500000 0.076820 -0.016065
N4    N     N_1   0.500000 0.500000 0.923180 -0.019732
O9    O     O_2   0.848637 0.726960 0.633147 -0.445864
O10   O     O_2   0.149696 0.239773 0.456108 -0.434058
O11   O     O_2   0.850228 0.255343 0.393351 -0.482050
O12   O     O_2   0.146751 0.744348 0.578383 -0.467614
O13   O     O_3   0.941795 0.094561 0.416475 -0.681962
H1    H     H_    0.913006 0.081813 0.508308 0.385012
O14   O     O_3   0.056451 0.852743 0.729600 -0.673201
H2    H     H_    0.085625 0.812280 0.807917 0.359551
O15   O     O_3   0.938820 0.855575 0.714302 -0.660842
H3    H     H_    0.964736 0.936747 0.746751 0.370367
O16   O     O_3   0.059460 0.101256 0.401765 -0.618387
H4    H     H_    0.033574 0.020550 0.367595 0.378679
H5    H     H_    0.216813 0.572747 0.775780 0.175173
H6    H     H_    0.781515 0.328634 0.713051 0.183831
H7    H     H_    0.212390 0.424190 0.252643 0.161740
H8    H     H_    0.787169 0.648044 0.308886 0.168697
O17   O     O_3   0.324180 0.615971 0.793145 -0.677006
H9    H     H_    0.354976 0.680929 0.750735 0.337218
O18   O     O_3   0.673025 0.296390 0.722881 -0.681572
H10   H     H_    0.635589 0.271436 0.673323 0.327234
O19   O     O_3   0.324508 0.417143 0.209190 -0.667456
H11   H     H_    0.296430 0.387740 0.120621 0.344097
O20   O     O_3   0.674535 0.671692 0.274877 -0.690284
H12   H     H_    0.702668 0.727754 0.206024 0.342768

loop_
_geom_bond_atom_site_label_1
_geom_bond_atom_site_label_2
_geom_bond_distance
_ccdc_geom_bond_type
Cu2   N3    1.976102 S    
O4    Cu2   1.934700 S    
C4    C30   1.396081 A    
O7    C6    1.281015 A    
C19   C21   1.417664 A    
C3    C31   1.398819 A    
O1    Cu1   1.934035 S    
C13   N1    1.364370 A    
C15   N1    1.364505 A    
C26   O16   1.385938 S    
O2    Cu2   1.934034 S    
C17   C23   1.419912 A    
C14   O10   1.349228 S    
C16   N2    1.366690 A    
C18   C24   1.418418 A    
O15   H3    0.989223 S    
O3    C2    1.272754 A    
C6    C12   1.471055 S    
O5    Cu1   1.947070 S    
C21   C22   1.413397 A    
O7    Cu1   1.946251 S    
C23   O13   1.378623 S    
C5    C11   1.484388 S    
C4    C32   1.397364 A    
O8    Cu2   1.946253 S    
N3    N4    1.194839 T    
C7    O17   1.378316 S    
C8    O18   1.380810 S    
C9    O19   1.382591 S    
C29   H5    1.083763 S    
O16   H4    0.989168 S    
O2    C2    1.272164 A    
C27   C28   1.188438 T    
C3    N2    1.440593 S    
O19   H11   0.992045 S    
O1    C1    1.272116 A    
C24   C25   1.410003 A    
C10   C32   1.405593 A    
C10   C12   1.412243 A    
C16   C18   1.409133 A    
C7    C29   1.392035 A    
C20   C26   1.416267 A    
C16   O12   1.349750 S    
C19   C25   1.415870 A    
C15   C17   1.411607 A    
O20   H12   0.991790 S    
C15   O11   1.349329 S    
C10   O20   1.382051 S    
C13   O9    1.349367 S    
C18   C22   1.413585 A    
C4    N1    1.435134 S    
O13   H1    0.990916 S    
C25   O15   1.385204 S    
C17   C21   1.415155 A    
O5    C5    1.284186 A    
C2    C28   1.405496 S    
O3    Cu1   1.934699 S    
C31   H7    1.083443 S    
C14   N2    1.367253 A    
O6    Cu2   1.947067 S    
O18   H10   0.989285 S    
C3    C29   1.397057 A    
C30   H6    1.083542 S    
C14   C20   1.413731 A    
C1    C27   1.405472 S    
C23   C26   1.411295 A    
O4    C1    1.272786 A    
O6    C6    1.281609 A    
C24   O14   1.379443 S    
Cu1   N4    1.976102 S    
C32   H8    1.083292 S    
C20   C22   1.416535 A    
C8    C12   1.421558 A    
C7    C11   1.423818 A    
C8    C30   1.393128 A    
Cu1   Cu2   2.629827 S    
O14   H2    0.991573 S    
C9    C31   1.406483 A    
O17   H9    0.990723 S    
C9    C11   1.417848 A    
O8    C5    1.286117 A    
C13   C19   1.412155 A    
