data_mof_unit_10895.cif
_audit_creation_date              2012-12-10T20:27:59-0500
_audit_creation_method            fapswitch 2.2
_symmetry_space_group_name_H-M    P1
_symmetry_Int_Tables_number       1
_space_group_crystal_system       triclinic
_cell_length_a                    12.897285
_cell_length_b                    10.630364
_cell_length_c                    9.852209
_cell_angle_alpha                 89.776186
_cell_angle_beta                  97.218635
_cell_angle_gamma                 90.879924
_cell_volume                      1339.89876524

loop_
_atom_site_label
_atom_site_type_symbol
_atom_type_description
_atom_site_fract_x
_atom_site_fract_y
_atom_site_fract_z
_atom_type_partial_charge
C1    C     C_R   0.514913 0.261721 0.502659 0.941647
C2    C     C_R   0.546310 0.936589 0.386766 -0.204370
C3    C     C_R   0.519254 0.873564 0.502541 -0.114334
C4    C     C_R   0.298158 0.502708 0.473173 0.918339
C5    C     C_R   0.521699 0.936844 0.626211 0.091984
C6    C     C_3   0.600423 0.920480 0.750188 -0.016166
C7    C     C_3   0.611318 0.061437 0.753077 -0.473820
C8    C     C_R   0.425816 0.432219 0.059753 0.207713
C9    C     C_R   0.566876 0.575344 0.082688 -0.086808
C10   C     C_R   0.566914 0.575262 0.938740 -0.079459
C11   C     C_R   0.424975 0.433409 0.916256 0.141825
C12   C     C_R   0.030076 0.498273 0.565658 0.131256
C13   C     C_3   0.408349 0.294422 0.906764 -0.353600
C14   C     C_3   0.412064 0.292278 0.062531 -0.364346
C15   C     C_R   0.504008 0.740567 0.500307 0.907395
C16   C     C_R   0.702067 0.498168 0.527438 0.929170
C17   C     C_R   0.814626 0.497853 0.545612 -0.093366
C18   C     C_R   0.186213 0.510761 0.457799 -0.066109
C19   C     C_R   0.020532 0.544125 0.321509 -0.170546
C20   C     C_R   0.128507 0.537080 0.331032 -0.160752
C21   C     C_R   0.136928 0.494739 0.574701 -0.234346
C22   C     C_2   0.306441 0.256904 0.823099 1.005055
C23   C     C_R   0.971213 0.523348 0.438488 0.171042
C24   C     C_2   0.314927 0.246587 0.119295 1.048227
C25   C     C_2   0.620391 0.124279 0.282867 0.918918
C26   C     C_R   0.864031 0.525588 0.430128 -0.246777
C27   C     C_R   0.873935 0.469976 0.672793 0.182056
C28   C     C_R   0.981745 0.473663 0.681847 -0.219191
C29   C     C_R   0.530525 0.066373 0.629328 0.136791
C30   C     C_R   0.542583 0.131195 0.508776 -0.178389
C31   C     C_R   0.566113 0.065405 0.392105 -0.044282
H1    H     H_    0.819241 0.547313 0.332354 0.178313
H2    H     H_    0.166567 0.552926 0.240429 0.204945
H3    H     H_    0.181578 0.477957 0.673406 0.197706
H4    H     H_    0.557879 0.884405 0.295727 0.205915
H5    H     H_    0.564074 0.881829 0.838342 0.166515
H6    H     H_    0.149598 0.270245 0.791213 0.342918
H7    H     H_    0.182442 0.288696 0.197154 0.347284
H8    H     H_    0.659550 0.112654 0.091445 0.348631
H9    H     H_    0.584869 0.101380 0.845945 0.194252
H10   H     H_    0.688995 0.098063 0.732066 0.237890
H11   H     H_    0.622376 0.634248 0.145970 0.151892
H12   H     H_    0.622565 0.633817 0.893310 0.178724
H13   H     H_    0.476467 0.248741 0.871728 0.171020
H14   H     H_    0.483194 0.247124 0.113536 0.174854
H15   H     H_    0.975817 0.563974 0.223308 0.166910
H16   H     H_    0.027791 0.453444 0.779005 0.190712
I1    I     I_    0.743876 0.831397 0.715772 -0.346683
I2    I     I_    0.813636 0.411809 0.855527 -0.349139
N1    N     N_R   0.499290 0.499140 0.142710 -0.117539
N2    N     N_R   0.499290 0.499180 0.857070 -0.117698
O1    O     O_R   0.500010 0.316790 0.614690 -0.610522
O2    O     O_R   0.211989 0.306760 0.851984 -0.810996
O3    O     O_2   0.298532 0.133483 0.128190 -0.608386
O4    O     O_R   0.244084 0.331963 0.161145 -0.777306
O5    O     O_2   0.672177 0.220978 0.305675 -0.609519
O6    O     O_R   0.617467 0.065098 0.155808 -0.824423
O7    O     O_R   0.500000 0.316760 0.385350 -0.615823
O8    O     O_R   0.346360 0.499990 0.595720 -0.626329
O9    O     O_R   0.346350 0.499960 0.366370 -0.590484
O10   O     O_R   0.500000 0.683240 0.614650 -0.614126
O11   O     O_R   0.499990 0.683210 0.385310 -0.631475
O12   O     O_R   0.653650 0.500040 0.633630 -0.598085
O13   O     O_R   0.653640 0.500010 0.404280 -0.608891
O14   O     O_2   0.307016 0.181473 0.729884 -0.615507
Zn1   Zn    Zn3+2 0.500010 0.500020 0.653130 0.989521
Zn2   Zn    Zn3+2 0.499990 0.499980 0.346870 1.000172

loop_
_geom_bond_atom_site_label_1
_geom_bond_atom_site_label_2
_ccdc_geom_bond_type
C2    H4    S    
C25   C31   S    
C19   C23   A    
C7    H9    S    
C22   O14   D    
C26   H1    S    
C6    C7    S    
C7    C29   S    
C16   O12   A    
C14   H14   S    
C18   C21   A    
C9    C10   A    
C9    N1    A    
C18   C20   A    
C19   C20   A    
C25   O5    D    
C30   C31   A    
C4    C18   S    
C4    O9    A    
C2    C3    A    
C15   O10   A    
O12   Zn1   S    
H6    O2    S    
C28   H16   S    
C1    O7    A    
C24   O4    S    
C11   C13   S    
C12   C23   A    
C9    H11   S    
C29   C30   A    
C6    I1    S    
O11   Zn2   S    
C12   C28   A    
C8    C11   A    
C17   C26   A    
C12   C21   A    
C4    O8    A    
C1    C30   S    
C15   O11   A    
C6    H5    S    
C13   C22   S    
C22   O2    S    
C5    C29   A    
C7    H10   S    
O8    Zn1   S    
C5    C6    S    
C1    O1    A    
C19   H15   S    
C11   N2    A    
C10   N2    A    
C25   O6    S    
C24   O3    D    
H8    O6    S    
O13   Zn2   S    
C8    N1    A    
O7    Zn2   S    
O1    Zn1   S    
C3    C15   S    
C20   H2    S    
N1    Zn2   S    
C23   C26   A    
C14   C24   S    
C27   C28   A    
C16   C17   S    
C8    C14   S    
C21   H3    S    
C16   O13   A    
C10   H12   S    
C13   C14   S    
O10   Zn1   S    
C13   H13   S    
H7    O4    S    
C27   I2    S    
O9    Zn2   S    
C2    C31   A    
C3    C5    A    
N2    Zn1   S    
C17   C27   A    
