data_mof_unit_5275.cif
_audit_creation_date              2012-12-11T14:50:30-0500
_audit_creation_method            fapswitch 2.2
_symmetry_space_group_name_H-M    P1
_symmetry_Int_Tables_number       1
_space_group_crystal_system       triclinic
_cell_length_a                    10.914029
_cell_length_b                    10.949909
_cell_length_c                    18.88714
_cell_angle_alpha                 90.063451
_cell_angle_beta                  89.709325
_cell_angle_gamma                 60.372896
_cell_volume                      1962.01691914

loop_
_atom_site_label
_atom_site_type_symbol
_atom_type_description
_atom_site_fract_x
_atom_site_fract_y
_atom_site_fract_z
_atom_type_partial_charge
C1    C     C_R   0.233916 0.647273 0.609194 0.637989
C2    C     C_3   0.671444 0.553869 0.801322 -0.306487
C3    C     C_3   0.702771 0.674992 0.811767 -0.052368
C4    C     C_3   0.671152 0.648034 0.676229 0.096470
C5    C     C_3   0.823362 0.626362 0.689744 0.354892
C6    C     C_3   0.650011 0.539108 0.721628 0.071093
C7    C     C_R   0.782208 0.172532 0.711450 0.251860
C8    C     C_R   0.794183 0.164894 0.786286 0.189876
C9    C     C_R   0.680520 0.175535 0.827545 -0.070313
C10   C     C_R   0.552945 0.211937 0.794200 -0.078488
C11   C     C_R   0.549473 0.194745 0.722203 0.213936
C12   C     C_R   0.653717 0.621769 0.601026 0.599088
C13   C     C_R   0.659787 0.185350 0.678899 0.027237
C14   C     C_R   0.189865 0.553466 0.721763 0.233175
C15   C     C_R   0.181598 0.561271 0.795951 -0.171181
C16   C     C_R   0.163260 0.681513 0.831169 -0.063297
C17   C     C_R   0.153577 0.794139 0.792226 -0.149952
C18   C     C_R   0.155841 0.791231 0.718784 0.223860
C19   C     C_R   0.182396 0.667165 0.682904 0.137906
C20   C     C_R   0.780138 0.620276 0.289508 0.187672
C21   C     C_R   0.791091 0.631026 0.216914 -0.157942
C22   C     C_R   0.672808 0.678364 0.172696 -0.028017
C23   C     C_R   0.626794 0.230446 0.604254 0.597138
C24   C     C_R   0.538899 0.721922 0.201769 0.259181
C25   C     C_R   0.525527 0.721332 0.275175 0.209864
C26   C     C_R   0.647630 0.663314 0.318973 0.038922
C27   C     C_R   0.586425 0.105888 0.295456 0.217659
C28   C     C_R   0.585265 0.089027 0.222116 0.244931
C29   C     C_R   0.649038 0.146760 0.177918 0.066742
C30   C     C_R   0.707241 0.224135 0.205797 -0.178396
C31   C     C_R   0.705865 0.242349 0.278016 -0.208873
C32   C     C_R   0.646287 0.182991 0.322681 0.023015
C33   C     C_R   0.068512 0.795954 0.308506 0.267537
C34   C     C_R   0.222942 0.647670 0.401579 0.616045
C35   C     C_R   0.045615 0.814632 0.235661 0.261479
C36   C     C_R   0.107011 0.695730 0.190168 0.053244
C37   C     C_R   0.189238 0.561033 0.216556 -0.219765
C38   C     C_R   0.220325 0.544633 0.287692 -0.191648
C39   C     C_R   0.163098 0.662555 0.332818 0.090496
C40   C     C_R   0.700228 0.107306 0.897336 0.538414
C41   C     C_R   0.725494 0.689286 0.887641 0.555404
C42   C     C_R   0.115218 0.708514 0.904648 0.550505
C43   C     C_R   0.674626 0.104472 0.104670 0.577708
C44   C     C_R   0.697749 0.690904 0.098272 0.536102
C45   C     C_R   0.639836 0.622733 0.391655 0.599227
C46   C     C_R   0.081565 0.716086 0.115393 0.586883
C47   C     C_R   0.617036 0.230564 0.394827 0.588623
C48   C     C_3   0.576574 0.812938 0.781348 0.117096
C49   C     C_3   0.562300 0.800399 0.700789 0.103692
C50   C     C_3   0.840839 0.638942 0.770477 -0.166765
Cr1   Cr    Cr6+3 0.392930 0.397900 0.502230 1.115242
Cr2   Cr    Cr6+3 0.398240 0.708600 0.501260 1.122598
Cr3   Cr    Cr6+3 0.708800 0.393470 0.496460 1.123334
Cr4   Cr    Cr6+3 0.937620 0.938540 0.007640 1.067111
Cr5   Cr    Cr6+3 0.625150 0.937450 0.994520 1.084552
Cr6   Cr    Cr6+3 0.937990 0.625080 0.001190 1.017199
H1    H     H_    0.462266 0.225910 0.824570 0.189089
H2    H     H_    0.184205 0.475718 0.825935 0.122765
H3    H     H_    0.135666 0.889328 0.818698 0.189216
H4    H     H_    0.747806 0.306461 0.298723 0.162248
H5    H     H_    0.294278 0.440543 0.306764 0.153493
H6    H     H_    0.587157 0.873822 0.671642 0.148841
H7    H     H_    0.873216 0.718763 0.781354 0.153911
H8    H     H_    0.761038 0.453866 0.820981 0.130916
O1    O     O_R   0.507430 0.255570 0.581420 -0.485902
O2    O     O_R   0.524460 0.695920 0.424060 -0.519307
O3    O     O_R   0.736530 0.504260 0.414810 -0.469921
O4    O     O_R   0.691460 0.277160 0.422180 -0.519379
O5    O     O_3   0.499990 0.499990 0.499980 -0.312639
O6    O     O_R   0.089490 0.825610 0.930610 -0.513240
O7    O     O_R   0.818370 0.054540 0.929880 -0.498761
O8    O     O_R   0.605870 0.077310 0.915530 -0.490598
O9    O     O_R   0.646440 0.806700 0.917570 -0.459756
O10   O     O_R   0.837200 0.593290 0.915250 -0.535268
O11   O     O_R   0.065330 0.635370 0.931590 -0.507402
O12   O     O_R   0.280190 0.527390 0.578910 -0.439983
O13   O     O_R   0.068300 0.828790 0.091860 -0.439733
O14   O     O_R   0.798730 0.057480 0.079370 -0.483695
O15   O     O_R   0.584680 0.080480 0.076790 -0.465158
O16   O     O_R   0.626790 0.809640 0.067050 -0.460756
O17   O     O_R   0.816010 0.596460 0.076500 -0.531607
O18   O     O_R   0.045680 0.638310 0.081070 -0.528918
O19   O     O_3   0.833590 0.833690 0.001120 -0.271784
O20   O     O_R   0.260310 0.739740 0.584580 -0.424466
O21   O     O_R   0.532250 0.695150 0.573830 -0.444858
O22   O     O_R   0.744930 0.503430 0.576380 -0.474141
O23   O     O_R   0.699250 0.276390 0.571950 -0.437505
O24   O     O_R   0.499020 0.256400 0.419850 -0.486138
O25   O     O_R   0.272400 0.528160 0.429140 -0.535223
O26   O     O_R   0.251910 0.740570 0.423020 -0.449568
O27   O     O_3   0.588375 0.932127 0.796279 -0.677311
H9    H     H_    0.674690 0.920588 0.772602 0.327003
H10   H     H_    0.731305 0.432656 0.705460 0.180220
H11   H     H_    0.928908 0.538817 0.790891 0.122971
O28   O     O_3   0.930270 0.494922 0.664146 -0.620120
H12   H     H_    0.937037 0.419257 0.695353 0.298499
O29   O     O_3   0.886332 0.171540 0.669162 -0.636715
H13   H     H_    0.947477 0.194323 0.698303 0.346100
O30   O     O_3   0.916497 0.147194 0.816733 -0.742010
H14   H     H_    0.892920 0.191644 0.864228 0.335488
O31   O     O_3   0.438847 0.180920 0.696865 -0.653279
H15   H     H_    0.475322 0.110131 0.658350 0.336534
O32   O     O_3   0.203240 0.437084 0.686581 -0.581139
H16   H     H_    0.192511 0.374804 0.721131 0.351846
H17   H     H_    0.478533 0.828716 0.808119 0.185540
O33   O     O_3   0.134270 0.908396 0.681340 -0.602671
H18   H     H_    0.135701 0.977901 0.714446 0.343944
O34   O     O_3   0.897193 0.567456 0.332583 -0.664773
H19   H     H_    0.983001 0.527866 0.302566 0.323552
H20   H     H_    0.893725 0.601967 0.194795 0.147312
O35   O     O_3   0.418741 0.768744 0.161334 -0.634123
H21   H     H_    0.445332 0.744540 0.111006 0.319106
O36   O     O_3   0.391960 0.772374 0.302302 -0.640247
H22   H     H_    0.376197 0.849566 0.335140 0.347190
O37   O     O_3   0.532607 0.046090 0.341395 -0.689183
H23   H     H_    0.432177 0.083795 0.328874 0.314910
O38   O     O_3   0.530350 0.011069 0.192259 -0.660919
H24   H     H_    0.482388 0.984473 0.228315 0.340374
H25   H     H_    0.756447 0.267426 0.171777 0.140904
O39   O     O_3   0.004846 0.905125 0.356711 -0.675548
H26   H     H_    0.916488 0.979974 0.336237 0.334936
O40   O     O_3   0.422705 0.836924 0.685271 -0.675570
H27   H     H_    0.366579 0.941028 0.687816 0.345743
O41   O     O_3   0.967948 0.947376 0.207729 -0.680297
H28   H     H_    0.989484 0.011896 0.234930 0.337772
H29   H     H_    0.235389 0.470266 0.181724 0.141812
O42   O     O_3   0.839317 0.731964 0.655455 -0.707331
H30   H     H_    0.844663 0.713475 0.603750 0.358155
H31   H     H_    0.577502 0.573143 0.833250 0.123558
O43   O     O_3   0.520033 0.545705 0.708260 -0.693492
H32   H     H_    0.446315 0.622905 0.737009 0.354976

loop_
_geom_bond_atom_site_label_1
_geom_bond_atom_site_label_2
_ccdc_geom_bond_type
C8    C9    A    
O31   H15   S    
C40   O7    A    
Cr2   O26   S    
O28   H12   S    
C6    O43   S    
Cr3   O5    S    
C18   O33   S    
O29   H13   S    
C7    C8    A    
C1    O20   A    
C28   C29   A    
C42   O11   A    
C33   C39   A    
C12   O21   A    
C35   O41   S    
C8    O30   S    
C37   H29   S    
C28   O38   S    
C38   C39   A    
O33   H18   S    
C43   O15   A    
O37   H23   S    
C3    C48   S    
C42   O6    A    
C2    H31   S    
Cr4   O14   S    
O34   H19   S    
C13   C23   S    
C18   C19   A    
Cr1   O1    S    
Cr2   O20   S    
Cr3   O4    S    
Cr2   O5    S    
C26   C45   S    
C33   C35   A    
C41   O10   A    
C46   O18   A    
C45   O2    A    
C22   C44   S    
Cr4   O7    S    
C35   C36   A    
C16   C17   A    
C48   O27   S    
C45   O3    A    
C36   C46   S    
Cr3   O22   S    
C4    C12   S    
C40   O8    A    
C9    C10   A    
Cr5   O8    S    
C38   H5    S    
C11   O31   S    
Cr6   O11   S    
C23   O23   A    
C21   C22   A    
C29   C43   S    
C50   H7    S    
C2    C6    S    
C24   O35   S    
Cr4   O19   S    
C5    O28   S    
C3    C50   S    
C2    H8    S    
C21   H20   S    
C1    C19   S    
Cr6   O10   S    
C34   C39   S    
C44   O16   A    
C10   H1    S    
Cr1   O12   S    
C4    C6    S    
C44   O17   A    
O27   H9    S    
C50   H11   S    
C25   C26   A    
C9    C40   S    
C43   O14   A    
C31   H4    S    
C37   C38   A    
C34   O26   A    
C29   C30   A    
C25   O36   S    
Cr5   O15   S    
C31   C32   A    
Cr4   O6    S    
C6    H10   S    
C5    O42   S    
C17   C18   A    
Cr3   O23   S    
C24   C25   A    
C17   H3    S    
C48   C49   S    
Cr2   O21   S    
C15   H2    S    
C22   C24   A    
C5    C50   S    
Cr5   O19   S    
O42   H30   S    
C16   C42   S    
C47   O4    A    
O32   H16   S    
Cr2   O2    S    
O39   H26   S    
Cr6   O19   S    
O36   H22   S    
C36   C37   A    
C49   H6    S    
C7    O29   S    
O35   H21   S    
C27   C32   A    
C1    O12   A    
C14   C19   A    
C4    C5    S    
Cr1   O24   S    
C46   O13   A    
Cr6   O18   S    
O30   H14   S    
C12   O22   A    
C4    C49   S    
C47   O24   A    
Cr4   O13   S    
C2    C3    S    
C34   O25   A    
O38   H24   S    
Cr1   O25   S    
Cr5   O16   S    
C11   C13   A    
C23   O1    A    
C14   O32   S    
C30   C31   A    
C20   C26   A    
C49   O40   S    
C32   C47   S    
Cr6   O17   S    
O43   H32   S    
Cr3   O3    S    
C3    C41   S    
C10   C11   A    
C41   O9    A    
Cr5   O9    S    
C7    C13   A    
C20   C21   A    
C33   O39   S    
C30   H25   S    
C27   C28   A    
C14   C15   A    
Cr1   O5    S    
C48   H17   S    
O40   H27   S    
C15   C16   A    
O41   H28   S    
C20   O34   S    
C27   O37   S    
