data_mof_unit_10467.cif
_audit_creation_date              2012-12-11T16:48:28-0500
_audit_creation_method            fapswitch 2.2
_symmetry_space_group_name_H-M    P1
_symmetry_Int_Tables_number       1
_space_group_crystal_system       triclinic
_cell_length_a                    17.517614
_cell_length_b                    24.669079
_cell_length_c                    14.962976
_cell_angle_alpha                 89.859552
_cell_angle_beta                  125.784403
_cell_angle_gamma                 90.565545
_cell_volume                      5245.1914136

loop_
_atom_site_label
_atom_site_type_symbol
_atom_type_description
_atom_site_fract_x
_atom_site_fract_y
_atom_site_fract_z
_atom_type_partial_charge
C1    C     C_R   0.358072 0.347628 0.906812 0.457986
C2    C     C_R   0.434120 0.498414 0.632557 0.016546
C3    C     C_R   0.070850 0.851994 0.911300 0.566386
C4    C     C_R   0.383314 0.315468 0.995303 -0.287383
C5    C     C_R   0.668557 0.344768 0.997768 -0.280482
C6    C     C_R   0.862409 0.821878 0.997070 -0.252016
C7    C     C_R   0.140453 0.825569 0.005108 -0.271657
C8    C     C_3   0.390603 0.291648 0.809397 -0.071217
C9    C     C_3   0.685189 0.316732 0.225435 -0.194901
C10   C     C_3   0.844045 0.824460 0.762918 -0.075385
C11   C     C_3   0.156463 0.819685 0.232194 -0.178435
C12   C     C_3   0.001030 0.365101 0.281240 -0.206446
C13   C     C_R   0.063548 0.998826 0.365936 0.041874
C14   C     C_3   0.091789 0.298339 0.617571 -0.149056
C15   C     C_3   0.447858 0.865467 0.297760 -0.190841
C16   C     C_3   0.563906 0.798789 0.624821 -0.170190
C17   C     C_R   0.035723 0.998581 0.709606 0.052845
C18   C     C_R   0.175180 0.498026 0.693736 0.109705
C19   C     C_R   0.798130 0.499802 0.368001 0.100620
C20   C     C_R   0.675166 0.999140 0.689807 0.115888
C21   C     C_R   0.298548 0.000194 0.367466 0.104969
C22   C     C_2   0.921109 0.456101 0.538052 -0.107021
C23   C     C_2   0.022006 0.459380 0.625178 -0.125859
C24   C     C_2   0.421694 0.957632 0.538698 -0.126334
C25   C     C_R   0.677517 0.364419 0.090155 0.511595
C26   C     C_2   0.522522 0.961878 0.625065 -0.128108
C27   C     C_2   0.873387 0.500998 0.485091 -0.194604
C28   C     C_2   0.074014 0.498354 0.621763 -0.190163
C29   C     C_2   0.373659 0.002103 0.484405 -0.189296
C30   C     C_2   0.574066 0.999459 0.617201 -0.198393
C31   C     C_R   0.322076 0.726024 0.100663 0.016020
C32   C     C_R   0.713303 0.697445 0.893313 0.062913
C33   C     C_R   0.833597 0.232004 0.096556 0.033725
C34   C     C_R   0.215298 0.202378 0.893043 0.070194
C35   C     C_R   0.278471 0.691732 0.009866 0.070196
C36   C     C_R   0.843514 0.851335 0.908265 0.437631
C37   C     C_R   0.750208 0.668957 0.991085 0.076048
C38   C     C_R   0.781910 0.194323 0.011539 0.070173
C39   C     C_R   0.244428 0.178484 0.992810 0.078598
C40   C     C_R   0.180939 0.692321 0.930795 -0.245099
C41   C     C_R   0.840044 0.683057 0.084009 -0.244816
C42   C     C_R   0.687583 0.203595 0.926767 -0.251094
C43   C     C_R   0.337848 0.186320 0.084679 -0.248602
C44   C     C_R   0.649871 0.253753 0.920365 -0.135672
C45   C     C_R   0.392314 0.227085 0.081728 -0.110107
C46   C     C_R   0.130616 0.734448 0.933474 -0.104846
C47   C     C_R   0.160204 0.854240 0.093664 0.493233
C48   C     C_R   0.882028 0.731507 0.083752 -0.126126
C49   C     C_R   0.707660 0.294426 0.997588 0.019076
C50   C     C_R   0.351830 0.259975 0.987589 0.014385
C51   C     C_R   0.180084 0.774682 0.014406 0.019904
C52   C     C_R   0.833370 0.765652 0.990864 0.010426
C53   C     C_R   0.417961 0.636710 0.092941 -0.132395
C54   C     C_R   0.599899 0.618833 0.908717 -0.127201
C55   C     C_R   0.911321 0.130103 0.094638 -0.122420
C56   C     C_R   0.089485 0.132893 0.908989 -0.136535
C57   C     C_R   0.796726 0.281496 0.089355 0.197057
C58   C     C_R   0.335798 0.655706 0.002202 0.098321
C59   C     C_R   0.268268 0.242242 0.889591 0.076122
C60   C     C_R   0.273301 0.767235 0.103413 0.173654
C61   C     C_R   0.755117 0.744261 0.891535 0.138473
C62   C     C_3   0.888163 0.310712 0.138509 0.536531
C63   C     C_3   0.182207 0.272312 0.800077 0.601252
C64   C     C_3   0.355799 0.805705 0.153983 0.569009
C65   C     C_3   0.661252 0.768754 0.804263 0.614360
C66   C     C_3   0.409845 0.759525 0.149843 -0.692323
C67   C     C_3   0.616041 0.718569 0.811872 -0.745720
C68   C     C_3   0.929775 0.255605 0.146379 -0.698920
C69   C     C_R   0.687108 0.634751 0.999261 0.079608
C70   C     C_3   0.124524 0.228898 0.806712 -0.739804
C71   C     C_R   0.400124 0.446904 0.471056 0.109384
C72   C     C_R   0.407409 0.446613 0.384256 0.142072
C73   C     C_R   0.090161 0.948069 0.614020 0.144918
C74   C     C_R   0.098927 0.948078 0.528472 0.123983
C75   C     C_R   0.399389 0.496077 0.517161 0.046900
C76   C     C_R   0.413921 0.495483 0.341350 0.047460
C77   C     C_R   0.081491 0.997086 0.654104 0.043716
C78   C     C_R   0.099069 0.997137 0.481341 0.043624
C79   C     C_R   0.380809 0.543750 0.456021 -0.186790
C80   C     C_R   0.830115 0.150783 0.004273 0.088411
C81   C     C_R   0.387784 0.543400 0.367511 -0.195730
C82   C     C_R   0.108123 0.045244 0.628170 -0.195333
C83   C     C_R   0.116972 0.045284 0.541218 -0.188935
C84   C     C_3   0.470290 0.398263 0.428073 -0.503373
C85   C     C_3   0.462319 0.398527 0.523004 -0.452119
C86   C     C_3   0.038182 0.898346 0.477701 -0.472621
C87   C     C_3   0.028713 0.898357 0.571366 -0.498015
C88   C     C_R   0.483054 0.453006 0.250629 -0.144623
C89   C     C_R   0.448250 0.453969 0.695923 -0.031803
C90   C     C_R   0.049288 0.954058 0.302916 -0.096397
C91   C     C_R   0.176742 0.148642 0.999739 0.084375
C92   C     C_R   0.013840 0.953840 0.745859 -0.161902
C93   C     C_R   0.231206 0.543985 0.727402 -0.138679
C94   C     C_R   0.753038 0.544775 0.304544 -0.161445
C95   C     C_R   0.731784 0.044665 0.725852 -0.131030
C96   C     C_R   0.253204 0.045014 0.303931 -0.154812
C97   C     C_R   0.489733 0.543584 0.260260 -0.110680
C98   C     C_R   0.450844 0.544024 0.695668 -0.144059
C99   C     C_R   0.047208 0.044401 0.302985 -0.125174
C100  C     C_R   0.005562 0.044031 0.734664 -0.114653
C101  C     C_R   0.232152 0.452850 0.734925 -0.123112
C102  C     C_R   0.459361 0.497512 0.285122 0.045385
C103  C     C_R   0.752246 0.454599 0.303846 -0.038653
C104  C     C_R   0.731347 0.953774 0.730650 -0.140300
C105  C     C_R   0.252928 0.954741 0.303661 -0.097016
C106  C     C_R   0.322805 0.636265 0.908085 -0.151410
C107  C     C_R   0.690354 0.623761 0.092580 -0.133063
C108  C     C_R   0.820602 0.134353 0.909624 -0.145203
C109  C     C_R   0.185519 0.130170 0.093123 -0.143297
C110  C     C_R   0.441400 0.347236 0.088482 0.597534
C111  C     C_R   0.588488 0.366936 0.906692 0.626047
C112  C     C_R   0.929217 0.851995 0.090008 0.608260
F1    F     F_    0.492998 0.329604 0.193930 -0.764490
F2    F     F_    0.549018 0.354573 0.799841 -0.751690
F3    F     F_    0.971370 0.837727 0.196453 -0.759556
F4    F     F_    0.024635 0.832318 0.807346 -0.769538
H1    H     H_    0.900601 0.540686 0.522565 0.136296
H2    H     H_    0.460907 0.236130 0.156279 0.193923
H3    H     H_    0.056163 0.737707 0.868643 0.178629
H4    H     H_    0.948107 0.743695 0.158787 0.190453
H5    H     H_    0.885766 0.339691 0.079511 -0.004849
H6    H     H_    0.176235 0.313572 0.825662 -0.013306
H7    H     H_    0.342133 0.840505 0.098650 -0.020624
H8    H     H_    0.647251 0.807099 0.831607 -0.004495
H9    H     H_    0.428530 0.766736 0.091375 0.182612
H10   H     H_    0.577695 0.726919 0.848848 0.185120
H11   H     H_    0.952981 0.251649 0.091612 0.184978
H12   H     H_    0.042603 0.531203 0.562659 0.135076
H13   H     H_    0.085777 0.244396 0.839289 0.182934
H14   H     H_    0.468487 0.744719 0.232453 0.225944
H15   H     H_    0.575851 0.694384 0.734327 0.227434
H16   H     H_    0.981570 0.241535 0.232321 0.224516
H17   H     H_    0.081888 0.203873 0.730503 0.218553
H18   H     H_    0.372655 0.582267 0.483749 0.126453
H19   H     H_    0.383968 0.581610 0.329511 0.131762
H20   H     H_    0.110856 0.083621 0.664887 0.133906
H21   H     H_    0.125392 0.083806 0.513154 0.129690
H22   H     H_    0.436360 0.362090 0.373893 0.213723
H23   H     H_    0.401012 0.042007 0.520651 0.135737
H24   H     H_    0.530547 0.407820 0.603041 0.229785
H25   H     H_    0.970078 0.905966 0.396875 0.220791
H26   H     H_    0.063213 0.863048 0.627083 0.222462
H27   H     H_    0.542991 0.407499 0.454357 0.209519
H28   H     H_    0.423800 0.362520 0.523322 0.202932
H29   H     H_    0.078060 0.863040 0.479573 0.204730
H30   H     H_    0.955395 0.906109 0.543447 0.205576
H31   H     H_    0.453638 0.649470 0.177276 0.105776
H32   H     H_    0.574981 0.619160 0.823814 0.123057
H33   H     H_    0.943012 0.138044 0.180711 0.109646
H34   H     H_    0.542326 0.030842 0.554771 0.136027
H35   H     H_    0.056408 0.143573 0.825024 0.111237
H36   H     H_    0.467658 0.411219 0.254355 0.180790
H37   H     H_    0.422973 0.413321 0.665896 0.159723
H38   H     H_    0.072132 0.913320 0.332094 0.149976
H39   H     H_    0.027831 0.912660 0.739642 0.193887
H40   H     H_    0.207873 0.584992 0.701612 0.092901
H41   H     H_    0.763107 0.585966 0.334482 0.101866
H42   H     H_    0.709567 0.085912 0.700940 0.091798
H43   H     H_    0.263049 0.086241 0.333615 0.094952
H44   H     H_    0.488760 0.584339 0.284459 0.090718
H45   H     H_    0.145659 0.663013 0.864120 0.139249
H46   H     H_    0.432802 0.585255 0.666466 0.093910
H47   H     H_    0.064907 0.085854 0.331720 0.087700
H48   H     H_    0.001859 0.084383 0.705401 0.084869
H49   H     H_    0.210869 0.410785 0.719862 0.141338
H50   H     H_    0.760743 0.413870 0.333930 0.127446
H51   H     H_    0.707192 0.912529 0.709388 0.168521
H52   H     H_    0.262493 0.913919 0.333774 0.143463
H53   H     H_    0.270732 0.648745 0.824439 0.098975
H54   H     H_    0.747859 0.631342 0.177623 0.103156
H55   H     H_    0.770803 0.149087 0.827033 0.101125
H56   H     H_    0.872815 0.660242 0.159717 0.135384
H57   H     H_    0.243773 0.136190 0.178423 0.099980
H58   H     H_    0.892448 0.415984 0.505548 0.124447
H59   H     H_    0.055046 0.426064 0.682936 0.113434
H60   H     H_    0.393437 0.917272 0.507681 0.122341
H61   H     H_    0.555998 0.930373 0.687004 0.121057
H62   H     H_    0.462437 0.292378 0.888321 0.072901
H63   H     H_    0.397854 0.299158 0.741596 0.176367
H64   H     H_    0.359920 0.250441 0.796360 0.145473
H65   H     H_    0.634807 0.286887 0.161196 0.133453
H66   H     H_    0.647987 0.345943 0.243134 0.186116
H67   H     H_    0.645480 0.173656 0.862704 0.138847
H68   H     H_    0.734425 0.293848 0.302212 0.164137
H69   H     H_    0.900796 0.795256 0.817787 0.148625
H70   H     H_    0.870830 0.863140 0.752607 0.160188
H71   H     H_    0.799003 0.805248 0.680312 0.171007
H72   H     H_    0.099871 0.791447 0.170190 0.134372
H73   H     H_    0.127228 0.855182 0.247210 0.167522
H74   H     H_    0.199987 0.797280 0.310951 0.162044
H75   H     H_    0.982113 0.401505 0.228385 0.129340
H76   H     H_    0.057593 0.342036 0.285995 0.126056
H77   H     H_    0.029259 0.379352 0.365634 0.163851
H78   H     H_    0.365554 0.165061 0.161106 0.134185
H79   H     H_    0.097212 0.341731 0.639959 0.105280
H80   H     H_    0.026597 0.280048 0.601623 0.119371
H81   H     H_    0.085898 0.296321 0.539689 0.170832
H82   H     H_    0.405973 0.901530 0.249874 0.135293
H83   H     H_    0.507104 0.859583 0.290768 0.121305
H84   H     H_    0.478393 0.873458 0.385656 0.154355
H85   H     H_    0.571916 0.842209 0.647909 0.116888
H86   H     H_    0.501965 0.780657 0.617343 0.117604
H87   H     H_    0.550389 0.796425 0.542664 0.175800
H88   H     H_    0.576925 0.260621 0.854078 0.170542
N1    N     N_R   0.395410 0.396350 0.944340 -0.124855
N2    N     N_R   0.474920 0.471030 0.794350 -0.042629
N3    N     N_R   0.025080 0.971030 0.205650 -0.041411
N4    N     N_R   0.974920 0.971030 0.794350 -0.042160
N5    N     N_R   0.320260 0.527820 0.794570 -0.043280
N6    N     N_R   0.679740 0.527820 0.205430 -0.045692
N7    N     N_R   0.820260 0.027820 0.794570 -0.041291
N8    N     N_R   0.179740 0.027820 0.205430 -0.041441
N9    N     N_R   0.524590 0.527840 0.205200 -0.042095
N10   N     N_R   0.475410 0.527840 0.794800 -0.049088
N11   N     N_R   0.024590 0.027840 0.205200 -0.042077
N12   N     N_R   0.604590 0.396350 0.055660 -0.152537
N13   N     N_R   0.975410 0.027840 0.794800 -0.040550
N14   N     N_R   0.320750 0.471000 0.795020 -0.039302
N15   N     N_R   0.679250 0.471000 0.204980 -0.054023
N16   N     N_R   0.820750 0.971000 0.795020 -0.044089
N17   N     N_R   0.179250 0.971000 0.204980 -0.047403
N18   N     N_R   0.393620 0.602490 0.942710 -0.039587
N19   N     N_R   0.606380 0.602490 0.057290 -0.042446
N20   N     N_R   0.893620 0.102490 0.942710 -0.040971
N21   N     N_R   0.106380 0.102490 0.057290 -0.040352
N22   N     N_R   0.451720 0.396350 0.057510 -0.135962
N23   N     N_R   0.895410 0.896350 0.944340 -0.133756
N24   N     N_R   0.548280 0.396350 0.942490 -0.137933
N25   N     N_R   0.951720 0.896350 0.057510 -0.136655
N26   N     N_R   0.048280 0.896350 0.942490 -0.140547
N27   N     N_R   0.104590 0.896350 0.055660 -0.139977
N28   N     N_R   0.449930 0.602500 0.055880 -0.043130
N29   N     N_R   0.550070 0.602500 0.944120 -0.046434
N30   N     N_R   0.949930 0.102500 0.055880 -0.044424
N31   N     N_R   0.050070 0.102500 0.944120 -0.042918
N32   N     N_R   0.525080 0.471030 0.205650 -0.040170
Ni1   Ni    Ni4+2 0.435420 0.434270 0.870230 0.242837
Ni2   Ni    Ni4+2 0.564580 0.434270 0.129770 0.213794
Ni3   Ni    Ni4+2 0.935420 0.934270 0.870230 0.208033
Ni4   Ni    Ni4+2 0.064580 0.934270 0.129770 0.206857
Ni5   Ni    Ni4+2 0.563430 0.564580 0.128740 0.208312
Ni6   Ni    Ni4+2 0.436570 0.564580 0.871260 0.204394
Ni7   Ni    Ni4+2 0.063430 0.064580 0.128740 0.205718
Ni8   Ni    Ni4+2 0.936570 0.064580 0.871260 0.211549
O1    O     O_3   0.329035 0.330784 0.802932 -0.606437
O2    O     O_3   0.737810 0.344545 0.195817 -0.595716
O3    O     O_3   0.788554 0.834350 0.800204 -0.636835
O4    O     O_3   0.214805 0.837282 0.201927 -0.601189
O5    O     O_3   0.921183 0.332224 0.242838 -0.560874
O6    O     O_3   0.172416 0.269615 0.699397 -0.582570
O7    O     O_3   0.390079 0.818832 0.263516 -0.564702
O8    O     O_3   0.647153 0.770489 0.701005 -0.567173

loop_
_geom_bond_atom_site_label_1
_geom_bond_atom_site_label_2
_ccdc_geom_bond_type
C44   C49   A    
C45   H2    S    
C31   C66   S    
C14   H79   S    
N22   Ni2   S    
C87   H30   S    
C37   C69   S    
C13   C90   A    
C95   H42   S    
C12   H77   S    
C72   C76   A    
C99   N11   A    
C69   C107  A    
C57   C62   S    
C48   H4    S    
C20   C30   S    
C40   C46   A    
N7    N16   A    
N12   N24   A    
C38   C80   S    
C35   C58   S    
C96   N8    A    
N5    N14   A    
C45   C50   A    
N15   Ni2   S    
C24   C26   S    
C32   C61   A    
C38   C42   A    
N8    Ni7   S    
C3    C7    A    
C3    F4    S    
C108  N20   A    
C109  H57   S    
C30   H34   S    
C23   H59   S    
C36   N23   A    
C6    C52   S    
C53   H31   S    
C10   H69   S    
C49   C57   A    
N4    Ni3   S    
C11   O4    S    
C73   C74   A    
C65   H8    S    
C68   H16   S    
N25   Ni4   S    
N20   N30   A    
C24   C29   D    
C104  N16   A    
C14   H80   S    
C9    H66   S    
N19   N29   A    
C98   H46   S    
C71   C85   S    
C19   C103  A    
C101  N14   A    
C56   C91   A    
C73   C87   S    
N32   Ni2   S    
N12   Ni2   S    
C65   C67   S    
C16   H86   S    
C70   H17   S    
N16   Ni3   S    
C55   H33   S    
N2    Ni1   S    
C16   H87   S    
C1    N1    A    
C34   C70   S    
C97   C102  A    
N11   Ni7   S    
N30   Ni7   S    
C14   O6    S    
C25   O2    S    
N2    N10   A    
C98   N10   A    
C84   H22   S    
C97   N9    A    
C37   C41   A    
C88   H36   S    
C5    C49   S    
N26   Ni3   S    
C17   C92   A    
C42   C44   A    
C88   N32   A    
C78   C83   A    
C3    N26   A    
C39   C91   S    
C47   O4    S    
C22   H58   S    
C60   C64   S    
C81   H19   S    
C107  N19   A    
N8    N17   A    
C27   H1    S    
C76   C102  S    
C29   H23   S    
C14   H81   S    
C67   H15   S    
N17   Ni4   S    
C34   C39   A    
N21   N31   A    
C97   H44   S    
C85   H28   S    
C12   H76   S    
C18   C28   S    
C84   C85   S    
C110  N22   A    
C67   H10   S    
C79   C81   A    
C15   H82   S    
C109  N21   A    
C86   C87   S    
N20   Ni8   S    
C39   C43   A    
C5    C111  A    
C84   H27   S    
C56   N31   A    
C23   C28   D    
C21   C29   S    
C46   C51   A    
C12   H75   S    
C70   H13   S    
C112  N25   A    
N28   Ni5   S    
C4    C50   S    
N27   Ni4   S    
C11   H73   S    
C18   C101  A    
C64   C66   S    
C31   C60   A    
C13   C99   A    
C2    C89   A    
C101  H49   S    
C92   N4    A    
C61   C65   S    
C10   O3    S    
C64   O7    S    
C15   H83   S    
C17   C77   S    
C8    H64   S    
C89   H37   S    
C89   N2    A    
C110  F1    S    
C63   C70   S    
C18   C93   A    
N23   Ni3   S    
C63   O6    S    
N3    N11   A    
C10   H71   S    
N1    N22   A    
C100  H48   S    
C32   C37   A    
C74   C86   S    
C56   H35   S    
N1    Ni1   S    
C9    O2    S    
C43   C45   A    
C85   H24   S    
C72   C84   S    
C19   C94   A    
C11   H72   S    
C32   C67   S    
C99   H47   S    
C15   H84   S    
N3    Ni4   S    
C47   N27   A    
N23   N25   A    
C20   C95   A    
C100  N13   A    
C26   C30   D    
C94   H41   S    
C22   C27   D    
C43   H78   S    
C93   N5    A    
C34   C59   A    
C106  H53   S    
C31   C35   A    
C65   O8    S    
C90   H38   S    
C111  F2    S    
C50   C59   A    
C55   N30   A    
C16   H85   S    
C24   H60   S    
C86   H29   S    
C83   H21   S    
C63   H6    S    
C19   C27   S    
N9    N32   A    
C54   H32   S    
C26   H61   S    
N4    N13   A    
C16   O8    S    
C79   H18   S    
C4    C110  A    
C13   C78   S    
C33   C57   A    
N6    N15   A    
N24   Ni1   S    
C6    C112  A    
N7    Ni8   S    
C93   H40   S    
C111  N24   A    
N6    Ni5   S    
C33   C68   S    
C76   C81   A    
C8    O1    S    
N5    Ni6   S    
C88   C102  A    
C53   C58   A    
C105  H52   S    
C94   N6    A    
C62   O5    S    
C20   C104  A    
C21   C96   A    
C42   H67   S    
N21   Ni7   S    
C64   H7    S    
C80   C108  A    
C68   H11   S    
C59   C63   S    
C33   C38   A    
C54   N29   A    
C66   H9    S    
C62   C68   S    
N10   Ni6   S    
C1    C4    A    
C95   N7    A    
C11   H74   S    
N9    Ni5   S    
C35   C40   A    
N13   Ni8   S    
C7    C51   S    
C40   H45   S    
N18   Ni6   S    
C9    H68   S    
C1    O1    S    
C41   H56   S    
C104  H51   S    
C71   C75   A    
C55   C80   A    
C8    H63   S    
C91   C109  A    
C106  N18   A    
C54   C69   A    
C15   O7    S    
C77   C82   A    
N19   Ni5   S    
C105  N17   A    
C10   H70   S    
C41   C48   A    
C6    C36   A    
C46   H3    S    
C52   C61   A    
C92   H39   S    
C62   H5    S    
C87   H26   S    
C82   H20   S    
N26   N27   A    
C17   C100  A    
N31   Ni8   S    
C9    H65   S    
C12   O5    S    
C53   N28   A    
N18   N28   A    
C90   N3    A    
C25   N12   A    
C8    H62   S    
N29   Ni6   S    
C48   C52   A    
C96   H43   S    
C71   C72   A    
C2    C98   A    
C103  H50   S    
C82   C83   A    
C74   C78   A    
C108  H55   S    
C103  N15   A    
C44   H88   S    
C36   O3    S    
C73   C77   A    
C22   C23   S    
C51   C60   A    
N14   Ni1   S    
C58   C106  A    
C75   C79   A    
C107  H54   S    
C112  F3    S    
C21   C105  A    
C2    C75   S    
C28   H12   S    
C86   H25   S    
C7    C47   A    
C66   H14   S    
C5    C25   A    
