data_mof_unit_6944.cif
_audit_creation_date              2012-12-11T16:24:09-0500
_audit_creation_method            fapswitch 2.2
_symmetry_space_group_name_H-M    P1
_symmetry_Int_Tables_number       1
_space_group_crystal_system       triclinic
_cell_length_a                    14.749353
_cell_length_b                    14.767753
_cell_length_c                    33.28022
_cell_angle_alpha                 96.03367
_cell_angle_beta                  96.268432
_cell_angle_gamma                 61.179585
_cell_volume                      6301.59358389

loop_
_atom_site_label
_atom_site_type_symbol
_atom_type_description
_atom_site_fract_x
_atom_site_fract_y
_atom_site_fract_z
_atom_type_partial_charge
C1    C     C_R   0.391124 0.699210 0.445964 0.555228
C2    C     C_R   0.329211 0.349390 0.308531 -0.005912
C3    C     C_R   0.392783 0.260799 0.329688 -0.050838
C4    C     C_R   0.412556 0.269092 0.371608 0.230912
C5    C     C_R   0.397631 0.251222 0.165266 0.258766
C6    C     C_R   0.387039 0.234420 0.123377 -0.082905
C7    C     C_R   0.210655 0.375784 0.122088 -0.137507
C8    C     C_R   0.221068 0.392724 0.163921 -0.150989
C9    C     C_R   0.313047 0.328514 0.185681 0.045432
C10   C     C_1   0.317045 0.337469 0.228979 0.058651
C11   C     C_1   0.321339 0.342850 0.265281 0.028766
C12   C     C_R   0.405371 0.386160 0.434094 0.570428
C13   C     C_R   0.292205 0.293807 0.101668 -0.024028
C14   C     C_R   0.754723 0.374241 0.409756 0.015697
C15   C     C_R   0.785906 0.437128 0.392825 -0.112219
C16   C     C_R   0.813182 0.417411 0.352890 -0.099649
C17   C     C_R   0.810170 0.334240 0.329230 0.029215
C18   C     C_R   0.788376 0.265761 0.347289 -0.105531
C19   C     C_R   0.760758 0.285661 0.387277 -0.117291
C20   C     C_R   0.829073 0.314327 0.203853 0.348068
C21   C     C_R   0.820623 0.324947 0.285304 0.346278
C22   C     C_R   0.831660 0.391744 0.141342 -0.109012
C23   C     C_R   0.700469 0.410155 0.447446 0.544252
C24   C     C_R   0.863389 0.379858 0.102402 -0.124619
C25   C     C_R   0.907932 0.198502 0.098912 -0.127634
C26   C     C_R   0.876136 0.210422 0.137960 -0.108580
C27   C     C_R   0.842414 0.306038 0.160188 0.034418
C28   C     C_R   0.906400 0.282064 0.081622 0.019100
C29   C     C_R   0.372648 0.751591 0.408336 -0.016076
C30   C     C_R   0.285484 0.768621 0.382145 -0.136536
C31   C     C_R   0.280748 0.792473 0.342394 -0.154321
C32   C     C_R   0.362419 0.800683 0.328106 0.041471
C33   C     C_R   0.446185 0.792378 0.355315 0.246708
C34   C     C_R   0.393260 0.701927 0.561133 0.575434
C35   C     C_R   0.450424 0.768273 0.395176 -0.078682
C36   C     C_R   0.360461 0.819327 0.203521 0.363545
C37   C     C_R   0.361841 0.808307 0.284377 0.360081
C38   C     C_R   0.262831 0.835104 0.137061 -0.156799
C39   C     C_R   0.237575 0.868605 0.097885 -0.144326
C40   C     C_R   0.390496 0.891091 0.101865 -0.092190
C41   C     C_R   0.416252 0.857735 0.141207 0.240448
C42   C     C_R   0.349179 0.834281 0.159855 0.040870
C43   C     C_R   0.298548 0.901504 0.080685 -0.021737
C44   C     C_R   0.369919 0.369878 0.585107 0.027070
C45   C     C_R   0.406995 0.388542 0.548909 0.569201
C46   C     C_R   0.292809 0.455599 0.606080 -0.164718
C47   C     C_R   0.272603 0.447866 0.645063 -0.132287
C48   C     C_R   0.329055 0.354240 0.663960 -0.009281
C49   C     C_R   0.398591 0.265949 0.641805 -0.078555
C50   C     C_R   0.418848 0.272689 0.602526 0.231748
C51   C     C_R   0.317559 0.348385 0.788561 0.344780
C52   C     C_R   0.322026 0.350497 0.707454 0.349868
C53   C     C_R   0.219076 0.404963 0.850913 -0.120528
C54   C     C_R   0.208100 0.385220 0.889672 -0.130678
C55   C     C_R   0.385992 0.247401 0.892653 -0.128398
C56   C     C_R   0.701260 0.413653 0.562712 0.538149
C57   C     C_R   0.396806 0.266889 0.853949 -0.119928
C58   C     C_R   0.311983 0.342501 0.832012 0.034660
C59   C     C_R   0.290001 0.302908 0.910019 0.022482
C60   C     C_R   0.753769 0.380777 0.603018 0.017075
C61   C     C_R   0.776969 0.448354 0.629726 -0.124018
C62   C     C_R   0.804875 0.427975 0.670537 -0.109382
C63   C     C_R   0.810421 0.339780 0.685026 0.036803
C64   C     C_R   0.793710 0.268918 0.658276 -0.096525
C65   C     C_R   0.765794 0.289062 0.617448 -0.105337
C66   C     C_R   0.885215 0.213066 0.822909 -0.108936
C67   C     C_R   0.368700 0.367936 0.392450 0.024406
C68   C     C_R   0.913124 0.201673 0.864280 -0.126734
C69   C     C_R   0.871367 0.382460 0.873456 -0.124748
C70   C     C_R   0.843324 0.393645 0.832143 -0.110789
C71   C     C_R   0.853155 0.308287 0.806676 0.041103
C72   C     C_1   0.837721 0.317024 0.763671 -0.017932
C73   C     C_1   0.826109 0.326034 0.727710 -0.017902
C74   C     C_R   0.909937 0.285442 0.889725 0.019724
C75   C     C_R   0.377917 0.753912 0.602210 0.032577
C76   C     C_R   0.278622 0.811913 0.617617 0.233521
C77   C     C_R   0.270124 0.839538 0.659108 -0.070647
C78   C     C_R   0.298473 0.455063 0.370935 -0.159730
C79   C     C_R   0.359132 0.810772 0.685323 -0.001403
C80   C     C_R   0.457000 0.759664 0.669956 -0.122293
C81   C     C_R   0.466402 0.731882 0.628713 -0.158624
C82   C     C_R   0.395961 0.883871 0.832665 -0.110221
C83   C     C_R   0.376417 0.911868 0.873452 -0.125410
C84   C     C_R   0.228226 0.880560 0.863165 -0.125630
C85   C     C_R   0.248042 0.852513 0.822424 -0.110174
C86   C     C_R   0.330137 0.856889 0.806939 0.039259
C87   C     C_1   0.342320 0.840380 0.764219 -0.015893
C88   C     C_1   0.350364 0.827749 0.728246 -0.014988
C89   C     C_R   0.279429 0.445816 0.329274 -0.125235
C90   C     C_R   0.290277 0.913717 0.888817 0.019847
C91   C     C_R   0.963402 0.264240 0.045494 0.546691
C92   C     C_R   0.272916 0.259426 0.059976 0.548530
C93   C     C_R   0.259335 0.959668 0.043810 0.549331
C94   C     C_R   0.962565 0.267662 0.930725 0.542934
C95   C     C_R   0.270898 0.264084 0.945394 0.545372
C96   C     C_R   0.256098 0.965008 0.928976 0.543354
Cr1   Cr    Cr6+3 0.576280 0.580550 0.506370 1.047020
Cr2   Cr    Cr6+3 0.346780 0.572400 0.496520 1.069386
Cr3   Cr    Cr6+3 0.576960 0.347070 0.497150 1.113358
Cr4   Cr    Cr6+3 0.087320 0.083240 0.984860 1.018588
Cr5   Cr    Cr6+3 0.087720 0.316210 0.996740 1.020820
Cr6   Cr    Cr6+3 0.317350 0.090340 0.995890 1.027031
H1    H     H_    0.451125 0.171150 0.108249 0.170331
H2    H     H_    0.737732 0.235384 0.399622 0.163294
H3    H     H_    0.859888 0.445997 0.089570 0.141788
H4    H     H_    0.831754 0.470381 0.340027 0.161864
H5    H     H_    0.786618 0.200316 0.329912 0.162260
H6    H     H_    0.803853 0.466999 0.157412 0.160508
H7    H     H_    0.940217 0.122269 0.083471 0.134954
H8    H     H_    0.884132 0.143241 0.151547 0.150779
H9    H     H_    0.224032 0.756804 0.391453 0.152578
H10   H     H_    0.518209 0.755821 0.415025 0.171304
H11   H     H_    0.210568 0.816465 0.150437 0.148593
H12   H     H_    0.440029 0.913723 0.088695 0.164279
H13   H     H_    0.252537 0.531024 0.593540 0.166736
H14   H     H_    0.133336 0.429727 0.902432 0.131148
H15   H     H_    0.217311 0.516931 0.661216 0.155097
H16   H     H_    0.429823 0.185704 0.313436 0.189239
H17   H     H_    0.152714 0.464576 0.834854 0.134016
H18   H     H_    0.450965 0.184411 0.907855 0.132441
H19   H     H_    0.470118 0.219017 0.840457 0.134861
H20   H     H_    0.943053 0.125827 0.875799 0.129480
H21   H     H_    0.892874 0.146605 0.803365 0.116654
H22   H     H_    0.798129 0.200281 0.669255 0.133231
H23   H     H_    0.748288 0.235550 0.597718 0.163460
H24   H     H_    0.818222 0.467762 0.819802 0.112447
H25   H     H_    0.868012 0.448399 0.892215 0.129464
H26   H     H_    0.425455 0.937318 0.892347 0.130167
H27   H     H_    0.459878 0.887190 0.820885 0.116392
H28   H     H_    0.526320 0.737491 0.690070 0.126451
H29   H     H_    0.196897 0.831365 0.802674 0.118636
H30   H     H_    0.161260 0.881291 0.874014 0.129729
H31   H     H_    0.194093 0.880792 0.671068 0.149096
H32   H     H_    0.263133 0.531983 0.385778 0.146918
H33   H     H_    0.155690 0.452866 0.179513 0.133719
H34   H     H_    0.136665 0.422783 0.106204 0.146756
H35   H     H_    0.229630 0.514665 0.313016 0.137060
H36   H     H_    0.783070 0.505369 0.409533 0.155828
N1    N     N_R   0.821163 0.398968 0.226844 -0.209188
N2    N     N_R   0.244913 0.429524 0.727972 -0.226376
N3    N     N_R   0.397035 0.270817 0.728294 -0.226946
N4    N     N_R   0.394676 0.269661 0.768019 -0.229463
N5    N     N_R   0.816698 0.404309 0.266717 -0.203265
N6    N     N_R   0.827974 0.240333 0.262340 -0.204397
N7    N     N_R   0.832856 0.234812 0.222387 -0.200481
N8    N     N_R   0.322358 0.762892 0.218037 -0.233399
N9    N     N_R   0.323387 0.757210 0.257691 -0.232714
N10   N     N_R   0.399130 0.865478 0.269933 -0.118452
N11   N     N_R   0.397964 0.871245 0.230246 -0.118167
N12   N     N_R   0.242277 0.428118 0.767738 -0.233294
O1    O     O_R   0.679450 0.499830 0.463150 -0.510691
O2    O     O_R   0.356040 0.477400 0.534170 -0.515879
O3    O     O_R   0.495910 0.323070 0.537100 -0.438424
O4    O     O_R   0.663920 0.359620 0.542290 -0.497163
O5    O     O_3   0.500010 0.500010 0.500010 -0.273520
O6    O     O_R   0.170070 0.978950 0.027680 -0.515355
O7    O     O_R   0.001760 0.175230 0.026640 -0.500973
O8    O     O_R   0.984760 0.333570 0.037150 -0.517214
O9    O     O_R   0.183410 0.309240 0.041890 -0.498288
O10   O     O_R   0.340240 0.172500 0.045430 -0.513349
O11   O     O_R   0.309670 0.000990 0.032050 -0.500167
O12   O     O_R   0.480650 0.664000 0.464630 -0.498126
O13   O     O_R   0.168330 0.982130 0.939200 -0.519808
O14   O     O_R   0.000140 0.178170 0.944610 -0.501930
O15   O     O_R   0.983010 0.336750 0.948660 -0.518416
O16   O     O_R   0.181800 0.312190 0.959860 -0.502069
O17   O     O_R   0.338500 0.175680 0.956950 -0.518738
O18   O     O_R   0.308050 0.003930 0.950020 -0.501311
O19   O     O_3   0.164130 0.163270 0.992500 -0.240162
O20   O     O_R   0.323930 0.675950 0.455370 -0.505350
O21   O     O_R   0.354700 0.475360 0.451930 -0.517466
O22   O     O_R   0.494470 0.320860 0.448390 -0.441024
O23   O     O_R   0.662580 0.357570 0.460050 -0.497949
O24   O     O_R   0.680900 0.502040 0.551870 -0.516869
O25   O     O_R   0.481990 0.666040 0.546870 -0.509489
O26   O     O_R   0.325370 0.678160 0.544080 -0.449005
H37   H     H_    0.166779 0.874753 0.082111 0.145300
Cl1   Cl    Cl    0.515420 0.169908 0.191570 -0.515167
H38   H     H_    0.214919 0.800142 0.322216 0.147648
Cl2   Cl    Cl    0.553374 0.799280 0.340129 -0.490177
Cl3   Cl    Cl    0.532443 0.847874 0.165812 -0.497565
Cl4   Cl    Cl    0.507656 0.157491 0.577253 -0.535948
H39   H     H_    0.440033 0.191989 0.655477 0.169188
H40   H     H_    0.768018 0.519780 0.619656 0.136945
Cl5   Cl    Cl    0.493761 0.153992 0.396137 -0.493470
H41   H     H_    0.817949 0.483144 0.691088 0.117911
H42   H     H_    0.543679 0.687319 0.618069 0.142856
Cl6   Cl    Cl    0.162990 0.850773 0.586526 -0.558354

loop_
_geom_bond_atom_site_label_1
_geom_bond_atom_site_label_2
_ccdc_geom_bond_type
C8    C9    A    
C7    C13   A    
C66   C68   A    
C87   C88   T    
Cr6   O17   S    
Cr1   O25   S    
C55   C59   A    
C41   C42   A    
C74   C94   S    
C36   C42   S    
C83   H26   S    
C7    C8    A    
C12   O22   A    
Cr2   O2    S    
C85   C86   A    
C25   C28   A    
C26   C27   A    
C29   C30   A    
C77   H31   S    
C46   H13   S    
C92   O9    A    
C20   N1    A    
C38   C42   A    
C48   C52   S    
C69   C70   A    
C5    C6    A    
C31   C32   A    
C36   N11   A    
Cr2   O5    S    
C68   C74   A    
C15   C16   A    
Cr3   O4    S    
C1    O20   A    
Cr1   O12   S    
C18   C19   A    
C31   H38   S    
C18   H5    S    
C91   O8    A    
C34   O25   A    
C33   C35   A    
C49   H39   S    
N1    N5    A    
Cr4   O7    S    
C40   C43   A    
C40   H12   S    
C66   C71   A    
C51   N12   A    
C16   C17   A    
Cr3   O5    S    
Cr5   O16   S    
C96   O18   A    
Cr5   O19   S    
C70   C71   A    
C28   C91   S    
C9    C10   S    
C26   H8    S    
C76   Cl6   S    
C25   H7    S    
C34   C75   S    
C55   H18   S    
C15   H36   S    
C70   H24   S    
Cr6   O19   S    
C14   C15   A    
C33   Cl2   S    
C41   Cl3   S    
C50   Cl4   S    
C67   C78   A    
C84   C90   A    
C2    C11   S    
C43   C93   S    
C94   O15   A    
C79   C88   S    
C39   H37   S    
C44   C46   A    
C12   O21   A    
C54   C59   A    
C77   C79   A    
C78   C89   A    
C38   C39   A    
C12   C67   S    
C80   H28   S    
C63   C64   A    
C32   C37   S    
C76   C77   A    
C21   N5    A    
C56   O4    A    
C94   O14   A    
C68   H20   S    
C38   H11   S    
C86   C87   S    
C80   C81   A    
C39   C43   A    
Cr3   O22   S    
C63   C73   S    
C25   C26   A    
C82   C86   A    
C84   H30   S    
C37   N9    A    
C56   C60   S    
C54   H14   S    
C60   C61   A    
C60   C65   A    
C65   H23   S    
C14   C23   S    
C2    C89   A    
C75   C76   A    
C5    C9    A    
C62   C63   A    
C3    H16   S    
Cr2   O26   S    
C19   H2    S    
C47   C48   A    
Cr3   O23   S    
C93   O11   A    
C53   C54   A    
C1    C29   S    
C17   C18   A    
Cr1   O1    S    
C69   C74   A    
Cr4   O14   S    
C51   C58   S    
C6    H1    S    
C84   C85   A    
C82   H27   S    
Cr5   O15   S    
C78   H32   S    
C69   H25   S    
C59   C95   S    
Cr2   O21   S    
C36   N8    A    
C40   C41   A    
C1    O12   A    
C49   C50   A    
C89   H35   S    
C22   C27   A    
C55   C57   A    
C13   C92   S    
C22   C24   A    
C45   O3    A    
Cr6   O10   S    
C3    C4    A    
C95   O16   A    
N2    N12   A    
C44   C45   S    
N8    N9    A    
C51   N4    A    
C44   C50   A    
C83   C90   A    
C23   O1    A    
C46   C47   A    
C48   C49   A    
C61   H40   S    
Cr6   O18   S    
Cr1   O24   S    
C4    Cl5   S    
Cr4   O19   S    
C20   N7    A    
C14   C19   A    
C93   O6    A    
C75   C81   A    
C24   C28   A    
C21   N6    A    
C72   C73   T    
C95   O17   A    
C92   O10   A    
Cr5   O8    S    
C4    C67   A    
C53   C58   A    
C53   H17   S    
C90   C96   S    
C23   O23   A    
C20   C27   S    
C16   H4    S    
C29   C35   A    
C52   N3    A    
C96   O13   A    
C62   H41   S    
C30   H9    S    
N6    N7    A    
C45   O2    A    
C64   C65   A    
C2    C3    A    
C7    H34   S    
C64   H22   S    
N3    N4    A    
C32   C33   A    
C6    C13   A    
Cr4   O6    S    
C57   C58   A    
C30   C31   A    
Cr6   O11   S    
C22   H6    S    
Cr3   O3    S    
C52   N2    A    
Cr4   O13   S    
N10   N11   A    
Cr1   O5    S    
C37   N10   A    
C61   C62   A    
C17   C21   S    
C5    Cl1   S    
C91   O7    A    
C34   O26   A    
C10   C11   T    
C57   H19   S    
C79   C80   A    
Cr2   O20   S    
C47   H15   S    
C71   C72   S    
Cr5   O9    S    
C82   C83   A    
C56   O24   A    
C66   H21   S    
C24   H3    S    
C81   H42   S    
C85   H29   S    
C35   H10   S    
C8    H33   S    
