data_mof_unit_68380.cif
_audit_creation_date              2012-12-10T16:53:53-0500
_audit_creation_method            fapswitch 2.2
_symmetry_space_group_name_H-M    P1
_symmetry_Int_Tables_number       1
_space_group_crystal_system       triclinic
_cell_length_a                    8.110465
_cell_length_b                    8.624979
_cell_length_c                    10.976684
_cell_angle_alpha                 92.596434
_cell_angle_beta                  87.314054
_cell_angle_gamma                 93.325708
_cell_volume                      765.013790445

loop_
_atom_site_label
_atom_site_type_symbol
_atom_type_description
_atom_site_fract_x
_atom_site_fract_y
_atom_site_fract_z
_atom_type_partial_charge
Br1   Br    Br    0.154864 0.624496 0.153421 -0.691582
Br2   Br    Br    0.727319 0.758371 0.845537 -0.684392
C1    C     C_R   0.544503 0.793091 0.499736 0.962128
C2    C     C_3   0.379609 0.616276 0.937949 -0.471647
C3    C     C_3   0.378893 0.635201 0.078766 0.034946
C4    C     C_3   0.458959 0.330238 0.927478 -0.213751
C5    C     C_3   0.676593 0.557616 0.929568 0.386060
C6    C     C_3   0.505734 0.498555 0.880740 -0.025023
C7    C     C_3   0.457018 0.203345 0.136629 -0.463514
C8    C     C_3   0.309426 0.156749 0.223651 -0.380588
C9    C     C_3   0.301763 0.986103 0.248783 -0.849116
C10   C     C_3   0.325504 0.236438 0.851656 -0.403008
C11   C     C_3   0.261250 0.079164 0.899882 -0.384871
C12   C     C_3   0.490353 0.512506 0.123726 -0.027236
C13   C     C_3   0.133944 0.999023 0.816906 -0.840815
C14   C     C_3   0.804306 0.431869 0.897680 -0.441170
C15   C     C_3   0.973124 0.505295 0.904447 -0.395707
C16   C     C_3   0.031664 0.542428 0.777620 -0.756775
C17   C     C_3   0.733976 0.726420 0.151558 -0.335780
C18   C     C_3   0.795064 0.880942 0.096852 -0.307134
C19   C     C_3   0.844653 0.002114 0.196400 -0.945494
C20   C     C_3   0.419903 0.348888 0.066842 -0.069869
C21   C     C_3   0.666969 0.573147 0.074798 -0.164847
C22   C     C_2   0.567815 0.957673 0.504369 -0.356716
C23   C     C_2   0.435758 0.043939 0.517857 -0.368561
C24   C     C_R   0.502851 0.499189 0.741572 0.895691
C25   C     C_R   0.456672 0.207618 0.508901 0.909352
C26   C     C_R   0.496030 0.505074 0.259985 0.849988
H1    H     H_    0.262138 0.567601 0.916792 0.242688
H2    H     H_    0.283781 0.354710 0.071260 0.224528
H3    H     H_    0.254161 0.925362 0.166179 0.292615
H4    H     H_    0.425298 0.946935 0.268059 0.264901
H5    H     H_    0.213633 0.961084 0.326641 0.268912
H6    H     H_    0.318090 0.226509 0.307989 0.267527
H7    H     H_    0.187931 0.180844 0.188371 0.216717
H8    H     H_    0.482761 0.104189 0.072668 0.221336
H9    H     H_    0.571202 0.223751 0.188036 0.215692
H10   H     H_    0.191610 0.969435 0.726012 0.262524
H11   H     H_    0.084791 0.890125 0.858148 0.271549
H12   H     H_    0.748885 0.486796 0.107563 0.185796
H13   H     H_    0.029518 0.074609 0.806550 0.275209
H14   H     H_    0.365374 0.002226 0.905038 0.237382
H15   H     H_    0.199158 0.095696 0.990787 0.248722
H16   H     H_    0.220764 0.306038 0.840693 0.231446
H17   H     H_    0.380083 0.212319 0.758617 0.210802
H18   H     H_    0.927396 0.579656 0.729114 0.307703
H19   H     H_    0.122972 0.642529 0.774451 0.259771
H20   H     H_    0.072106 0.434675 0.729754 0.272447
H21   H     H_    0.974972 0.615145 0.959936 0.296724
H22   H     H_    0.048917 0.423748 0.948685 0.224063
H23   H     H_    0.562341 0.253477 0.912850 0.168451
H24   H     H_    0.796598 0.335730 0.962510 0.148593
H25   H     H_    0.787537 0.364486 0.810357 0.229888
H26   H     H_    0.737177 0.026571 0.259160 0.264218
H27   H     H_    0.943961 0.959932 0.250146 0.291148
H28   H     H_    0.889789 0.112016 0.153943 0.253345
H29   H     H_    0.906229 0.864375 0.036239 0.276370
H30   H     H_    0.694003 0.929587 0.048834 0.250371
H31   H     H_    0.638891 0.760663 0.221860 0.176997
H32   H     H_    0.834737 0.692481 0.207872 0.270330
H33   H     H_    0.693563 0.007348 0.492947 0.187024
H34   H     H_    0.310373 0.994144 0.529767 0.179860
H35   H     H_    0.002481 0.361325 0.425503 0.200491
H36   H     H_    0.006026 0.650143 0.555603 0.204962
H37   H     H_    0.392638 0.731211 0.896066 0.205949
H38   H     H_    0.429195 0.754010 0.100922 0.166110
N1    N     N_2   0.950330 0.457950 0.465890 -0.168994
N2    N     N_2   0.049670 0.542050 0.534110 -0.205745
O1    O     O_R   0.389250 0.738570 0.508370 -0.605884
O2    O     O_R   0.678390 0.711620 0.486510 -0.613244
O3    O     O_R   0.355430 0.513500 0.696140 -0.643293
O4    O     O_R   0.644580 0.486550 0.674270 -0.612498
O5    O     O_R   0.321610 0.288380 0.513490 -0.648752
O6    O     O_R   0.610750 0.261430 0.491630 -0.612344
O7    O     O_R   0.355420 0.513450 0.325730 -0.560182
O8    O     O_R   0.644570 0.486500 0.303860 -0.645824
Zn1   Zn    Zn3+2 0.306940 0.517990 0.514600 0.937280
Zn2   Zn    Zn3+2 0.693060 0.482010 0.485400 0.945746

loop_
_geom_bond_atom_site_label_1
_geom_bond_atom_site_label_2
_ccdc_geom_bond_type
C12   C21   S    
C15   H22   S    
C19   H28   S    
C17   C21   S    
C13   H10   S    
C22   H33   S    
C4    H23   S    
O2    Zn2   S    
C25   O6    A    
C6    C24   S    
C7    C8    S    
O1    Zn1   S    
C2    H1    S    
O3    Zn1   S    
C11   H15   S    
C2    C6    S    
C12   C26   S    
C16   H19   S    
C12   C20   S    
C17   C18   S    
C7    H9    S    
C15   C16   S    
C3    C12   S    
C9    H3    S    
C5    C6    S    
C10   H16   S    
C26   O8    A    
C22   C23   D    
O4    Zn2   S    
C24   O3    A    
O7    Zn1   S    
C13   H11   S    
C1    C22   S    
C8    H7    S    
N1    Zn2   S    
C5    C21   S    
C2    C3    S    
C16   H18   S    
C11   H14   S    
C1    O1    A    
O8    Zn2   S    
C9    H4    S    
H35   N1    S    
C23   H34   S    
C11   C13   S    
C4    C10   S    
C19   H26   S    
C17   H32   S    
Br1   C3    S    
C7    C20   S    
C14   C15   S    
C8    C9    S    
C18   H30   S    
N1    N2    D    
C4    C20   S    
C7    H8    S    
H36   N2    S    
C9    H5    S    
C1    O2    A    
C24   O4    A    
C10   C11   S    
C13   H13   S    
C8    H6    S    
O6    Zn2   S    
C15   H21   S    
N2    Zn1   S    
C19   H27   S    
C21   H12   S    
O5    Zn1   S    
C2    H37   S    
C3    H38   S    
C4    C6    S    
C20   H2    S    
C17   H31   S    
C18   C19   S    
C25   O5    A    
C26   O7    A    
C18   H29   S    
C5    C14   S    
C14   H24   S    
Br2   C5    S    
C10   H17   S    
C14   H25   S    
C23   C25   S    
C16   H20   S    
