data_mof_unit_61354.cif
_audit_creation_date              2012-10-26T18:35:19-0400
_audit_creation_method            fapswitch 2.2
_symmetry_space_group_name_H-M    P1
_symmetry_Int_Tables_number       1
_space_group_crystal_system       triclinic
_cell_length_a                    10.877576
_cell_length_b                    14.396008
_cell_length_c                    13.095053
_cell_angle_alpha                 90.000577
_cell_angle_beta                  90.00021
_cell_angle_gamma                 90.022914
_cell_volume                      2050.60225863

loop_
_atom_site_label
_atom_site_type_symbol
_atom_type_description
_atom_site_fract_x
_atom_site_fract_y
_atom_site_fract_z
_atom_type_partial_charge
C1    C     C_R   0.499994 0.328442 0.499999 0.558835
C2    C     C_R   0.743375 0.495347 0.500000 0.611465
C3    C     C_R   0.500006 0.671559 0.500000 0.546473
C4    C     C_3   0.072741 0.445402 0.604972 0.283131
C5    C     C_3   0.072742 0.445390 0.395033 0.283135
C6    C     C_3   0.927191 0.445374 0.604950 0.283316
C7    C     C_3   0.927192 0.445363 0.395055 0.283315
C8    C     C_3   0.070942 0.594146 0.499994 -0.297241
C9    C     C_3   0.929220 0.594164 0.499995 -0.297396
C10   C     C_3   0.120391 0.491780 0.500000 0.060651
C11   C     C_3   0.879612 0.491803 0.500000 0.060668
C12   C     C_1   0.499995 0.957649 0.500000 -0.003781
C13   C     C_1   0.500013 0.226748 0.499999 -0.048648
C14   C     C_1   0.500017 0.141943 0.499999 -0.048736
C15   C     C_1   0.500008 0.042385 0.500000 -0.004417
C16   C     C_1   0.499985 0.858086 0.500001 -0.047183
C17   C     C_1   0.499988 0.773274 0.500001 -0.051580
C18   C     C_1   0.500000 0.500005 0.173737 0.108073
C19   C     C_1   0.500000 0.500005 0.826263 0.108072
C20   C     C_1   0.500000 0.499993 0.050780 -0.055111
C21   C     C_1   0.500000 0.499993 0.949219 -0.055112
C22   C     C_R   0.256604 0.495383 0.500000 0.611368
Cu1   Cu    Cu3+1 0.500000 0.499990 0.592680 0.974698
Cu2   Cu    Cu3+1 0.500000 0.499990 0.407320 0.974695
H1    H     H_    0.106076 0.635791 0.564443 0.120773
H2    H     H_    0.824941 0.469723 0.748375 0.250905
H3    H     H_    0.902678 0.570279 0.295816 0.218652
H4    H     H_    0.824942 0.469696 0.251627 0.250903
H5    H     H_    0.161753 0.331543 0.690926 0.241277
H6    H     H_    0.118148 0.296976 0.569053 0.216689
H7    H     H_    0.161760 0.331527 0.309092 0.241275
H8    H     H_    0.118154 0.296958 0.430957 0.216676
H9    H     H_    0.838145 0.331452 0.690785 0.241133
H10   H     H_    0.881216 0.296862 0.569052 0.216499
H11   H     H_    0.838145 0.331434 0.309232 0.241134
H12   H     H_    0.106074 0.635784 0.435540 0.120776
H13   H     H_    0.881221 0.296857 0.430969 0.216505
H14   H     H_    0.894180 0.635837 0.564430 0.120540
H15   H     H_    0.894179 0.635831 0.435556 0.120541
H16   H     H_    0.096567 0.570291 0.704334 0.218857
H17   H     H_    0.175428 0.470075 0.748154 0.251019
H18   H     H_    0.096562 0.570268 0.295657 0.218859
H19   H     H_    0.175432 0.470049 0.251851 0.251016
H20   H     H_    0.902681 0.570299 0.704178 0.218653
N1    N     N_1   0.500000 0.500020 0.268070 -0.172338
N2    N     N_3   0.877839 0.350073 0.380028 -0.618262
N3    N     N_1   0.500000 0.500020 0.731930 -0.172338
N4    N     N_3   0.119397 0.500814 0.692886 -0.604533
N5    N     N_3   0.119396 0.500792 0.307114 -0.604534
N6    N     N_3   0.880533 0.500673 0.692928 -0.604495
N7    N     N_3   0.880533 0.500653 0.307072 -0.604494
N8    N     N_3   0.121949 0.350119 0.620121 -0.618229
N9    N     N_3   0.121950 0.350104 0.379893 -0.618233
N10   N     N_3   0.877838 0.350084 0.619987 -0.618258
O1    O     O_R   0.500000 0.376050 0.578280 -0.474130
O2    O     O_R   0.500000 0.376050 0.421720 -0.474132
O3    O     O_R   0.317680 0.499980 0.578260 -0.473929
O4    O     O_R   0.317680 0.499980 0.421740 -0.473934
O5    O     O_R   0.682320 0.499980 0.578260 -0.473867
O6    O     O_R   0.682320 0.499980 0.421740 -0.473869
O7    O     O_R   0.500000 0.623940 0.578240 -0.475898
O8    O     O_R   0.500000 0.623940 0.421760 -0.475898

loop_
_geom_bond_atom_site_label_1
_geom_bond_atom_site_label_2
_ccdc_geom_bond_type
C22   O4    A    
C7    C11   S    
Cu1   Cu2   S    
C7    N2    S    
Cu1   O1    S    
Cu2   O2    S    
C5    C7    S    
C6    C11   S    
C12   C15   T    
C9    H15   S    
Cu2   O6    S    
C10   C22   S    
C22   O3    A    
H2    N6    S    
C1    O1    A    
C7    N7    S    
C5    C10   S    
C13   C14   T    
C6    N6    S    
Cu1   O5    S    
C8    H1    S    
C9    C11   S    
H10   N10   S    
C5    N5    S    
C16   C17   T    
C4    N8    S    
Cu2   N1    S    
Cu2   O4    S    
C9    H14   S    
C19   C21   S    
H17   N4    S    
H3    N7    S    
C3    C17   S    
C18   C20   S    
C3    O7    A    
C8    H12   S    
Cu2   O8    S    
H4    N7    S    
C2    O6    A    
C3    O8    A    
C1    C13   S    
C2    C11   S    
H18   N5    S    
C4    C10   S    
C18   N1    T    
C12   C16   S    
H8    N9    S    
Cu1   O7    S    
Cu1   N3    S    
C20   C21   T    
C4    C6    S    
C6    N10   S    
C4    N4    S    
C19   N3    T    
C5    N9    S    
H9    N10   S    
Cu1   O3    S    
H6    N8    S    
H16   N4    S    
H19   N5    S    
H20   N6    S    
H13   N2    S    
C2    O5    A    
H11   N2    S    
C1    O2    A    
C8    C10   S    
H7    N9    S    
C14   C15   S    
C8    C9    S    
H5    N8    S    
