data_mof_unit_48128.cif
_audit_creation_date              2012-10-26T21:19:38-0400
_audit_creation_method            fapswitch 2.2
_symmetry_space_group_name_H-M    P1
_symmetry_Int_Tables_number       1
_space_group_crystal_system       triclinic
_cell_length_a                    10.907326
_cell_length_b                    15.132221
_cell_length_c                    13.861052
_cell_angle_alpha                 91.274197
_cell_angle_beta                  91.475322
_cell_angle_gamma                 91.258209
_cell_volume                      2285.89028908

loop_
_atom_site_label
_atom_site_type_symbol
_atom_type_description
_atom_site_fract_x
_atom_site_fract_y
_atom_site_fract_z
_atom_type_partial_charge
Br1   Br    Br    0.291120 0.697735 0.146473 -0.635927
Br2   Br    Br    0.689845 0.278699 0.826726 -0.597651
C1    C     C_R   0.501550 0.330231 0.498841 0.537873
C2    C     C_R   0.457162 0.807148 0.412996 -0.138291
C3    C     C_R   0.499453 0.234115 0.495092 0.021597
C4    C     C_R   0.496872 0.768525 0.499750 0.001377
C5    C     C_R   0.577931 0.186376 0.434630 -0.015514
C6    C     C_R   0.532948 0.824575 0.579427 -0.013149
C7    C     C_R   0.566447 0.094400 0.430374 -0.121649
C8    C     C_R   0.526328 0.915838 0.569949 -0.123603
C9    C     C_R   0.478529 0.049869 0.484217 0.023505
C10   C     C_R   0.482470 0.953199 0.485238 0.022442
C11   C     C_R   0.582926 0.553593 0.111655 -0.115847
C12   C     C_R   0.500700 0.670795 0.500867 0.540452
C13   C     C_R   0.442263 0.429712 0.888125 -0.116026
C14   C     C_R   0.578580 0.554810 0.212691 0.069784
C15   C     C_R   0.440063 0.433612 0.786915 0.081597
C16   C     C_R   0.262028 0.500077 0.498426 0.543120
C17   C     C_R   0.737871 0.497958 0.501348 0.537233
C18   C     C_R   0.426417 0.441524 0.207362 0.054508
C19   C     C_R   0.561445 0.564226 0.794071 0.047572
C20   C     C_R   0.427836 0.438189 0.106282 -0.126794
C21   C     C_R   0.560215 0.565542 0.895246 -0.130765
C22   C     C_R   0.504642 0.495997 0.055208 0.039878
C23   C     C_R   0.871664 0.495038 0.503203 -0.008400
C24   C     C_R   0.502287 0.496866 0.945417 0.028387
C25   C     C_R   0.200133 0.595711 0.184878 0.164475
C26   C     C_R   0.779767 0.384334 0.798683 0.165104
C27   C     C_R   0.171214 0.585731 0.281854 -0.032752
C28   C     C_R   0.824332 0.396337 0.706183 -0.035081
C29   C     C_R   0.105510 0.510384 0.310574 0.007060
C30   C     C_R   0.891326 0.473497 0.685465 0.004187
C31   C     C_R   0.066850 0.446371 0.240545 -0.121258
C32   C     C_R   0.917436 0.536716 0.759085 -0.105458
C33   C     C_R   0.090845 0.457749 0.142661 -0.028211
C34   C     C_R   0.128150 0.499072 0.495748 -0.005140
C35   C     C_R   0.872338 0.525579 0.851987 -0.027628
C36   C     C_R   0.159114 0.532516 0.115426 -0.075573
C37   C     C_R   0.802986 0.448798 0.871132 -0.084345
C38   C     C_R   0.929763 0.503653 0.415083 -0.155768
C39   C     C_R   0.069827 0.489239 0.583876 -0.154991
C40   C     C_3   0.032916 0.395103 0.067424 -0.260976
C41   C     C_3   0.128100 0.344950 0.009905 -0.307394
C42   C     C_3   0.066759 0.283154 0.933762 -0.435418
C43   C     C_3   0.902678 0.593205 0.931373 -0.260796
C44   C     C_3   0.869359 0.687348 0.902653 -0.295932
C45   C     C_R   0.942947 0.485882 0.588904 -0.032989
C46   C     C_3   0.868927 0.749858 0.990537 -0.445200
C47   C     C_3   0.308287 0.053700 0.610876 -0.246549
C48   C     C_3   0.201548 0.008638 0.553354 -0.303904
C49   C     C_3   0.104384 0.972607 0.620302 -0.452559
C50   C     C_3   0.412225 0.935596 0.306915 -0.248104
C51   C     C_3   0.283531 0.974191 0.307727 -0.295958
C52   C     C_3   0.243253 0.003234 0.207280 -0.445117
C53   C     C_3   0.678870 0.230590 0.378487 -0.242676
C54   C     C_3   0.639222 0.241149 0.272421 -0.277331
C55   C     C_3   0.732381 0.297325 0.219019 -0.446498
C56   C     C_R   0.056652 0.504740 0.409311 -0.028792
C57   C     C_3   0.576893 0.793142 0.676629 -0.244244
C58   C     C_3   0.468112 0.782134 0.744466 -0.292096
C59   C     C_3   0.506992 0.798701 0.850006 -0.453590
C60   C     C_R   0.400969 0.097759 0.546072 0.002857
C61   C     C_R   0.450374 0.898864 0.404038 -0.009462
C62   C     C_R   0.412946 0.189871 0.550205 -0.119165
Cu1   Cu    Cu3+1 0.500000 0.499990 0.596430 0.938640
Cu2   Cu    Cu3+1 0.500000 0.500010 0.403570 0.929051
H1    H     H_    0.178878 0.542477 0.040279 0.131706
H2    H     H_    0.612828 0.614360 0.757865 0.112183
H3    H     H_    0.367418 0.390769 0.069942 0.077250
H4    H     H_    0.606159 0.620125 0.932844 0.094602
H5    H     H_    0.197944 0.637139 0.334357 0.135924
H6    H     H_    0.806885 0.345881 0.650543 0.132309
H7    H     H_    0.012085 0.389860 0.262078 0.103692
H8    H     H_    0.973156 0.594559 0.743645 0.110417
H9    H     H_    0.875900 0.510457 0.348872 0.133125
H10   H     H_    0.123284 0.482467 0.650278 0.135993
H11   H     H_    0.353482 0.227925 0.596003 0.108610
H12   H     H_    0.768192 0.438332 0.942552 0.128364
H13   H     H_    0.430009 0.765353 0.351285 0.167008
H14   H     H_    0.004560 0.234765 0.968153 0.172665
H15   H     H_    0.013517 0.321752 0.880650 0.177536
H16   H     H_    0.138031 0.246412 0.894753 0.136862
H17   H     H_    0.188056 0.392672 0.972480 0.152870
H18   H     H_    0.184672 0.305135 0.059810 0.158015
H19   H     H_    0.970793 0.346435 0.101643 0.141826
H20   H     H_    0.975819 0.433912 0.017624 0.145880
H21   H     H_    0.797566 0.728405 0.041308 0.146035
H22   H     H_    0.960082 0.751140 0.028289 0.181366
H23   H     H_    0.629630 0.056879 0.387367 0.105478
H24   H     H_    0.848235 0.817731 0.967051 0.143437
H25   H     H_    0.937328 0.713111 0.851332 0.155760
H26   H     H_    0.777921 0.687223 0.866011 0.148571
H27   H     H_    0.854101 0.575389 0.998033 0.134566
H28   H     H_    0.002650 0.591924 0.948177 0.148008
H29   H     H_    0.144989 0.923448 0.669428 0.150903
H30   H     H_    0.065424 0.027209 0.663851 0.158113
H31   H     H_    0.028998 0.939645 0.576697 0.144005
H32   H     H_    0.235419 0.952499 0.509634 0.173528
H33   H     H_    0.158445 0.056882 0.504359 0.156709
H34   H     H_    0.555281 0.959079 0.630196 0.119236
H35   H     H_    0.353854 0.005174 0.657699 0.144346
H36   H     H_    0.269621 0.103693 0.660966 0.138451
H37   H     H_    0.307963 0.054487 0.180968 0.149429
H38   H     H_    0.239744 0.945819 0.155835 0.183593
H39   H     H_    0.150356 0.031598 0.210270 0.138384
H40   H     H_    0.216732 0.923624 0.332659 0.169443
H41   H     H_    0.282643 0.032689 0.357298 0.166547
H42   H     H_    0.479849 0.986478 0.284686 0.135931
H43   H     H_    0.413093 0.882413 0.250238 0.178204
H44   H     H_    0.740606 0.364771 0.252273 0.164571
H45   H     H_    0.649012 0.597359 0.079864 0.077617
H46   H     H_    0.823592 0.266101 0.221297 0.137440
H47   H     H_    0.701807 0.303249 0.142431 0.159356
H48   H     H_    0.629947 0.174906 0.236323 0.150936
H49   H     H_    0.548661 0.273145 0.267574 0.182742
H50   H     H_    0.705897 0.295865 0.411640 0.160200
H51   H     H_    0.762751 0.190177 0.382276 0.125037
H52   H     H_    0.588589 0.759926 0.868957 0.140604
H53   H     H_    0.529839 0.869951 0.862927 0.156833
H54   H     H_    0.430813 0.779510 0.897449 0.176559
H55   H     H_    0.394933 0.829693 0.726664 0.161425
H56   H     H_    0.398309 0.373086 0.919428 0.095317
H57   H     H_    0.427205 0.714585 0.735289 0.186093
H58   H     H_    0.630435 0.732389 0.669301 0.145152
H59   H     H_    0.644235 0.842565 0.708646 0.132858
H60   H     H_    0.639132 0.599369 0.254516 0.121262
H61   H     H_    0.392003 0.382073 0.744831 0.128976
H62   H     H_    0.365999 0.397133 0.244935 0.120139
N1    N     N_R   0.500000 0.500020 0.258690 -0.218655
N2    N     N_R   0.500000 0.499980 0.741310 -0.221232
O1    O     O_R   0.500010 0.371450 0.581430 -0.494972
O2    O     O_R   0.499990 0.628550 0.418570 -0.501233
O3    O     O_R   0.500010 0.371460 0.418560 -0.515987
O4    O     O_R   0.499990 0.628540 0.581440 -0.513828
O5    O     O_R   0.319640 0.500000 0.581430 -0.517566
O6    O     O_R   0.680360 0.500000 0.418570 -0.526331
O7    O     O_R   0.319640 0.500010 0.418560 -0.496390
O8    O     O_R   0.680360 0.499990 0.581440 -0.489927

loop_
_geom_bond_atom_site_label_1
_geom_bond_atom_site_label_2
_ccdc_geom_bond_type
C49   H31   S    
C53   C54   S    
C13   H56   S    
C59   H53   S    
C32   C35   A    
C41   H17   S    
C62   H11   S    
C5    C53   S    
C18   N1    A    
C9    C60   A    
C43   H27   S    
Cu1   N2    S    
C12   O2    A    
C51   C52   S    
C2    C61   A    
C48   H33   S    
C1    O1    A    
C29   C56   S    
C52   H38   S    
C22   C24   S    
C18   H62   S    
C42   H16   S    
C6    C57   S    
C47   H35   S    
C55   H46   S    
C44   H26   S    
C53   H50   S    
C25   C36   A    
C54   C55   S    
C5    C7    A    
C21   C24   A    
C33   C40   S    
C60   C62   A    
C51   H40   S    
C46   H22   S    
C40   H20   S    
C23   C45   A    
C20   H3    S    
Cu1   O4    S    
C49   H30   S    
Cu2   N1    S    
C15   N2    A    
C57   C58   S    
C46   H24   S    
C59   H54   S    
C41   H18   S    
C21   H4    S    
C14   H60   S    
C34   C39   A    
C43   H28   S    
Cu1   O1    S    
Cu2   O2    S    
C35   C37   A    
C44   C46   S    
C48   H32   S    
C38   C56   A    
C37   H12   S    
C52   H37   S    
C42   H14   S    
C33   C36   A    
C2    H13   S    
C2    C4    A    
C42   H15   S    
C7    H23   S    
C47   H36   S    
C3    C5    A    
C10   C61   A    
C15   H61   S    
C13   C24   A    
C4    C6    A    
C44   H25   S    
C12   O4    A    
C26   C37   A    
C17   O6    A    
C43   C44   S    
C11   C22   A    
C58   C59   S    
C1    O3    A    
C30   C32   A    
C16   O7    A    
C41   C42   S    
C4    C12   S    
Cu2   O3    S    
C51   H41   S    
C55   H44   S    
C29   C31   A    
C48   C49   S    
C39   C45   A    
C46   H21   S    
C16   O5    A    
C40   H19   S    
C55   H47   S    
C8    H34   S    
C14   N1    A    
C7    C9    A    
C50   H42   S    
Cu1   O5    S    
C8    C10   A    
C32   H8    S    
Cu2   O6    S    
Cu1   O8    S    
C31   H7    S    
C18   C20   A    
Cu1   Cu2   S    
C19   C21   A    
C19   H2    S    
C30   C45   S    
C20   C22   A    
C40   C41   S    
C35   C43   S    
C50   C51   S    
C53   H51   S    
C57   H58   S    
C13   C15   A    
C47   C60   S    
C52   H39   S    
C59   H52   S    
C1    C3    S    
C50   C61   S    
C28   H6    S    
C9    C10   S    
C57   H59   S    
C34   C56   A    
C38   H9    S    
C23   C38   A    
C26   C28   A    
C27   C29   A    
C39   H10   S    
C28   C30   A    
Cu2   O7    S    
C25   C27   A    
C50   H43   S    
C17   O8    A    
C11   H45   S    
C31   C33   A    
C54   H49   S    
C58   H55   S    
C17   C23   S    
C19   N2    A    
C58   H57   S    
C36   H1    S    
C3    C62   A    
C6    C8    A    
C47   C48   S    
C11   C14   A    
Br1   C25   S    
C54   H48   S    
Br2   C26   S    
C16   C34   S    
C49   H29   S    
C27   H5    S    
