data_mof_unit_29455.cif
_audit_creation_date              2012-12-11T14:24:57-0500
_audit_creation_method            fapswitch 2.2
_symmetry_space_group_name_H-M    P1
_symmetry_Int_Tables_number       1
_space_group_crystal_system       triclinic
_cell_length_a                    19.21069
_cell_length_b                    11.379429
_cell_length_c                    18.676465
_cell_angle_alpha                 90.771251
_cell_angle_beta                  90.154557
_cell_angle_gamma                 89.643887
_cell_volume                      4082.33737407

loop_
_atom_site_label
_atom_site_type_symbol
_atom_type_description
_atom_site_fract_x
_atom_site_fract_y
_atom_site_fract_z
_atom_type_partial_charge
C1    C     C_R   0.730831 0.372265 0.145845 0.540191
C2    C     C_R   0.254058 0.904756 0.073752 0.061626
C3    C     C_R   0.657285 0.570050 0.439720 -0.008486
C4    C     C_R   0.891690 0.127314 0.542039 -0.109736
C5    C     C_R   0.105490 0.128188 0.478927 -0.114257
C6    C     C_R   0.391690 0.627314 0.542039 -0.109741
C7    C     C_R   0.605490 0.628187 0.478928 -0.114255
C8    C     C_R   0.915765 0.091311 0.474315 -0.030779
C9    C     C_R   0.085002 0.086597 0.546052 -0.013988
C10   C     C_R   0.415765 0.591312 0.474315 -0.030778
C11   C     C_R   0.585002 0.586595 0.546051 -0.013992
C12   C     C_R   0.879168 0.009090 0.434070 0.316813
C13   C     C_R   0.257692 0.390225 0.933181 0.033100
C14   C     C_R   0.118543 0.989927 0.575417 0.335226
C15   C     C_R   0.379169 0.509091 0.434070 0.316817
C16   C     C_R   0.618544 0.489926 0.575417 0.335219
C17   C     C_R   0.764313 0.910966 0.420116 0.025254
C18   C     C_R   0.236654 0.903180 0.580875 0.029160
C19   C     C_R   0.264314 0.410965 0.420116 0.025249
C20   C     C_R   0.736655 0.403180 0.580874 0.029159
C21   C     C_R   0.729429 0.377020 0.355685 0.563105
C22   C     C_R   0.270352 0.375756 0.644493 0.569553
C23   C     C_R   0.229429 0.877019 0.355686 0.563092
C24   C     C_R   0.754018 0.404695 0.073727 0.061441
C25   C     C_R   0.770351 0.875759 0.644495 0.569533
C26   C     C_R   0.530280 0.158729 0.350703 0.596565
C27   C     C_R   0.461805 0.155346 0.643920 0.601677
C28   C     C_R   0.030280 0.658729 0.350702 0.596580
C29   C     C_R   0.961803 0.655346 0.643920 0.601675
C30   C     C_R   0.745011 0.967172 0.353080 0.604805
C31   C     C_R   0.255433 0.965815 0.646868 0.607869
C32   C     C_R   0.245012 0.467171 0.353080 0.604789
C33   C     C_R   0.755433 0.465815 0.646867 0.607856
C34   C     C_3   0.570689 0.185676 0.952730 0.209249
C35   C     C_R   0.699559 0.844474 0.971093 -0.017389
C36   C     C_3   0.541730 0.266146 0.012658 0.229263
C37   C     C_3   0.070753 0.685421 0.952723 0.209220
C38   C     C_3   0.041893 0.766076 0.012609 0.229131
C39   C     C_3   0.567940 0.079233 0.003656 -0.165426
C40   C     C_3   0.466724 0.240917 0.987438 -0.136688
C41   C     C_3   0.067833 0.579067 0.003704 -0.165281
C42   C     C_3   0.966856 0.741124 0.987382 -0.136577
C43   C     C_3   0.538006 0.160295 0.062977 -0.016817
C44   C     C_3   0.496322 0.160335 0.928072 -0.003704
C45   C     C_3   0.037997 0.660312 0.062981 -0.016777
C46   C     C_R   0.294530 0.828519 0.027933 0.039244
C47   C     C_3   0.996355 0.660350 0.928058 -0.003710
C48   C     C_R   0.199535 0.344574 0.971066 -0.017334
C49   C     C_R   0.794496 0.328452 0.027912 0.039178
C50   C     C_R   0.702661 0.842324 0.047146 -0.031372
C51   C     C_R   0.287439 0.839652 0.952623 0.043026
C52   C     C_R   0.202639 0.342394 0.047119 -0.031533
C53   C     C_R   0.271106 0.370464 0.855928 0.541314
C54   C     C_R   0.787418 0.339586 0.952599 0.043085
C55   C     C_R   0.815458 0.932865 0.046431 -0.130804
C56   C     C_R   0.218750 0.016595 0.971914 -0.070619
C57   C     C_R   0.315439 0.432932 0.046413 -0.131057
C58   C     C_R   0.718648 0.516446 0.971880 -0.070536
C59   C     C_R   0.815200 0.929229 0.972974 -0.158823
C60   C     C_R   0.221069 0.001870 0.044710 -0.051119
C61   C     C_R   0.315186 0.429299 0.972956 -0.158831
C62   C     C_R   0.720978 0.501751 0.044673 -0.051248
C63   C     C_R   0.638414 0.801636 0.937401 -0.139278
C64   C     C_R   0.230835 0.872273 0.145850 0.540274
C65   C     C_R   0.343941 0.745635 0.053083 -0.064045
C66   C     C_R   0.138386 0.301770 0.937365 -0.139296
C67   C     C_R   0.843905 0.245571 0.053068 -0.064144
C68   C     C_R   0.086754 0.246289 0.977310 -0.036302
C69   C     C_R   0.883214 0.177227 0.004994 -0.064185
C70   C     C_R   0.586787 0.746162 0.977356 -0.036213
C71   C     C_R   0.383234 0.677281 0.005003 -0.064123
C72   C     C_R   0.593346 0.737484 0.051403 0.265135
C73   C     C_R   0.372298 0.684531 0.931682 0.237820
C74   C     C_R   0.093331 0.237525 0.051353 0.265112
C75   C     C_R   0.771121 0.870422 0.855943 0.541267
C76   C     C_R   0.872301 0.184490 0.931669 0.237751
C77   C     C_R   0.651265 0.782828 0.085450 -0.079004
C78   C     C_R   0.321248 0.758997 0.906120 0.010904
C79   C     C_R   0.151244 0.282874 0.085411 -0.079138
C80   C     C_R   0.821255 0.258955 0.906095 0.010818
C81   C     C_R   0.560358 0.151228 0.137957 0.571034
C82   C     C_R   0.466837 0.154859 0.855189 0.600343
C83   C     C_R   0.060358 0.651231 0.137956 0.571055
C84   C     C_R   0.966858 0.654862 0.855178 0.600361
C85   C     C_R   0.756464 0.902421 0.083563 0.035229
C86   C     C_3   0.463795 0.135385 0.037893 0.243024
C87   C     C_R   0.250016 0.935549 0.925219 0.074208
C88   C     C_R   0.256448 0.402469 0.083543 0.035097
C89   C     C_R   0.749981 0.435465 0.925192 0.074350
C90   C     C_R   0.480152 0.161050 0.567285 0.000597
C91   C     C_R   0.490424 0.172860 0.417395 -0.000697
C92   C     C_R   0.980150 0.661050 0.567284 0.000602
C93   C     C_R   0.990423 0.672860 0.417394 -0.000691
C94   C     C_R   0.477759 0.059357 0.522912 -0.003355
C95   C     C_R   0.464217 0.072551 0.449342 -0.006602
C96   C     C_R   0.977757 0.559357 0.522911 -0.003355
C97   C     C_3   0.492844 0.055143 0.978891 0.237566
C98   C     C_R   0.964215 0.572550 0.449341 -0.006600
C99   C     C_R   0.499054 0.273033 0.460868 0.267487
C100  C     C_R   0.482357 0.269485 0.532653 0.258394
C101  C     C_R   0.999053 0.773032 0.460868 0.267486
C102  C     C_R   0.982354 0.769485 0.532653 0.258397
C103  C     C_R   0.492417 0.946103 0.546641 -0.069043
C104  C     C_R   0.440355 0.976699 0.408393 -0.053800
C105  C     C_R   0.992416 0.446103 0.546640 -0.069044
C106  C     C_R   0.940354 0.476698 0.408392 -0.053800
C107  C     C_R   0.981036 0.351505 0.501308 -0.142234
C108  C     C_3   0.963757 0.635674 0.037893 0.243003
C109  C     C_R   0.949996 0.364859 0.434349 -0.108601
C110  C     C_R   0.481037 0.851506 0.501309 -0.142234
C111  C     C_R   0.449997 0.864860 0.434350 -0.108597
C112  C     C_R   0.756863 0.902869 0.569044 0.032767
C113  C     C_R   0.241333 0.903198 0.431860 0.034564
C114  C     C_R   0.256864 0.402866 0.569043 0.032771
C115  C     C_R   0.741333 0.403199 0.431860 0.034560
C116  C     C_R   0.800727 0.983630 0.534899 0.045977
C117  C     C_R   0.192779 0.974606 0.469827 0.063687
C118  C     C_R   0.300727 0.483629 0.534899 0.045975
C119  C     C_3   0.992711 0.555245 0.978933 0.237521
C120  C     C_R   0.692779 0.474606 0.469827 0.063685
C121  C     C_R   0.817013 0.963260 0.462300 0.084581
C122  C     C_R   0.179331 0.947095 0.541911 0.090806
C123  C     C_R   0.317014 0.463259 0.462299 0.084580
C124  C     C_R   0.679331 0.447095 0.541910 0.090805
C125  C     C_R   0.718046 0.837414 0.453670 -0.107120
C126  C     C_R   0.287111 0.841086 0.542820 -0.106902
C127  C     C_R   0.218047 0.337411 0.453669 -0.107119
C128  C     C_R   0.787112 0.341088 0.542819 -0.106903
C129  C     C_R   0.743339 0.965612 0.151225 0.534960
C130  C     C_R   0.757710 0.890141 0.933203 0.032887
C131  C     C_R   0.258178 0.973172 0.851561 0.560653
C132  C     C_R   0.243336 0.465621 0.151219 0.535007
C133  C     C_R   0.758169 0.473142 0.851549 0.560773
C134  C     C_R   0.729997 0.812061 0.525382 0.182621
C135  C     C_R   0.272734 0.813484 0.471699 0.180491
C136  C     C_R   0.229998 0.312058 0.525381 0.182620
C137  C     C_R   0.772735 0.313486 0.471698 0.180490
C138  C     C_R   0.833516 0.076156 0.571488 -0.015898
C139  C     C_R   0.157285 0.070049 0.439720 -0.008488
C140  C     C_R   0.333516 0.576155 0.571488 -0.015898
Cl1   Cl    Cl    0.541688 0.397426 0.432523 -0.538467
Cl2   Cl    Cl    0.090266 0.932485 0.658858 -0.483556
Cl3   Cl    Cl    0.414510 0.459906 0.350652 -0.518257
Cl4   Cl    Cl    0.590266 0.432482 0.658858 -0.483500
Cl5   Cl    Cl    0.639953 0.214831 0.892908 -0.588040
Cl6   Cl    Cl    0.567113 0.411534 0.033314 -0.520607
Cl7   Cl    Cl    0.140105 0.714208 0.892931 -0.588207
Cl8   Cl    Cl    0.067390 0.911419 0.033213 -0.520701
Cl9   Cl    Cl    0.391547 0.104470 0.094051 -0.561443
Cl10  Cl    Cl    0.458821 0.914978 0.960301 -0.564494
Cl11  Cl    Cl    0.891439 0.605122 0.094034 -0.561400
Cl12  Cl    Cl    0.460151 0.401631 0.574031 -0.540106
Cl13  Cl    Cl    0.958596 0.415126 0.960405 -0.564566
Cl14  Cl    Cl    0.029328 0.173714 0.104504 -0.557157
Cl15  Cl    Cl    0.928470 0.112694 0.870779 -0.572948
Cl16  Cl    Cl    0.529315 0.673799 0.104574 -0.557056
Cl17  Cl    Cl    0.428447 0.612731 0.870777 -0.572775
Cl18  Cl    Cl    0.041688 0.897425 0.432523 -0.538470
Cl19  Cl    Cl    0.960150 0.901632 0.574031 -0.540102
Cl20  Cl    Cl    0.774151 0.678195 0.536727 -0.664899
Cl21  Cl    Cl    0.222145 0.685579 0.463822 -0.636584
Cl22  Cl    Cl    0.274153 0.178192 0.536726 -0.664908
Cl23  Cl    Cl    0.722145 0.185581 0.463822 -0.636592
Cl24  Cl    Cl    0.914509 0.959904 0.350653 -0.518249
Cr1   Cr    Cr6+3 0.772820 0.169820 0.252640 1.097357
Cr2   Cr    Cr6+3 0.383280 0.011130 0.749340 1.083404
Cr3   Cr    Cr6+3 0.116720 0.511130 0.250660 1.068449
Cr4   Cr    Cr6+3 0.883280 0.511130 0.749340 1.083388
Cr5   Cr    Cr6+3 0.227180 0.169820 0.747360 1.102336
Cr6   Cr    Cr6+3 0.272820 0.669820 0.252640 1.097404
Cr7   Cr    Cr6+3 0.727180 0.669820 0.747360 1.102357
Cr8   Cr    Cr6+3 0.615040 0.323610 0.249150 1.186515
Cr9   Cr    Cr6+3 0.384960 0.323610 0.750850 1.188937
Cr10  Cr    Cr6+3 0.115040 0.823610 0.249150 1.186524
Cr11  Cr    Cr6+3 0.884960 0.823610 0.750850 1.188893
Cr12  Cr    Cr6+3 0.616720 0.011130 0.250660 1.068520
H1    H     H_    0.609853 0.014415 0.012261 0.154110
H2    H     H_    0.358251 0.738995 0.108629 0.199073
H3    H     H_    0.128704 0.311484 0.880869 0.183447
H4    H     H_    0.858207 0.238929 0.108616 0.199039
H5    H     H_    0.041653 0.210284 0.950550 0.235594
H6    H     H_    0.922674 0.118017 0.024284 0.202519
H7    H     H_    0.541697 0.710107 0.950601 0.235629
H8    H     H_    0.422698 0.618071 0.024285 0.202591
H9    H     H_    0.656691 0.767478 0.142256 0.167516
H10   H     H_    0.311666 0.757799 0.849051 0.168640
H11   H     H_    0.156673 0.267493 0.142213 0.167513
H12   H     H_    0.426040 0.307055 0.980596 0.152526
H13   H     H_    0.811696 0.257774 0.849010 0.168563
H14   H     H_    0.517795 0.929417 0.597230 0.151315
H15   H     H_    0.422871 0.987479 0.353633 0.143039
H16   H     H_    0.017794 0.429416 0.597229 0.151315
H17   H     H_    0.922871 0.487478 0.353631 0.143024
H18   H     H_    0.997961 0.269123 0.519215 0.076544
H19   H     H_    0.938928 0.290456 0.399808 0.133706
H20   H     H_    0.497962 0.769123 0.519216 0.076543
H21   H     H_    0.438930 0.790458 0.399809 0.133717
H22   H     H_    0.678704 0.794417 0.422303 0.114393
H23   H     H_    0.109627 0.514068 0.012374 0.154253
H24   H     H_    0.338308 0.828481 0.564843 0.124424
H25   H     H_    0.178707 0.294412 0.422301 0.114390
H26   H     H_    0.838311 0.328487 0.564842 0.124424
H27   H     H_    0.817179 0.104278 0.624505 0.144604
H28   H     H_    0.169895 0.100883 0.386794 0.135585
H29   H     H_    0.317179 0.604277 0.624504 0.144623
H30   H     H_    0.669896 0.600885 0.386794 0.135594
H31   H     H_    0.964668 0.120723 0.453854 0.150862
H32   H     H_    0.043097 0.126966 0.575779 0.138384
H33   H     H_    0.464669 0.620724 0.453855 0.150864
H34   H     H_    0.926355 0.807557 0.980493 0.152745
H35   H     H_    0.543096 0.626962 0.575779 0.138387
H36   H     H_    0.860556 0.967296 0.074249 0.171475
H37   H     H_    0.192932 0.093434 0.951909 0.151701
H38   H     H_    0.360541 0.467344 0.074234 0.171518
H39   H     H_    0.692795 0.593243 0.951875 0.151749
H40   H     H_    0.862561 0.954524 0.947437 0.188663
H41   H     H_    0.193034 0.063021 0.078681 0.169584
H42   H     H_    0.362570 0.454522 0.947431 0.188792
H43   H     H_    0.692923 0.562894 0.078635 0.169667
H44   H     H_    0.920474 0.185805 0.576537 0.113129
H45   H     H_    0.079637 0.201191 0.454172 0.104828
H46   H     H_    0.420474 0.685805 0.576538 0.113135
H47   H     H_    0.579636 0.701190 0.454172 0.104830
H48   H     H_    0.628731 0.811304 0.880904 0.183476
O1    O     O_R   0.788190 0.043000 0.172520 -0.507088
O2    O     O_R   0.454170 0.051610 0.669840 -0.542755
O3    O     O_R   0.045830 0.551610 0.330160 -0.518360
O4    O     O_R   0.954170 0.551610 0.669840 -0.542767
O5    O     O_R   0.681920 0.959720 0.327070 -0.501260
O6    O     O_R   0.318080 0.959720 0.672930 -0.509428
O7    O     O_R   0.181920 0.459720 0.327070 -0.501261
O8    O     O_R   0.818080 0.459720 0.672930 -0.509452
O9    O     O_3   0.668190 0.168190 0.250820 -0.313256
O10   O     O_3   0.331810 0.168190 0.749180 -0.307918
O11   O     O_3   0.168190 0.668190 0.250820 -0.313247
O12   O     O_R   0.211810 0.043000 0.827480 -0.485936
O13   O     O_3   0.831810 0.668190 0.749180 -0.307880
O14   O     O_R   0.766240 0.292300 0.176860 -0.535906
O15   O     O_R   0.233760 0.292300 0.823140 -0.534518
O16   O     O_R   0.266240 0.792300 0.176860 -0.535892
O17   O     O_R   0.733760 0.792300 0.823140 -0.534504
O18   O     O_R   0.670310 0.409160 0.168720 -0.470225
O19   O     O_R   0.329690 0.409160 0.831280 -0.473129
O20   O     O_R   0.170310 0.909160 0.168720 -0.470156
O21   O     O_R   0.829690 0.909160 0.831280 -0.473135
O22   O     O_R   0.556160 0.251900 0.173380 -0.438762
O23   O     O_R   0.288190 0.543000 0.172520 -0.507051
O24   O     O_R   0.443840 0.251900 0.826620 -0.471354
O25   O     O_R   0.056160 0.751900 0.173380 -0.438732
O26   O     O_R   0.943840 0.751900 0.826620 -0.471444
O27   O     O_R   0.545410 0.050140 0.168240 -0.459421
O28   O     O_R   0.454590 0.050140 0.831760 -0.457365
O29   O     O_R   0.045410 0.550140 0.168240 -0.459589
O30   O     O_R   0.954590 0.550140 0.831760 -0.457368
O31   O     O_R   0.681530 0.958350 0.176970 -0.539057
O32   O     O_R   0.318470 0.958350 0.823030 -0.507510
O33   O     O_R   0.181530 0.458350 0.176970 -0.539056
O34   O     O_R   0.711810 0.543000 0.827480 -0.485967
O35   O     O_R   0.818470 0.458350 0.823030 -0.507465
O36   O     O_R   0.788610 0.044480 0.334450 -0.442361
O37   O     O_R   0.211390 0.044480 0.665550 -0.449205
O38   O     O_R   0.288610 0.544480 0.334450 -0.442364
O39   O     O_R   0.711390 0.544480 0.665550 -0.449202
O40   O     O_R   0.766630 0.293670 0.326970 -0.475690
O41   O     O_R   0.233370 0.293670 0.673030 -0.473978
O42   O     O_R   0.266630 0.793670 0.326970 -0.475689
O43   O     O_R   0.733370 0.793670 0.673030 -0.473977
O44   O     O_R   0.670730 0.410640 0.330640 -0.479124
O45   O     O_R   0.556550 0.253260 0.323480 -0.400111
O46   O     O_R   0.329270 0.410640 0.669360 -0.472047
O47   O     O_R   0.170730 0.910640 0.330640 -0.479147
O48   O     O_R   0.829270 0.910640 0.669360 -0.472048
O49   O     O_R   0.443450 0.253260 0.676520 -0.393102
O50   O     O_R   0.056550 0.753260 0.323480 -0.400109
O51   O     O_R   0.943450 0.753260 0.676520 -0.393112
O52   O     O_R   0.545830 0.051610 0.330160 -0.518350

loop_
_geom_bond_atom_site_label_1
_geom_bond_atom_site_label_2
_ccdc_geom_bond_type
C125  C134  A    
C29   O51   A    
C134  Cl20  S    
C58   C62   A    
C14   Cl2   S    
C59   C130  A    
Cr1   O9    S    
C101  C102  A    
C72   Cl16  S    
Cr5   O12   S    
C55   C59   A    
Cr6   O42   S    
C77   H9    S    
C80   H13   S    
C39   H1    S    
C66   C68   A    
Cr7   O39   S    
C108  C119  S    
C117  C122  A    
C112  C116  A    
C4    C8    A    
C18   C126  A    
Cr10  O11   S    
C53   O15   A    
Cr12  O27   S    
C136  Cl22  S    
Cr8   O9    S    
C100  Cl12  S    
C7    C11   A    
C105  C107  A    
C19   C123  A    
Cr1   O14   S    
C72   C77   A    
C15   C123  A    
C83   O29   A    
C103  C110  A    
C30   O36   A    
C32   O38   A    
C30   O5    A    
C82   O28   A    
C6    H46   S    
C16   Cl4   S    
Cr4   O35   S    
C38   C42   S    
C3    C7    A    
C10   C15   A    
Cr9   O46   S    
C34   Cl5   S    
C2    C60   A    
Cr10  O20   S    
C39   C97   S    
C23   C113  S    
C65   H2    S    
C68   C74   A    
C49   C54   A    
C26   O45   A    
C31   O6    A    
C73   Cl17  S    
C92   C96   A    
C64   O16   A    
C5    C139  A    
C3    C120  A    
C74   Cl14  S    
C27   C90   S    
C138  H27   S    
C87   C131  S    
C86   C97   S    
C110  C111  A    
C38   C45   S    
C10   H33   S    
C50   C85   A    
C85   C129  S    
C55   H36   S    
Cr3   O3    S    
C12   C121  A    
C115  C137  A    
C4    H44   S    
C96   C98   A    
Cr2   O32   S    
C97   Cl10  S    
Cr7   O43   S    
C78   H10   S    
C51   C78   A    
Cr8   O22   S    
C37   C47   S    
C33   O8    A    
C40   C44   S    
C13   C53   S    
C75   O21   A    
C45   C108  S    
C8    C12   A    
C69   H6    S    
C27   O49   A    
C11   H35   S    
C58   H39   S    
C22   O46   A    
C37   Cl7   S    
C47   C119  S    
C32   O7    A    
Cr8   O18   S    
C119  Cl13  S    
C114  C136  A    
C140  H29   S    
C6    C140  A    
C17   C30   S    
C25   C112  S    
C105  H16   S    
C117  C139  A    
C81   O27   A    
C118  C140  A    
C19   C32   S    
Cr12  O52   S    
C28   O3    A    
C90   C100  A    
C42   C47   S    
C25   O43   A    
C2    C64   S    
C90   C94   A    
C106  H17   S    
C54   C80   A    
C68   H5    S    
C89   C133  S    
Cr5   O10   S    
C31   O37   A    
C84   O26   A    
C34   C39   S    
Cr4   O30   S    
C20   C128  A    
C129  O31   A    
C53   O19   A    
C45   C83   S    
C34   C44   S    
C127  C136  A    
C54   C89   A    
C116  C121  A    
C86   Cl9   S    
C40   C86   S    
Cr3   O29   S    
C71   C73   A    
C9    C14   A    
C93   C101  A    
C59   H40   S    
Cr11  O26   S    
C39   C43   S    
Cr7   O13   S    
C26   C91   S    
C65   C71   A    
C104  H15   S    
C91   C95   A    
C46   C51   A    
C110  H20   S    
C2    C46   A    
C5    H45   S    
C56   C60   A    
C28   C93   S    
C67   C69   A    
C104  C111  A    
Cr4   O4    S    
C55   C85   A    
C8    H31   S    
Cr3   O11   S    
Cr2   O10   S    
C5    C9    A    
C37   C38   S    
C75   O17   A    
C25   O48   A    
C57   H38   S    
Cr4   O8    S    
C108  Cl11  S    
C7    H47   S    
C44   C97   S    
Cr9   O19   S    
C21   O40   A    
C28   O50   A    
C99   C100  A    
C71   H8    S    
C63   C70   A    
C48   C52   A    
C73   C78   A    
C23   O47   A    
C35   C50   A    
Cr1   O1    S    
Cr1   O40   S    
Cr10  O25   S    
C103  H14   S    
C128  H26   S    
C47   C84   S    
C41   C119  S    
Cr3   O7    S    
C127  H25   S    
C35   C130  A    
C38   Cl8   S    
C56   H37   S    
Cr10  O47   S    
C23   O42   A    
C79   H11   S    
C61   H42   S    
C18   C122  A    
C128  C137  A    
C15   Cl3   S    
C20   C33   S    
Cr9   O24   S    
C36   Cl6   S    
C133  O34   A    
Cr7   O17   S    
C126  C135  A    
Cr12  O9    S    
Cr11  O21   S    
C74   C79   A    
C84   O30   A    
C43   C81   S    
C41   H23   S    
C113  C117  A    
Cr6   O23   S    
C1    O18   A    
C101  Cl18  S    
C88   C132  S    
C51   C87   A    
C52   C79   A    
C50   C77   A    
Cr9   O49   S    
C36   C40   S    
Cr9   O10   S    
C3    H30   S    
C96   C105  A    
C137  Cl23  S    
Cr11  O51   S    
Cr6   O11   S    
C133  O35   A    
C126  H24   S    
C24   C49   A    
Cr6   O16   S    
C114  C118  A    
C24   C62   A    
C49   C67   A    
C64   O20   A    
C94   C103  A    
C131  O32   A    
C43   C86   S    
Cr5   O41   S    
C81   O22   A    
C99   Cl1   S    
Cr7   O34   S    
C76   C80   A    
C112  C134  A    
Cr8   O45   S    
C56   C87   A    
C9    H32   S    
C42   H34   S    
C102  Cl19  S    
C125  H22   S    
C13   C48   A    
C35   C63   A    
C75   C130  S    
C27   O2    A    
C57   C61   A    
C132  O33   A    
C40   H12   S    
C92   C102  A    
C131  O12   A    
C66   H3    S    
C33   O39   A    
C76   Cl15  S    
C44   C82   S    
C21   C115  S    
C98   C106  A    
Cr1   O36   S    
Cr6   O38   S    
C139  H28   S    
C21   O44   A    
C62   H43   S    
C135  Cl21  S    
C57   C88   A    
Cr8   O44   S    
C1    O14   A    
Cr11  O13   S    
C60   H41   S    
C111  H21   S    
C95   C104  A    
C26   O52   A    
C67   H4    S    
C22   O41   A    
C17   C125  A    
Cr10  O50   S    
C107  C109  A    
C12   Cl24  S    
Cr12  O5    S    
Cr11  O48   S    
C19   C127  A    
C132  O23   A    
C58   C89   A    
C63   H48   S    
C109  H19   S    
C34   C36   S    
C118  C123  A    
C107  H18   S    
C37   C41   S    
C94   C95   A    
C52   C88   A    
Cr2   O28   S    
C82   O24   A    
C20   C124  A    
C11   C16   A    
C6    C10   A    
C46   C65   A    
C116  C138  A    
C4    C138  A    
Cr5   O37   S    
C70   H7    S    
C22   C114  S    
Cr5   O15   S    
C13   C61   A    
C69   C76   A    
C17   C121  A    
C1    C24   S    
Cr2   O6    S    
C115  C120  A    
C113  C135  A    
C129  O1    A    
C14   C122  A    
C41   C45   S    
C36   C43   S    
C70   C72   A    
C18   C31   S    
Cr3   O33   S    
C29   O4    A    
C48   C66   A    
C91   C99   A    
C16   C124  A    
Cr4   O13   S    
C42   C108  S    
C93   C98   A    
C29   C92   S    
C83   O25   A    
C120  C124  A    
Cr2   O2    S    
Cr12  O31   S    
C106  C109  A    
