data_mof_unit_20337.cif
_audit_creation_date              2012-12-10T19:03:05-0500
_audit_creation_method            fapswitch 2.2
_symmetry_space_group_name_H-M    P1
_symmetry_Int_Tables_number       1
_space_group_crystal_system       triclinic
_cell_length_a                    10.751959
_cell_length_b                    10.871902
_cell_length_c                    9.587669
_cell_angle_alpha                 91.304204
_cell_angle_beta                  90.292705
_cell_angle_gamma                 91.058625
_cell_volume                      1120.24460322

loop_
_atom_site_label
_atom_site_type_symbol
_atom_type_description
_atom_site_fract_x
_atom_site_fract_y
_atom_site_fract_z
_atom_type_partial_charge
C1    C     C_R   0.500910 0.262328 0.497699 0.793219
C2    C     C_3   0.878692 0.500265 0.502424 0.162075
C3    C     C_3   0.930558 0.609369 0.417256 -0.376294
C4    C     C_3   0.926427 0.377189 0.440239 -0.391162
C5    C     C_R   0.553112 0.067717 0.607835 -0.096197
C6    C     C_R   0.510828 0.128898 0.490585 -0.199196
C7    C     C_R   0.481257 0.057359 0.368011 -0.004969
C8    C     C_R   0.478883 0.929250 0.375386 -0.208605
C9    C     C_R   0.506500 0.870396 0.500097 -0.163569
C10   C     C_R   0.551289 0.941219 0.613190 0.025175
C11   C     C_3   0.519692 0.941097 0.765204 0.290420
C12   C     C_R   0.260086 0.500585 0.500129 0.750635
C13   C     C_3   0.521420 0.082244 0.760099 0.316251
C14   C     C_R   0.580823 0.573553 0.074983 0.134351
C15   C     C_R   0.413190 0.431902 0.073084 0.590253
C16   C     C_R   0.415691 0.431808 0.922210 -0.157774
C17   C     C_R   0.576844 0.578084 0.928497 0.252425
C18   C     C_3   0.714374 0.583819 0.917681 -0.527169
C19   C     C_3   0.720525 0.570277 0.074190 -0.223431
C20   C     C_R   0.500696 0.737351 0.501244 0.806196
C21   C     C_R   0.740263 0.500127 0.500660 0.742988
C22   C     C_3   0.073137 0.513450 0.653180 -0.367100
C23   C     C_3   0.930684 0.513868 0.653358 -0.383127
C24   C     C_3   0.073956 0.610673 0.417800 -0.382835
C25   C     C_3   0.069820 0.379615 0.435181 -0.372874
C26   C     C_3   0.122325 0.501059 0.501457 0.159572
Cu1   Cu    Cu3+1 0.499990 0.499980 0.640670 0.952157
Cu2   Cu    Cu3+1 0.500010 0.500020 0.359330 1.004916
H1    H     H_    0.109544 0.600170 0.703689 0.166515
H2    H     H_    0.888691 0.359388 0.334051 0.189492
H3    H     H_    0.107952 0.605302 0.308375 0.175704
H4    H     H_    0.897330 0.601713 0.307926 0.154655
H5    H     H_    0.451758 0.875367 0.283231 0.181689
H6    H     H_    0.426473 0.897907 0.783828 0.041159
H7    H     H_    0.427338 0.120795 0.776125 0.056843
H8    H     H_    0.105744 0.435490 0.716436 0.159721
H9    H     H_    0.352157 0.375737 0.859519 0.139100
H10   H     H_    0.750129 0.503375 0.859126 0.209616
H11   H     H_    0.748908 0.674676 0.882000 0.210683
H12   H     H_    0.763886 0.651247 0.129231 0.111360
H13   H     H_    0.897040 0.435511 0.716442 0.151174
H14   H     H_    0.898958 0.601355 0.702533 0.171139
H15   H     H_    0.109757 0.698984 0.464953 0.152579
H16   H     H_    0.896607 0.697964 0.461772 0.155146
H17   H     H_    0.099831 0.371922 0.324967 0.189223
H18   H     H_    0.106614 0.299175 0.490944 0.151776
H19   H     H_    0.893904 0.299426 0.505149 0.145936
N1    N     N_R   0.500800 0.500930 0.147930 -0.201123
N2    N     N_R   0.500800 0.500890 0.852020 -0.197945
O1    O     O_R   0.500000 0.319640 0.618810 -0.572729
O2    O     O_R   0.500010 0.319680 0.381230 -0.546243
O3    O     O_R   0.317690 0.499960 0.618790 -0.606534
O4    O     O_R   0.317700 0.500000 0.381210 -0.541605
O5    O     O_R   0.499990 0.680320 0.618770 -0.562342
O6    O     O_R   0.500000 0.680360 0.381190 -0.603101
O7    O     O_R   0.682300 0.500000 0.618790 -0.593954
O8    O     O_R   0.682310 0.500040 0.381210 -0.561005
C27   C     C_2   0.447010 0.109476 0.232027 0.381734
H20   H     H_    0.500485 0.184564 0.188498 0.171244
O9    O     O_2   0.361229 0.064031 0.163258 -0.590335
O10   O     O_3   0.618692 0.892771 0.843040 -0.555160
C28   C     C_3   0.583400 0.885346 0.984051 -0.242580
H21   H     H_    0.660913 0.845785 0.043855 0.159287
H22   H     H_    0.566451 0.977779 0.030159 0.211919
H23   H     H_    0.499928 0.824711 0.996585 0.136941
O11   O     O_3   0.610780 0.139979 0.852513 -0.537112
C29   C     C_3   0.726565 0.167906 0.790560 -0.181332
H24   H     H_    0.716537 0.237587 0.708530 0.149060
H25   H     H_    0.770906 0.083530 0.748093 0.166354
H26   H     H_    0.789603 0.208340 0.871999 0.169040
O12   O     O_3   0.330068 0.359948 0.149226 -0.551464
C30   C     C_3   0.231460 0.307002 0.069154 -0.364475
H27   H     H_    0.265971 0.236140 0.994267 0.189738
H28   H     H_    0.177279 0.378695 0.016008 0.128280
H29   H     H_    0.167322 0.257734 0.139603 0.205874
C31   C     C_2   0.778448 0.448793 0.108017 0.416332
H30   H     H_    0.879035 0.442552 0.107656 0.020942
O13   O     O_2   0.715279 0.356755 0.129896 -0.537546

loop_
_geom_bond_atom_site_label_1
_geom_bond_atom_site_label_2
_ccdc_geom_bond_type
C22   H1    S    
C4    C25   S    
Cu1   O5    S    
C7    C8    A    
Cu2   O8    S    
C23   H14   S    
C19   C31   S    
C31   O13   D    
C13   H7    S    
C30   H29   S    
C5    C6    A    
Cu2   O2    S    
C27   O9    D    
C15   C16   A    
C18   C19   S    
C28   H22   S    
C8    C9    A    
C1    O1    A    
C7    C27   S    
C5    C13   S    
C12   O4    A    
Cu1   O1    S    
C16   H9    S    
O11   C29   S    
C14   C17   A    
C3    C24   S    
C3    H4    S    
C15   N1    A    
C20   O6    A    
C12   O3    A    
Cu2   O6    S    
C13   O11   S    
C3    H16   S    
C29   H24   S    
C31   H30   S    
C30   H28   S    
C10   C11   S    
C17   N2    A    
Cu1   O7    S    
C14   N1    A    
C25   C26   S    
C1    C6    S    
C12   C26   S    
C29   H25   S    
C2    C4    S    
C18   H11   S    
C21   O8    A    
C28   H21   S    
C9    C20   S    
C2    C21   S    
C17   C18   S    
C16   N2    A    
C1    O2    A    
C20   O5    A    
C27   H20   S    
C25   H17   S    
C2    C23   S    
C15   O12   S    
Cu1   O3    S    
C9    C10   A    
Cu2   N1    S    
C28   H23   S    
C14   C19   S    
C11   H6    S    
C24   C26   S    
C30   H27   S    
C11   O10   S    
C21   O7    A    
Cu2   O4    S    
C6    C7    A    
C22   H8    S    
C23   H13   S    
C29   H26   S    
C2    C3    S    
C18   H10   S    
C24   H3    S    
C5    C10   A    
C11   C13   S    
C8    H5    S    
O10   C28   S    
C19   H12   S    
O12   C30   S    
C22   C26   S    
Cu1   Cu2   S    
C24   H15   S    
C22   C23   S    
C25   H18   S    
C4    H2    S    
Cu1   N2    S    
C4    H19   S    
