data_mof_unit_46459.cif
_audit_creation_date              2013-03-05T16:31:43-0500
_audit_creation_method            fapswitch 2.2
_symmetry_space_group_name_H-M    P1
_symmetry_Int_Tables_number       1
_space_group_crystal_system       triclinic
_cell_length_a                    14.313783
_cell_length_b                    15.017658
_cell_length_c                    15.350387
_cell_angle_alpha                 91.803429
_cell_angle_beta                  69.417
_cell_angle_gamma                 90.714536
_cell_volume                      3087.53715695

loop_
_atom_site_label
_atom_site_type_symbol
_atom_site_description
_atom_site_fract_x
_atom_site_fract_y
_atom_site_fract_z
_atom_type_partial_charge
O1    O     O_R   0.420530 0.630930 0.499990 -0.565643
O2    O     O_R   0.579470 0.369070 0.500010 -0.603468
O3    O     O_R   0.579480 0.630940 0.499990 -0.540172
O4    O     O_R   0.420520 0.369060 0.500010 -0.563960
C1    C     C_R   0.503240 0.672533 0.493579 0.947021
C2    C     C_R   0.499933 0.328424 0.498755 1.031663
O5    O     O_R   0.375120 0.499990 0.632240 -0.560969
O6    O     O_R   0.624880 0.500010 0.367760 -0.551965
O7    O     O_R   0.534080 0.500000 0.632240 -0.560961
O8    O     O_R   0.465920 0.500000 0.367760 -0.580601
C3    C     C_R   0.438059 0.494834 0.675847 0.981645
C4    C     C_R   0.562212 0.499237 0.323168 0.969410
Zn1   Zn    Zn3+2 0.393860 0.499990 0.500000 1.107720
Zn2   Zn    Zn3+2 0.606140 0.500010 0.500000 1.103492
C5    C     C_R   0.403534 0.465099 0.772972 -0.326511
C6    C     C_R   0.601042 0.486867 0.219940 -0.316157
C7    C     C_R   0.298737 0.369828 0.896040 0.241409
C8    C     C_R   0.740247 0.480818 0.070789 0.224512
C9    C     C_R   0.318194 0.410341 0.809802 0.196626
C10   C     C_R   0.703018 0.501748 0.166900 0.196788
C11   C     C_R   0.467539 0.478359 0.823468 0.365233
C12   C     C_R   0.536266 0.454612 0.174609 0.427931
C13   C     C_R   0.458442 0.424959 0.899529 -0.083717
C14   C     C_R   0.573769 0.430253 0.079107 -0.057723
C15   C     C_R   0.368887 0.377360 0.941556 -0.077345
C16   C     C_R   0.674794 0.449386 0.026347 -0.054314
C17   C     C_R   0.534385 0.422797 0.938267 0.113872
C18   C     C_R   0.509089 0.400930 0.031856 0.098504
C19   C     C_R   0.419774 0.353309 0.074271 -0.113200
C20   C     C_R   0.635238 0.438768 0.885796 -0.190906
C21   C     C_R   0.352653 0.338217 0.027662 -0.181052
C22   C     C_R   0.705604 0.445787 0.928891 -0.164767
H1    H     H_    0.286363 0.299197 0.061184 0.193879
H2    H     H_    0.782334 0.456790 0.885623 0.176520
H3    H     H_    0.402794 0.325207 0.142176 0.242285
H4    H     H_    0.660792 0.443819 0.811041 0.176097
C23   C     C_R   0.413056 0.903482 0.488847 -0.194596
C24   C     C_R   0.481127 0.098509 0.582215 -0.202144
H5    H     H_    0.348318 0.935186 0.482224 0.216436
H6    H     H_    0.477028 0.064537 0.644728 0.190877
C25   C     C_R   0.426006 0.812912 0.472138 0.484832
C26   C     C_R   0.494886 0.189961 0.578067 0.444243
C27   C     C_R   0.507613 0.770045 0.484031 -0.344059
C28   C     C_R   0.498503 0.233004 0.497357 -0.244476
C29   C     C_R   0.589401 0.822496 0.488789 0.175874
C30   C     C_R   0.496777 0.185090 0.417454 0.189412
C31   C     C_R   0.576769 0.915331 0.502373 0.273606
C32   C     C_R   0.487136 0.092356 0.421193 0.291980
C33   C     C_R   0.487533 0.954229 0.503959 -0.096481
C34   C     C_R   0.479965 0.050067 0.503849 -0.062377
C35   C     C_R   0.874142 0.546932 0.564444 0.300437
C36   C     C_R   0.107986 0.415663 0.494893 0.301349
C37   C     C_R   0.779863 0.558821 0.555047 0.211432
C38   C     C_R   0.210251 0.421122 0.483607 0.241940
N1    N     N_R   0.747530 0.500020 0.500000 -0.225851
N2    N     N_R   0.252470 0.499980 0.500000 -0.229454
C39   C     C_R   0.812560 0.435775 0.447782 0.219048
C40   C     C_R   0.194301 0.575536 0.519626 0.233839
C41   C     C_R   0.913620 0.434913 0.441857 0.291803
C42   C     C_R   0.102761 0.576110 0.502496 0.315908
C43   C     C_R   0.945972 0.490976 0.501462 -0.135600
C44   C     C_R   0.053786 0.494098 0.497903 -0.140036
O9    O     O_3   0.900386 0.597915 0.629017 -0.493938
C45   C     C_3   0.850764 0.566006 0.718946 0.054975
H7    H     H_    0.877285 0.497873 0.724739 0.120712
H8    H     H_    0.768441 0.565002 0.736722 0.162383
C46   C     C_3   0.873883 0.628177 0.788896 -0.590417
H9    H     H_    0.852982 0.697519 0.780506 0.271562
H10   H     H_    0.830629 0.608250 0.860830 0.202562
H11   H     H_    0.954809 0.625838 0.777783 0.281988
O10   O     O_3   0.064560 0.332781 0.495903 -0.506744
C47   C     C_3   0.009775 0.311797 0.589137 0.163999
H12   H     H_    0.954780 0.364710 0.625312 0.101362
H13   H     H_    0.061026 0.302049 0.628337 0.197663
C48   C     C_3   0.952018 0.225918 0.590281 -0.662406
H14   H     H_    0.004379 0.170833 0.556028 0.283738
H15   H     H_    0.909071 0.208349 0.663275 0.200362
H16   H     H_    0.899141 0.234622 0.552788 0.269983
N3    N     N_R   0.724140 0.637363 0.599357 0.248526
O11   O     O_R   0.628814 0.634788 0.642944 -0.345766
O12   O     O_R   0.771453 0.708053 0.612645 -0.299450
N4    N     N_R   0.269867 0.343574 0.449932 0.267905
O13   O     O_R   0.333101 0.341674 0.365074 -0.304248
O14   O     O_R   0.247011 0.269695 0.494824 -0.332726
N5    N     N_R   0.778894 0.366679 0.399757 0.266808
O15   O     O_R   0.773176 0.381431 0.318901 -0.297757
O16   O     O_R   0.780338 0.284677 0.424122 -0.349412
N6    N     N_R   0.218172 0.649781 0.569410 0.279363
O17   O     O_R   0.246106 0.634161 0.639415 -0.339950
O18   O     O_R   0.187211 0.729572 0.562997 -0.279515
O19   O     O_3   0.978153 0.374725 0.380970 -0.508166
C49   C     C_3   0.027721 0.416906 0.296403 0.148435
H17   H     H_    0.069429 0.476885 0.307030 0.097127
H18   H     H_    0.973838 0.436623 0.263133 0.215924
C50   C     C_3   0.101729 0.351875 0.230820 -0.645086
H19   H     H_    0.062200 0.291585 0.217955 0.294421
H20   H     H_    0.140408 0.384206 0.163751 0.212849
H21   H     H_    0.157859 0.332027 0.261405 0.260656
O20   O     O_3   0.057327 0.657069 0.502327 -0.485724
C51   C     C_3   0.053459 0.671729 0.413117 0.118174
H22   H     H_    0.990817 0.634267 0.402561 0.149026
H23   H     H_    0.123699 0.652050 0.356305 0.086057
C52   C     C_3   0.035635 0.770236 0.405277 -0.586215
H24   H     H_    0.096170 0.810410 0.416677 0.251167
H25   H     H_    0.034104 0.783196 0.334969 0.208870
H26   H     H_    0.963080 0.790632 0.458351 0.302802
O21   O     O_3   0.434230 0.455515 0.221529 -0.551009
C53   C     C_3   0.395402 0.536775 0.204852 0.118925
H27   H     H_    0.426128 0.555377 0.130284 0.116239
H28   H     H_    0.412392 0.590962 0.247556 0.149570
C54   C     C_3   0.283120 0.528326 0.231779 -0.829825
H29   H     H_    0.248256 0.515547 0.307160 0.238767
H30   H     H_    0.252022 0.590397 0.215646 0.202846
H31   H     H_    0.265634 0.472603 0.191132 0.261764
O22   O     O_3   0.537265 0.546444 0.800430 -0.587100
C55   C     C_3   0.498416 0.621477 0.859946 0.151010
H32   H     H_    0.448686 0.603797 0.931540 0.112028
H33   H     H_    0.455297 0.663089 0.828790 0.177796
C56   C     C_3   0.584039 0.676580 0.870435 -0.754838
H34   H     H_    0.634127 0.699559 0.801779 0.304363
H35   H     H_    0.553916 0.735798 0.916526 0.217681
H36   H     H_    0.627723 0.636142 0.901884 0.235730
N7    N     N_R   0.766687 0.547264 0.207938 0.265278
O23   O     O_R   0.743546 0.627548 0.242172 -0.330356
O24   O     O_R   0.855619 0.517190 0.194640 -0.311686
N8    N     N_R   0.251468 0.394213 0.760003 0.250031
O25   O     O_R   0.274602 0.335568 0.691627 -0.333336
O26   O     O_R   0.161725 0.427073 0.792130 -0.302625
N9    N     N_R   0.210793 0.316554 0.933616 0.230774
O27   O     O_R   0.201655 0.242303 0.891349 -0.290669
O28   O     O_R   0.134182 0.348689 0.001030 -0.335208
N10   N     N_R   0.842926 0.498880 0.017211 0.226235
O29   O     O_R   0.878234 0.579421 0.014486 -0.326412
O30   O     O_R   0.901774 0.434356 0.972371 -0.293105
O31   O     O_3   0.363947 0.768711 0.434080 -0.552988
C57   C     C_3   0.406956 0.772784 0.336041 0.121218
H37   H     H_    0.462991 0.718733 0.309033 0.123905
H38   H     H_    0.444390 0.837718 0.311552 0.198070
C58   C     C_3   0.325380 0.760775 0.294993 -0.793415
H39   H     H_    0.358627 0.754299 0.217939 0.209727
H40   H     H_    0.282257 0.699974 0.322771 0.248578
H41   H     H_    0.274566 0.819102 0.314370 0.275486
O32   O     O_3   0.505770 0.237993 0.652322 -0.608617
C59   C     C_3   0.600195 0.217947 0.656970 0.148539
H42   H     H_    0.660594 0.219081 0.587176 0.197541
H43   H     H_    0.598657 0.151411 0.687315 0.186623
C60   C     C_3   0.626094 0.287011 0.718923 -0.826979
H44   H     H_    0.570883 0.283777 0.790645 0.271373
H45   H     H_    0.701587 0.273684 0.720590 0.213697
H46   H     H_    0.625448 0.354450 0.691469 0.260702
N11   N     N_R   0.687881 0.785078 0.465021 0.257221
O33   O     O_R   0.720891 0.730053 0.393942 -0.309883
O34   O     O_R   0.752878 0.822125 0.496281 -0.276522
N12   N     N_R   0.514507 0.229233 0.331029 0.249951
O35   O     O_R   0.468356 0.203943 0.275015 -0.270532
O36   O     O_R   0.584157 0.289323 0.303727 -0.357345
N13   N     N_R   0.657081 0.971401 0.506399 0.238508
O37   O     O_R   0.706724 0.018882 0.435422 -0.300425
O38   O     O_R   0.672603 0.982952 0.584566 -0.367509
N14   N     N_R   0.494540 0.040494 0.339060 0.226979
O39   O     O_R   0.577197 0.999233 0.292340 -0.326534
O40   O     O_R   0.415669 0.026616 0.316951 -0.351228

loop_
_geom_bond_atom_site_label_1
_geom_bond_atom_site_label_2
_geom_bond_distance
_ccdc_geom_bond_type
C15   C21   1.405746 A    
C24   H6    1.083988 S    
C16   C22   1.402499 A    
N13   O37   1.300899 A    
C8    N10   1.436751 S    
C50   H19   1.110608 S    
C8    C16   1.408575 A    
C38   N4    1.424215 S    
C11   O22   1.384105 S    
C42   O20   1.386453 S    
C50   H21   1.111211 S    
N7    O23   1.298937 A    
C31   C33   1.403271 A    
N5    O15   1.298250 A    
C55   H32   1.117392 S    
O5    C3    1.301810 A    
C32   N14   1.433077 S    
N8    O25   1.300644 A    
O1    C1    1.305814 A    
C18   C19   1.411018 A    
C37   N3    1.442775 S    
C14   C16   1.417868 A    
C24   C26   1.385283 A    
C59   C60   1.514519 S    
C58   H41   1.110019 S    
C39   C41   1.417337 A    
C40   C42   1.424336 A    
C12   O21   1.382865 S    
C53   H27   1.115705 S    
C42   C44   1.421638 A    
C29   C31   1.407611 A    
O4    Zn1   2.007631 S    
C49   H17   1.113639 S    
C10   N7    1.433754 S    
C60   H44   1.108903 S    
C22   H2    1.078969 S    
C3    C5    1.478106 S    
C52   H25   1.110468 S    
C4    C6    1.489681 S    
C28   C30   1.409988 A    
N10   O29   1.301235 A    
C35   C43   1.403375 A    
C6    C12   1.414115 A    
N11   O33   1.298879 A    
C21   H1    1.081815 S    
C13   C17   1.411710 A    
C52   H26   1.110588 S    
N12   O36   1.300567 A    
O6    C4    1.305484 A    
Zn1   N2    2.023824 S    
C56   H35   1.110338 S    
Zn2   N1    2.023824 S    
C1    C27   1.474663 S    
N13   O38   1.300987 A    
C2    C28   1.432475 S    
C17   C20   1.405771 A    
C25   C27   1.410074 A    
N11   O34   1.299821 A    
O2    C2    1.290906 A    
C26   C28   1.399969 A    
C47   C48   1.520434 S    
C51   H23   1.110586 S    
C36   C38   1.413877 A    
C30   C32   1.398734 A    
C37   N1    1.387723 A    
C30   N12   1.441645 S    
C58   H39   1.110444 S    
C38   N2    1.378880 A    
C41   C43   1.414258 A    
N5    O16   1.300742 A    
C7    N9    1.432051 S    
C46   H9    1.110774 S    
C45   C46   1.520925 S    
O31   C57   1.414571 S    
C60   H46   1.110520 S    
C35   O9    1.384456 S    
C47   H13   1.113678 S    
O19   C49   1.408107 S    
N3    O12   1.301074 A    
O7    Zn2   1.926746 S    
C47   H12   1.113529 S    
O6    Zn2   1.951853 S    
C51   C52   1.519947 S    
N3    O11   1.292036 A    
C29   N11   1.442624 S    
C57   C58   1.515874 S    
C5    C9    1.416561 A    
C48   H14   1.110648 S    
C23   C33   1.383311 A    
O20   C51   1.414008 S    
C5    C11   1.401731 A    
C6    C10   1.418151 A    
C49   H18   1.111536 S    
C54   H30   1.109411 S    
N1    C39   1.374374 A    
C41   O19   1.380004 S    
N9    O28   1.300056 A    
C27   C29   1.424725 A    
C48   H15   1.110526 S    
C45   H8    1.112178 S    
N12   O35   1.300968 A    
O3    Zn2   2.007631 S    
O8    C4    1.305729 A    
C55   H33   1.111823 S    
N10   O30   1.301148 A    
C59   H43   1.112410 S    
N6    O18   1.301273 A    
N4    O13   1.298512 A    
N4    O14   1.301309 A    
O7    C3    1.302630 A    
C12   C14   1.410296 A    
O4    C2    1.290753 A    
O1    Zn1   1.998442 S    
O21   C53   1.414296 S    
C25   O31   1.377224 S    
C57   H38   1.117033 S    
N9    O27   1.300759 A    
C31   N13   1.434198 S    
C56   H36   1.110411 S    
C46   H10   1.107991 S    
C55   C56   1.522441 S    
N8    O26   1.300727 A    
C54   H29   1.109218 S    
C60   H45   1.110651 S    
C14   C18   1.420928 A    
C57   H37   1.111456 S    
O3    C1    1.298896 A    
O8    Zn1   1.926746 S    
C40   N6    1.436812 S    
C56   H34   1.108703 S    
C50   H20   1.107324 S    
C24   C34   1.391147 A    
C26   O32   1.383519 S    
C19   H3    1.081996 S    
C9    N8    1.432187 S    
C53   C54   1.516944 S    
C20   H4    1.079808 S    
C59   H42   1.115813 S    
C46   H11   1.110774 S    
C7    C15   1.412326 A    
N14   O39   1.300685 A    
C11   C13   1.404530 A    
O32   C59   1.414842 S    
O10   C47   1.412658 S    
C19   C21   1.397858 A    
C36   O10   1.382388 S    
C36   C44   1.409137 A    
C45   H7    1.112704 S    
C20   C22   1.387319 A    
C58   H40   1.105416 S    
C53   H28   1.106632 S    
C32   C34   1.407556 A    
C51   H22   1.109313 S    
C7    C9    1.409743 A    
N2    C40   1.377378 A    
C54   H31   1.106321 S    
C8    C10   1.407682 A    
C49   C50   1.517733 S    
C23   C25   1.378793 A    
C43   C44   1.525057 S    
O2    Zn2   1.998439 S    
C48   H16   1.111161 S    
N7    O24   1.300720 A    
O9    C45   1.408367 S    
O5    Zn1   1.951853 S    
C13   C15   1.412472 A    
N6    O17   1.299988 A    
C23   H5    1.084428 S    
C33   C34   1.444776 S    
C52   H24   1.110110 S    
C35   C37   1.420672 A    
C39   N5    1.428848 S    
O22   C55   1.416771 S    
N14   O40   1.300847 A    
C17   C18   1.401363 A    
