data_mof_unit_44278.cif
_audit_creation_date              2012-12-11T15:45:27-0500
_audit_creation_method            fapswitch 2.2
_symmetry_space_group_name_H-M    P1
_symmetry_Int_Tables_number       1
_space_group_crystal_system       triclinic
_cell_length_a                    8.250775
_cell_length_b                    19.027178
_cell_length_c                    22.879392
_cell_angle_alpha                 95.403335
_cell_angle_beta                  89.70077
_cell_angle_gamma                 94.383749
_cell_volume                      3565.38347756

loop_
_atom_site_label
_atom_site_type_symbol
_atom_type_description
_atom_site_fract_x
_atom_site_fract_y
_atom_site_fract_z
_atom_type_partial_charge
Ba1   Ba    Ba6+2 0.850680 0.532880 0.472010 1.641022
Ba2   Ba    Ba6+2 0.339140 0.467180 0.527990 1.648691
C1    C     C_3   0.643282 0.792964 0.319012 -0.361932
C2    C     C_R   0.089224 0.557067 0.939135 -0.027482
C3    C     C_R   0.043663 0.552500 0.879002 0.593079
C4    C     C_3   0.095945 0.682887 0.311188 0.318565
C5    C     C_R   0.997782 0.426247 0.877305 0.588292
C6    C     C_R   0.037325 0.429364 0.937678 -0.019881
C7    C     C_R   0.083781 0.495132 0.968701 -0.052658
C8    C     C_R   0.139164 0.622235 0.970621 -0.074036
C9    C     C_R   0.183001 0.625765 0.029951 -0.074644
C10   C     C_R   0.176606 0.564364 0.060150 -0.019352
C11   C     C_R   0.125782 0.498876 0.029458 -0.051525
C12   C     C_3   0.624545 0.719310 0.339904 0.350597
C13   C     C_R   0.031872 0.367897 0.967731 -0.075564
C14   C     C_R   0.070684 0.371707 0.027460 -0.075624
C15   C     C_R   0.118126 0.437018 0.059143 -0.027062
C16   C     C_3   0.066987 0.702785 0.249511 -0.305192
C17   C     C_R   0.159168 0.441672 0.119611 0.590997
C18   C     C_R   0.220322 0.567121 0.120214 0.576318
C19   C     C_2   0.806846 0.445736 0.768407 -0.095307
C20   C     C_3   0.774124 0.426611 0.703561 -0.075274
C21   C     C_1   0.006471 0.510570 0.684785 0.031775
C22   C     C_2   0.052622 0.516101 0.741008 -0.090634
C23   C     C_3   0.501279 0.365804 0.351021 0.292128
C24   C     C_2   0.947099 0.483081 0.786680 0.212644
C25   C     C_R   0.405159 0.542144 0.231805 -0.094678
C26   C     C_R   0.447218 0.547208 0.291467 -0.017202
C27   C     C_R   0.189616 0.486659 0.314483 0.031313
C28   C     C_3   0.199227 0.683035 0.596628 0.314496
C29   C     C_R   0.145408 0.481567 0.254435 -0.098903
C30   C     C_R   0.252121 0.510454 0.212299 0.205339
C31   C     C_2   0.876309 0.471214 0.664325 -0.270277
C32   C     C_R   0.395264 0.700820 0.473629 -0.293811
C33   C     C_R   0.537457 0.723686 0.504408 0.064963
C34   C     C_3   0.490140 0.346940 0.285013 -0.360880
C35   C     C_R   0.590306 0.795735 0.510314 -0.123324
C36   C     C_R   0.498885 0.845674 0.486202 -0.018458
C37   C     C_R   0.350977 0.821818 0.457376 -0.138371
C38   C     C_R   0.298578 0.749595 0.452240 0.016848
C39   C     C_R   0.536642 0.964915 0.446786 -0.076394
C40   C     C_3   0.209557 0.762903 0.611299 -0.383834
C41   C     C_R   0.589161 0.036916 0.453007 -0.077286
C42   C     C_R   0.660507 0.068600 0.505755 0.059224
C43   C     C_R   0.680056 0.026067 0.551837 -0.076470
C44   C     C_R   0.627757 0.953924 0.545567 -0.075598
C45   C     C_3   0.015247 0.298325 0.685671 0.347010
C46   C     C_R   0.554910 0.922439 0.492984 0.063182
C47   C     C_R   0.856720 0.172460 0.541737 -0.138179
C48   C     C_R   0.902664 0.245450 0.546524 0.010084
C49   C     C_R   0.659780 0.266476 0.494408 0.046873
C50   C     C_R   0.613049 0.194008 0.488887 -0.114151
C51   C     C_R   0.710086 0.145981 0.512956 -0.007089
C52   C     C_3   0.995432 0.316766 0.404102 0.312521
C53   C     C_R   0.800150 0.291997 0.525248 -0.277676
C54   C     C_3   0.983186 0.236996 0.388588 -0.384912
C55   C     C_3   0.693117 0.619570 0.645882 0.297519
C56   C     C_3   0.969029 0.254922 0.736571 -0.343672
C57   C     C_3   0.704406 0.637378 0.712022 -0.346015
C58   C     C_3   0.506779 0.285450 0.684964 0.364377
C59   C     C_3   0.453744 0.225037 0.721532 -0.348249
C60   C     C_R   0.338073 0.521295 0.332285 -0.302264
H1    H     H_    0.688325 0.721143 0.382767 0.077863
H2    H     H_    0.813315 0.605853 0.629053 0.006694
H3    H     H_    0.603248 0.573610 0.636456 0.089038
H4    H     H_    0.587769 0.831057 0.351435 0.068792
H5    H     H_    0.798459 0.681628 0.722616 0.131460
H6    H     H_    0.737641 0.590669 0.733535 0.078198
H7    H     H_    0.585251 0.653037 0.729518 0.135061
H8    H     H_    0.492691 0.704872 0.345682 -0.055303
H9    H     H_    0.581418 0.792992 0.276020 0.124570
H10   H     H_    0.379678 0.379125 0.367407 0.021000
H11   H     H_    0.589919 0.412552 0.359642 0.061721
H12   H     H_    0.292348 0.778128 0.649264 0.127716
H13   H     H_    0.399867 0.301085 0.274962 0.139469
H14   H     H_    0.451546 0.392524 0.263155 0.072674
H15   H     H_    0.610645 0.333226 0.267456 0.129241
H16   H     H_    0.774069 0.810026 0.314346 0.140339
H17   H     H_    0.053507 0.654108 0.218763 0.124241
H18   H     H_    0.072201 0.350874 0.703080 0.075018
H19   H     H_    0.901168 0.305874 0.662430 -0.080796
H20   H     H_    0.074525 0.254201 0.766345 0.143226
H21   H     H_    0.867827 0.278426 0.761712 0.125917
H22   H     H_    0.927927 0.199818 0.719707 0.096863
H23   H     H_    0.256835 0.790076 0.573330 0.062946
H24   H     H_    0.641280 0.289635 0.685246 -0.082956
H25   H     H_    0.463197 0.272140 0.639091 0.077956
H26   H     H_    0.507113 0.175888 0.703059 0.063032
H27   H     H_    0.319762 0.215420 0.721329 0.149649
H28   H     H_    0.012160 0.636141 0.318315 0.104325
H29   H     H_    0.496569 0.237980 0.767509 0.116044
H30   H     H_    0.063934 0.323063 0.048733 0.123262
H31   H     H_    0.996525 0.316421 0.945174 0.120031
H32   H     H_    0.221249 0.677064 0.052243 0.121534
H33   H     H_    0.491920 0.562174 0.200591 0.110250
H34   H     H_    0.086906 0.780510 0.622401 0.126908
H35   H     H_    0.145136 0.670899 0.949391 0.123148
H36   H     H_    0.169244 0.543165 0.754032 0.121793
H37   H     H_    0.726461 0.421627 0.799844 0.104490
H38   H     H_    0.029401 0.454998 0.240590 0.120163
H39   H     H_    0.372702 0.524839 0.378075 0.082342
H40   H     H_    0.223588 0.668823 0.314642 -0.041087
H41   H     H_    0.855375 0.460469 0.617444 0.080904
H42   H     H_    0.502464 0.175325 0.465187 0.073512
H43   H     H_    0.575116 0.067699 0.416147 0.064204
H44   H     H_    0.483394 0.942295 0.405438 0.064133
H45   H     H_    0.874277 0.334021 0.416259 0.001102
H46   H     H_    0.701902 0.812601 0.534011 0.085030
H47   H     H_    0.732459 0.048932 0.593268 0.062223
H48   H     H_    0.641429 0.923109 0.582427 0.061524
H49   H     H_    0.937101 0.136625 0.558463 0.073796
H50   H     H_    0.274255 0.859214 0.440843 0.080102
H51   H     H_    0.836096 0.348142 0.528741 0.058637
H52   H     H_    0.953583 0.730335 0.247744 0.145678
H53   H     H_    0.353863 0.645235 0.469979 0.071310
H54   H     H_    0.170525 0.738205 0.235684 0.124454
H55   H     H_    0.322248 0.666254 0.586623 0.004648
H56   H     H_    0.080561 0.329911 0.441574 0.064125
H57   H     H_    0.118589 0.669345 0.557874 0.062820
H58   H     H_    0.893500 0.222356 0.352631 0.131785
H59   H     H_    0.943910 0.209079 0.427091 0.061584
H60   H     H_    0.103645 0.219508 0.374150 0.125933
N1    N     N_R   0.997305 0.487524 0.848546 -0.422832
N2    N     N_R   0.208134 0.506421 0.149993 -0.424017
O1    O     O_2   0.896730 0.461690 0.361000 -0.459530
O2    O     O_2   0.243089 0.250973 0.543382 -0.485234
O3    O     O_3   0.126805 0.262957 0.649313 -0.597679
O4    O     O_3   0.137170 0.462400 0.432040 -0.491489
O5    O     O_3   0.560670 0.583970 0.528500 -0.490222
O6    O     O_2   0.373560 0.329680 0.473470 -0.457011
O7    O     O_3   0.551938 0.307598 0.377477 -0.641787
O8    O     O_2   0.472428 0.485947 0.707341 -0.487343
O9    O     O_3   0.442572 0.348303 0.709071 -0.573403
O10   O     O_2   0.043331 0.606548 0.854112 -0.594874
O11   O     O_2   0.965238 0.368564 0.850179 -0.621807
O12   O     O_3   0.645412 0.678615 0.620213 -0.636091
O13   O     O_2   0.154003 0.387752 0.144875 -0.595351
O14   O     O_2   0.269273 0.623860 0.145937 -0.615888
O15   O     O_3   0.657500 0.588540 0.395070 -0.486336
O16   O     O_2   0.783845 0.541864 0.291991 -0.500081
O17   O     O_3   0.050956 0.349020 0.354728 -0.627390
O18   O     O_3   0.693670 0.671250 0.298345 -0.601404
O19   O     O_2   0.816140 0.670340 0.526560 -0.459975
O20   O     O_3   0.069580 0.624410 0.423530 -0.496140
O21   O     O_2   0.962622 0.750417 0.459945 -0.483750
O22   O     O_3   0.064756 0.740205 0.351810 -0.603244
O23   O     O_2   0.292960 0.538340 0.639040 -0.452999
O24   O     O_3   0.052540 0.537650 0.567960 -0.496615
O25   O     O_3   0.532200 0.411510 0.604930 -0.472143
O26   O     O_3   0.137750 0.651046 0.645457 -0.626563
O27   O     O_3   0.629030 0.416090 0.471500 -0.477865
O28   O     O_3   0.120120 0.375640 0.576470 -0.477987
P1    P     P_3+3 0.067040 0.441110 0.370020 0.995242
P2    P     P_3+3 0.640420 0.660110 0.543790 0.984776
P3    P     P_3+3 0.098108 0.716617 0.422576 0.942348
P4    P     P_3+3 0.122660 0.558950 0.629980 0.994846
P5    P     P_3+3 0.099534 0.283099 0.577282 0.962758
P6    P     P_3+3 0.646398 0.585694 0.318506 0.945010
P7    P     P_3+3 0.555385 0.328009 0.453676 0.951318
P8    P     P_3+3 0.555115 0.419696 0.681616 0.962423

loop_
_geom_bond_atom_site_label_1
_geom_bond_atom_site_label_2
_ccdc_geom_bond_type
C6    C7    A    
C19   C24   D    
C12   O18   S    
C12   H8    S    
C30   N2    S    
C25   H33   S    
Ba1   O4    S    
C16   H52   S    
Ba2   O4    S    
C5    C6    A    
C43   C44   A    
C42   C43   A    
O8    P8    D    
C52   H45   S    
C58   C59   S    
C32   C38   A    
C34   H13   S    
Ba1   O1    S    
C32   C33   A    
Ba1   O5    S    
C34   H15   S    
C56   H20   S    
C36   C37   A    
C4    O22   S    
C43   H47   S    
C55   C57   S    
C28   H57   S    
Ba2   O24   S    
C13   C14   A    
Ba2   O5    S    
Ba1   Ba2   S    
C41   H43   S    
C18   O14   D    
C7    C11   A    
C34   H14   S    
C57   H5    S    
C27   C60   A    
C42   C51   S    
O22   P3    S    
O15   P6    S    
C59   H27   S    
C14   C15   A    
C21   C31   D    
C21   C22   D    
C33   P2    S    
C38   P3    S    
O3    P5    S    
C36   C46   S    
Ba1   O15   S    
C47   H49   S    
C60   H39   S    
O16   P6    D    
Ba2   O25   S    
C4    H40   S    
O26   P4    S    
C21   P4    S    
C54   H58   S    
C45   H18   S    
O18   P6    S    
C58   H25   S    
O1    P1    D    
C44   C46   A    
C48   P5    S    
Ba2   O28   S    
C3    O10   D    
C4    C16   S    
C52   C54   S    
C17   N2    Am   
C40   H12   S    
C39   H44   S    
C49   C50   A    
C35   H46   S    
C16   H54   S    
C37   C38   A    
C40   H23   S    
C19   H37   S    
C58   H24   S    
C16   H17   S    
O19   P2    D    
C53   H51   S    
C49   C53   A    
Ba2   O23   S    
C4    H28   S    
O6    P7    D    
O27   P7    S    
C8    H35   S    
O7    P7    S    
C41   C42   A    
C5    O11   D    
C35   C36   A    
Ba1   O19   S    
C59   H26   S    
C56   H22   S    
C57   H6    S    
O12   P2    S    
C29   C30   A    
C17   O13   D    
C55   H3    S    
C10   C18   A    
C26   P6    S    
C55   O12   S    
C23   H10   S    
C29   H38   S    
Ba1   P1    S    
O23   P4    D    
C1    C12   S    
O4    P1    S    
C57   H7    S    
C9    H32   S    
C37   H50   S    
C14   H30   S    
C6    C13   A    
C44   H48   S    
C22   H36   S    
C1    H4    S    
C24   N1    S    
C2    C8    A    
C23   O7    S    
Ba2   O6    S    
C50   C51   A    
C55   H2    S    
C27   P1    S    
O2    P5    D    
Ba2   O27   S    
C20   C31   S    
O28   P5    S    
C50   H42   S    
Ba2   P4    S    
C33   C35   A    
C25   C30   A    
C31   H41   S    
C39   C41   A    
C22   C24   S    
C5    N1    Am   
C2    C3    A    
C13   H31   S    
C9    C10   A    
C45   O3    S    
C1    H9    S    
C28   H55   S    
C3    N1    Am   
C48   C53   A    
C11   C15   A    
C40   H34   S    
O9    P8    S    
C54   H59   S    
O20   P3    S    
C52   H56   S    
C32   H53   S    
C27   C29   A    
Ba1   O20   S    
C56   H21   S    
C45   C56   S    
O17   P1    S    
O5    P2    S    
C20   P8    S    
C47   C51   A    
C12   H1    S    
C49   P7    S    
C15   C17   A    
C39   C46   A    
Ba1   O27   S    
C23   H11   S    
C45   H19   S    
Ba1   P2    S    
O25   P8    S    
C18   N2    Am   
C28   O26   S    
C8    C9    A    
C23   C34   S    
O21   P3    D    
C52   O17   S    
C10   C11   A    
C47   C48   A    
C25   C26   A    
C28   C40   S    
Ba1   O24   S    
O24   P4    S    
C2    C7    A    
C19   C20   S    
C1    H16   S    
C58   O9    S    
C59   H29   S    
C54   H60   S    
C26   C60   A    
