data_mof_unit_16695.cif
_audit_creation_date              2012-12-11T15:17:55-0500
_audit_creation_method            fapswitch 2.2
_symmetry_space_group_name_H-M    P1
_symmetry_Int_Tables_number       1
_space_group_crystal_system       triclinic
_cell_length_a                    15.678106
_cell_length_b                    15.666325
_cell_length_c                    34.223781
_cell_angle_alpha                 90.424642
_cell_angle_beta                  89.726286
_cell_angle_gamma                 119.750372
_cell_volume                      7297.83461654

loop_
_atom_site_label
_atom_site_type_symbol
_atom_type_description
_atom_site_fract_x
_atom_site_fract_y
_atom_site_fract_z
_atom_type_partial_charge
C1    C     C_R   0.577931 0.441964 0.555146 0.576657
C2    C     C_R   0.557925 0.135011 0.554722 0.578914
C3    C     C_R   0.864643 0.422790 0.554910 0.587266
C4    C     C_R   0.442664 0.577118 0.054544 0.590859
C5    C     C_R   0.137015 0.559039 0.055020 0.603666
C6    C     C_R   0.420882 0.862563 0.055696 0.576127
C7    C     C_R   0.975934 0.505566 0.713559 0.382934
C8    C     C_R   0.480640 0.455516 0.713103 0.382237
C9    C     C_R   0.516445 0.997392 0.710017 0.383236
C10   C     C_R   0.511992 0.964212 0.216689 0.381680
C11   C     C_R   0.462404 0.489344 0.212656 0.377754
C12   C     C_R   0.937904 0.504952 0.201623 0.398464
C13   C     C_R   0.978777 0.432912 0.855598 -0.034478
C14   C     C_R   0.561112 0.555395 0.850710 -0.003906
C15   C     C_R   0.437148 0.996891 0.851378 0.012188
C16   C     C_R   0.432507 0.978165 0.355267 -0.020796
C17   C     C_R   0.563529 0.565774 0.351992 0.012923
C18   C     C_R   0.844083 0.356350 0.331833 -0.034315
C19   C     C_R   0.021838 0.444164 0.893185 0.235730
C20   C     C_R   0.551215 0.588536 0.888341 0.231550
C21   C     C_R   0.417133 0.970799 0.891065 0.229540
C22   C     C_R   0.444167 0.027382 0.391683 0.239292
C23   C     C_R   0.588340 0.555317 0.390883 0.241134
C24   C     C_R   0.831558 0.338786 0.372835 0.226704
C25   C     C_R   0.079103 0.619605 0.891015 -0.119238
C26   C     C_R   0.386490 0.448098 0.894224 -0.107862
C27   C     C_R   0.539183 0.917894 0.890301 -0.106561
C28   C     C_R   0.608810 0.050086 0.397127 -0.122265
C29   C     C_R   0.456345 0.385300 0.391834 -0.109129
C30   C     C_R   0.812885 0.482906 0.381038 -0.128559
C31   C     C_R   0.041829 0.611095 0.853693 0.224539
C32   C     C_R   0.393123 0.415013 0.857244 0.227540
C33   C     C_R   0.562732 0.946864 0.851658 0.221807
C34   C     C_R   0.600572 0.006988 0.360677 0.197492
C35   C     C_R   0.426836 0.394583 0.354753 0.226548
C36   C     C_R   0.819610 0.498552 0.340973 0.220404
C37   C     C_R   0.996237 0.518417 0.834862 0.006323
C38   C     C_R   0.477993 0.471469 0.834405 -0.010705
C39   C     C_R   0.507476 0.981130 0.831309 0.000458
C40   C     C_R   0.515333 0.978785 0.338194 0.008974
C41   C     C_R   0.483440 0.482640 0.333742 -0.010837
C42   C     C_R   0.838305 0.437247 0.316105 0.016045
C43   C     C_R   0.074726 0.538664 0.910063 -0.000655
C44   C     C_R   0.462078 0.536660 0.909326 -0.023438
C45   C     C_R   0.462749 0.923274 0.909565 -0.047670
C46   C     C_R   0.535016 0.067651 0.411487 0.000232
C47   C     C_R   0.538865 0.462826 0.409528 -0.023335
C48   C     C_R   0.820797 0.405505 0.397517 -0.005655
C49   C     C_R   0.577734 0.442517 0.445456 0.551034
C50   C     C_R   0.557500 0.134451 0.445539 0.569234
C51   C     C_R   0.809121 0.391497 0.440486 0.590131
C52   C     C_R   0.442146 0.577740 0.945126 0.563492
C53   C     C_R   0.135024 0.557658 0.945527 0.576527
C54   C     C_R   0.422900 0.865428 0.945678 0.535422
C55   C     C_R   0.922569 0.459674 0.591652 0.019662
C56   C     C_R   0.541438 0.463883 0.591979 0.018233
C57   C     C_R   0.534573 0.071943 0.590052 0.018863
C58   C     C_R   0.450387 0.911719 0.094717 0.019951
C59   C     C_R   0.466222 0.540972 0.090895 0.027232
C60   C     C_R   0.080510 0.539404 0.091553 0.033849
C61   C     C_R   0.947960 0.397588 0.612403 0.218374
C62   C     C_R   0.609159 0.539645 0.616913 0.220324
C63   C     C_R   0.444990 0.041928 0.610128 0.219010
C64   C     C_R   0.374747 0.898347 0.121132 0.226974
C65   C     C_R   0.546424 0.608756 0.113906 0.223752
C66   C     C_R   0.118154 0.516969 0.124801 0.217663
C67   C     C_R   0.970699 0.414387 0.652718 -0.050898
C68   C     C_R   0.582747 0.546396 0.655823 -0.045423
C69   C     C_R   0.434323 0.009834 0.649380 -0.051947
C70   C     C_R   0.396316 0.922822 0.161051 -0.051651
C71   C     C_R   0.547625 0.592278 0.154431 -0.046808
C72   C     C_R   0.069920 0.502426 0.161306 -0.059533
C73   C     C_R   0.969776 0.494926 0.671077 0.044478
C74   C     C_R   0.494498 0.468577 0.670775 0.039808
C75   C     C_R   0.513912 0.007230 0.667510 0.039637
C76   C     C_R   0.492293 0.954459 0.174550 0.049575
C77   C     C_R   0.472553 0.503165 0.170191 0.040855
C78   C     C_R   0.986925 0.515730 0.163850 0.038901
C79   C     C_R   0.957345 0.563455 0.649452 0.217618
C80   C     C_R   0.424055 0.397747 0.645753 0.223574
C81   C     C_R   0.597086 0.024266 0.645967 0.223015
C82   C     C_R   0.569948 0.978606 0.148282 0.228499
C83   C     C_R   0.407644 0.426075 0.145639 0.230705
C84   C     C_R   0.949524 0.538838 0.130824 0.233406
C85   C     C_R   0.942354 0.550924 0.608661 -0.060565
C86   C     C_R   0.443516 0.401251 0.605170 -0.052172
C87   C     C_R   0.604210 0.048411 0.605931 -0.056341
C88   C     C_R   0.549892 0.959370 0.107558 -0.060207
C89   C     C_R   0.404199 0.444154 0.105134 -0.049168
C90   C     C_R   0.995991 0.550167 0.093904 -0.069599
C91   C     C_R   0.987071 0.515463 0.792213 0.311055
C92   C     C_R   0.472454 0.454394 0.791928 0.307464
C93   C     C_R   0.512931 0.986747 0.788695 0.309576
C94   C     C_R   0.520765 0.973975 0.295511 0.301687
C95   C     C_R   0.468827 0.481328 0.291314 0.299727
C96   C     C_R   0.866111 0.466155 0.275218 0.318051
Cr1   Cr    Cr6+3 0.522350 0.263930 0.500020 1.045320
Cr2   Cr    Cr6+3 0.736070 0.258420 0.500020 1.040506
Cr3   Cr    Cr6+3 0.741580 0.477650 0.500020 1.020507
Cr4   Cr    Cr6+3 0.263930 0.522350 0.000020 1.037821
Cr5   Cr    Cr6+3 0.258420 0.736070 0.000020 1.045479
Cr6   Cr    Cr6+3 0.477650 0.741580 0.000020 1.034824
H1    H     H_    0.117772 0.692315 0.904090 0.174516
H2    H     H_    0.318792 0.405989 0.910438 0.170386
H3    H     H_    0.577299 0.884776 0.904441 0.160523
H4    H     H_    0.676650 0.075713 0.413198 0.182418
H5    H     H_    0.415696 0.314967 0.406336 0.176068
H6    H     H_    0.800446 0.532089 0.399491 0.156150
N1    N     N_R   0.898416 0.466722 0.774353 -0.244778
N2    N     N_R   0.539121 0.437600 0.773227 -0.247331
N3    N     N_R   0.579905 0.070039 0.770599 -0.244806
N4    N     N_R   0.499909 0.889236 0.276805 -0.259808
N5    N     N_R   0.449832 0.547745 0.274105 -0.269602
N6    N     N_R   0.951331 0.549613 0.267359 -0.239056
N7    N     N_R   0.892997 0.461681 0.735547 -0.206472
N8    N     N_R   0.543211 0.438317 0.734426 -0.225855
N9    N     N_R   0.581535 0.075218 0.731801 -0.190265
N10   N     N_R   0.495396 0.884501 0.237933 -0.262034
N11   N     N_R   0.446749 0.551690 0.235363 -0.265150
N12   N     N_R   0.986523 0.568635 0.231133 -0.268867
N13   N     N_R   0.064335 0.556057 0.731351 -0.229973
N14   N     N_R   0.410830 0.467615 0.731669 -0.208849
N15   N     N_R   0.450569 0.913647 0.728176 -0.244703
N16   N     N_R   0.534451 0.049218 0.235427 -0.203842
N17   N     N_R   0.478798 0.421246 0.229880 -0.153354
N18   N     N_R   0.850499 0.423506 0.209125 -0.178556
N19   N     N_R   0.069729 0.560942 0.770109 -0.205039
N20   N     N_R   0.407132 0.467446 0.770522 -0.204292
N21   N     N_R   0.448945 0.908412 0.766950 -0.218300
N22   N     N_R   0.538486 0.053829 0.274223 -0.234341
N23   N     N_R   0.481809 0.417270 0.268611 -0.187518
N24   N     N_R   0.815034 0.404611 0.245381 -0.230112
O1    O     O_R   0.498680 0.159540 0.541860 -0.439675
O2    O     O_R   0.840460 0.339140 0.541860 -0.443986
O3    O     O_R   0.660860 0.501320 0.541860 -0.445763
O4    O     O_R   0.159540 0.498680 0.041860 -0.490196
O5    O     O_R   0.339140 0.840460 0.041860 -0.442792
O6    O     O_R   0.501320 0.660860 0.041860 -0.450847
O7    O     O_R   0.532760 0.358060 0.540030 -0.519362
O8    O     O_R   0.641940 0.174700 0.540030 -0.529364
O9    O     O_R   0.825300 0.467240 0.540030 -0.520046
O10   O     O_R   0.358060 0.532760 0.040030 -0.513892
O11   O     O_R   0.174700 0.641940 0.040030 -0.502324
O12   O     O_R   0.467240 0.825300 0.040030 -0.524940
O13   O     O_R   0.498590 0.161190 0.456930 -0.443085
O14   O     O_R   0.838810 0.337400 0.456930 -0.433412
O15   O     O_R   0.662600 0.501410 0.456930 -0.510169
O16   O     O_R   0.161190 0.498590 0.956930 -0.452134
O17   O     O_R   0.337400 0.838810 0.956930 -0.494586
O18   O     O_R   0.501410 0.662600 0.956930 -0.477318
O19   O     O_R   0.532680 0.359580 0.461300 -0.519247
O20   O     O_R   0.640420 0.173100 0.461300 -0.535127
O21   O     O_R   0.826900 0.467320 0.461300 -0.527739
O22   O     O_R   0.359580 0.532680 0.961300 -0.523501
O23   O     O_R   0.173100 0.640420 0.961300 -0.531764
O24   O     O_R   0.467320 0.826900 0.961300 -0.518040
O25   O     O_3   0.666667 0.333333 0.499990 -0.287670
O26   O     O_3   0.333333 0.666667 0.999990 -0.251377
O27   O     O_3   0.946713 0.319521 0.592789 -0.694243
H7    H     H_    0.997885 0.307372 0.603806 0.317056
O28   O     O_3   0.701441 0.605100 0.602986 -0.687957
H8    H     H_    0.749669 0.608923 0.622526 0.302806
O29   O     O_3   0.370780 0.048273 0.591096 -0.686955
H9    H     H_    0.306516 0.994896 0.600238 0.316437
O30   O     O_3   0.280060 0.860318 0.106993 -0.681869
H10   H     H_    0.231804 0.823951 0.127744 0.320772
O31   O     O_3   0.619570 0.692236 0.096128 -0.711960
H11   H     H_    0.682080 0.716999 0.110349 0.317965
O32   O     O_3   0.203298 0.511705 0.119926 -0.714475
H12   H     H_    0.230113 0.506025 0.145091 0.327454
C97   C     C_3   0.954113 0.636871 0.583862 -0.251431
C98   C     C_3   0.033145 0.664234 0.552144 -0.297721
C99   C     C_3   0.045431 0.751120 0.527966 -0.435535
H13   H     H_    0.975280 0.732495 0.513212 0.162277
H14   H     H_    0.068388 0.816813 0.546918 0.156095
H15   H     H_    0.102756 0.769035 0.505325 0.156463
H16   H     H_    0.104530 0.684181 0.566181 0.164134
H17   H     H_    0.013805 0.601327 0.532064 0.180898
H18   H     H_    0.882927 0.620832 0.570978 0.197159
H19   H     H_    0.978423 0.704189 0.601844 0.157476
C100  C     C_3   0.359670 0.341103 0.576704 -0.248618
C101  C     C_3   0.351194 0.406058 0.545229 -0.301062
C102  C     C_3   0.266196 0.345219 0.517400 -0.436597
H20   H     H_    0.277785 0.288746 0.502307 0.161375
H21   H     H_    0.195546 0.308478 0.533664 0.160541
H22   H     H_    0.261977 0.394010 0.495049 0.158647
H23   H     H_    0.338764 0.462962 0.559508 0.168160
H24   H     H_    0.419631 0.444081 0.527708 0.174904
H25   H     H_    0.368222 0.281161 0.563269 0.184604
H26   H     H_    0.287811 0.304599 0.592026 0.156764
C103  C     C_3   0.682293 0.043435 0.580614 -0.241935
C104  C     C_3   0.636300 0.971435 0.546109 -0.297879
C105  C     C_3   0.715243 0.971177 0.519926 -0.430964
H27   H     H_    0.762653 0.045470 0.507473 0.163051
H28   H     H_    0.761317 0.948929 0.536809 0.161495
H29   H     H_    0.679908 0.918148 0.495501 0.160627
H30   H     H_    0.588497 0.896007 0.557549 0.169622
H31   H     H_    0.590087 0.990830 0.527929 0.172551
H32   H     H_    0.737841 0.117769 0.570578 0.197634
H33   H     H_    0.724131 0.016117 0.597405 0.160585
C106  C     C_3   0.632984 0.992145 0.077868 -0.260376
C107  C     C_3   0.678272 0.924812 0.077818 -0.281936
C108  C     C_3   0.755902 0.953853 0.045901 -0.434487
H34   H     H_    0.722583 0.947535 0.016688 0.157654
H35   H     H_    0.816100 0.030590 0.050564 0.148963
H36   H     H_    0.787322 0.904073 0.046690 0.159573
H37   H     H_    0.712764 0.927899 0.106399 0.161520
H38   H     H_    0.620072 0.847727 0.072742 0.247798
H39   H     H_    0.606642 0.994159 0.048021 0.150871
H40   H     H_    0.690093 0.069697 0.083470 0.137779
C109  C     C_3   0.340434 0.360603 0.077098 -0.253368
C110  C     C_3   0.230603 0.327035 0.081318 -0.279081
C111  C     C_3   0.168581 0.240882 0.054027 -0.450600
H41   H     H_    0.190277 0.262323 0.023140 0.158963
H42   H     H_    0.178041 0.177027 0.061181 0.156411
H43   H     H_    0.089825 0.218768 0.057486 0.151199
H44   H     H_    0.205070 0.304747 0.111767 0.181665
H45   H     H_    0.217761 0.388334 0.074010 0.252457
H46   H     H_    0.363452 0.381927 0.046339 0.151963
H47   H     H_    0.353466 0.297888 0.081684 0.133396
C112  C     C_3   0.954938 0.570306 0.056993 -0.260938
C113  C     C_3   0.988379 0.680162 0.053111 -0.295660
C114  C     C_3   0.950632 0.700429 0.015267 -0.438435
H48   H     H_    0.979624 0.678904 0.989616 0.160021
H49   H     H_    0.869046 0.658751 0.014665 0.166587
H50   H     H_    0.975585 0.780132 0.013286 0.151656
H51   H     H_    0.069868 0.724083 0.053217 0.205347
H52   H     H_    0.961353 0.705650 0.078139 0.162265
H53   H     H_    0.978346 0.545794 0.030540 0.147789
H54   H     H_    0.873551 0.525089 0.056427 0.147382
O33   O     O_3   0.014815 0.365559 0.913941 -0.680707
H55   H     H_    0.007874 0.313572 0.895559 0.326945
O34   O     O_3   0.625961 0.673394 0.904050 -0.696861
H56   H     H_    0.610141 0.725564 0.897433 0.335813
O35   O     O_3   0.350918 0.990030 0.910409 -0.699187
H57   H     H_    0.368271 0.999858 0.938506 0.338587
O36   O     O_3   0.369841 0.038597 0.408438 -0.678496
H58   H     H_    0.321895 0.031739 0.388331 0.328782
O37   O     O_3   0.658335 0.634925 0.411257 -0.697715
H59   H     H_    0.719001 0.630193 0.409805 0.335022
O38   O     O_3   0.832383 0.259411 0.389848 -0.680814
H60   H     H_    0.812600 0.205760 0.370562 0.339544
C115  C     C_3   0.988013 0.342754 0.676703 -0.265244
C116  C     C_3   0.098188 0.377602 0.679478 -0.303308
C117  C     C_3   0.116999 0.308193 0.704325 -0.417360
H61   H     H_    0.089487 0.305053 0.734511 0.155280
H62   H     H_    0.080039 0.233149 0.691349 0.151768
H63   H     H_    0.197146 0.335441 0.705754 0.224636
H64   H     H_    0.129042 0.381716 0.649806 0.165754
H65   H     H_    0.137581 0.452268 0.692753 0.199409
H66   H     H_    0.956875 0.334562 0.706551 0.160190
H67   H     H_    0.947894 0.267361 0.664130 0.156808
C118  C     C_3   0.647032 0.636349 0.681174 -0.257678
C119  C     C_3   0.595753 0.696600 0.689284 -0.295901
C120  C     C_3   0.658782 0.786063 0.715000 -0.416205
H68   H     H_    0.672842 0.762492 0.743637 0.149482
H69   H     H_    0.729963 0.835130 0.700434 0.164999
H70   H     H_    0.619749 0.827999 0.720202 0.200699
H71   H     H_    0.581241 0.722069 0.661139 0.185849
H72   H     H_    0.524341 0.650944 0.704183 0.189815
H73   H     H_    0.665316 0.613437 0.709064 0.163031
H74   H     H_    0.718230 0.686514 0.667065 0.163361
C121  C     C_3   0.343262 0.988902 0.672962 -0.255774
C122  C     C_3   0.266527 0.878929 0.671515 -0.298787
C123  C     C_3   0.182824 0.854138 0.700223 -0.417652
H75   H     H_    0.211511 0.871585 0.730537 0.167691
H76   H     H_    0.145106 0.896233 0.693164 0.150752
H77   H     H_    0.128898 0.774396 0.698474 0.221515
H78   H     H_    0.235722 0.857823 0.641572 0.153383
H79   H     H_    0.301108 0.834048 0.678857 0.201112
H80   H     H_    0.362972 0.013435 0.703754 0.160920
H81   H     H_    0.310439 0.033003 0.662303 0.156657
C124  C     C_3   0.319052 0.922083 0.188487 -0.254184
C125  C     C_3   0.258587 0.822902 0.209033 -0.321740
C126  C     C_3   0.174052 0.820795 0.232071 -0.447101
H82   H     H_    0.202632 0.880844 0.254206 0.155660
H83   H     H_    0.123068 0.829130 0.212087 0.170867
H84   H     H_    0.132578 0.749570 0.247327 0.180570
H85   H     H_    0.228058 0.761617 0.187464 0.161894
H86   H     H_    0.305778 0.810262 0.229500 0.191803
H87   H     H_    0.353847 0.981201 0.210827 0.173485
H88   H     H_    0.269886 0.941312 0.172123 0.165685
C127  C     C_3   0.625734 0.671001 0.180882 -0.249029
C128  C     C_3   0.610609 0.760317 0.184971 -0.271568
C129  C     C_3   0.679484 0.832234 0.215624 -0.432469
H89   H     H_    0.660038 0.796940 0.244722 0.160936
H90   H     H_    0.757081 0.854814 0.208637 0.145516
H91   H     H_    0.671749 0.898803 0.216594 0.208497
H92   H     H_    0.624443 0.799018 0.156644 0.190468
H93   H     H_    0.533537 0.735763 0.193811 0.202079
H94   H     H_    0.625712 0.642346 0.210403 0.165611
H95   H     H_    0.700632 0.693653 0.169893 0.135133
C130  C     C_3   0.102427 0.467062 0.196772 -0.256532
C131  C     C_3   0.186939 0.552743 0.219012 -0.300381
C132  C     C_3   0.213647 0.516549 0.255726 -0.418421
H96   H     H_    0.149824 0.482409 0.275960 0.153085
H97   H     H_    0.236319 0.461720 0.247943 0.189144
H98   H     H_    0.275513 0.579603 0.270921 0.180143
H99   H     H_    0.253239 0.591063 0.200295 0.168725
H100  H     H_    0.165321 0.607552 0.227819 0.187324
H101  H     H_    0.040116 0.425867 0.217170 0.153286
H102  H     H_    0.123525 0.411744 0.187799 0.150296
O39   O     O_3   0.956956 0.640224 0.669405 -0.719781
H103  H     H_    0.906730 0.652533 0.657396 0.310789
O40   O     O_3   0.338796 0.323885 0.662122 -0.715026
H104  H     H_    0.319683 0.262154 0.647513 0.321788
O41   O     O_3   0.671446 0.018908 0.665280 -0.705887
H105  H     H_    0.734997 0.073193 0.655747 0.321495
O42   O     O_3   0.663448 0.020818 0.164098 -0.725703
H106  H     H_    0.714101 0.047797 0.143577 0.327843
O43   O     O_3   0.346208 0.336439 0.163022 -0.690050
H107  H     H_    0.320064 0.283109 0.143416 0.327715
O44   O     O_3   0.867294 0.548870 0.136439 -0.687789
H108  H     H_    0.851194 0.573139 0.112721 0.326253
C133  C     C_3   0.913459 0.331233 0.838107 -0.256003
C134  C     C_3   0.971026 0.299039 0.811148 -0.304062
C135  C     C_3   0.903281 0.198376 0.792988 -0.440379
H109  H     H_    0.866890 0.142357 0.816170 0.175679
H110  H     H_    0.846337 0.201304 0.774761 0.185230
H111  H     H_    0.946706 0.175984 0.774136 0.144961
H112  H     H_    0.006645 0.352957 0.787257 0.187915
H113  H     H_    0.029587 0.295354 0.827920 0.178820
H114  H     H_    0.876348 0.276034 0.861500 0.157712
H115  H     H_    0.851916 0.330148 0.821840 0.182253
C136  C     C_3   0.654669 0.607970 0.825663 -0.226026
C137  C     C_3   0.746518 0.696543 0.842905 -0.273952
C138  C     C_3   0.833379 0.732307 0.814751 -0.454399
H116  H     H_    0.850843 0.672844 0.808825 0.171814
H117  H     H_    0.816216 0.755891 0.786737 0.152537
H118  H     H_    0.898999 0.795884 0.827881 0.167165
H119  H     H_    0.732294 0.758490 0.847983 0.207519
H120  H     H_    0.767379 0.675441 0.870691 0.220888
H121  H     H_    0.676515 0.552457 0.817941 0.175891
H122  H     H_    0.636066 0.632644 0.798212 0.152213
C139  C     C_3   0.381163 0.039536 0.830746 -0.220174
C140  C     C_3   0.277458 0.958342 0.819589 -0.265529
C141  C     C_3   0.221757 0.000450 0.798006 -0.452684
H123  H     H_    0.214781 0.054877 0.816745 0.177119
H124  H     H_    0.260726 0.036627 0.770575 0.152655
H125  H     H_    0.146981 0.940158 0.790470 0.158720
H126  H     H_    0.282113 0.903148 0.800474 0.192392
H127  H     H_    0.235515 0.920271 0.846273 0.236341
H128  H     H_    0.376746 0.094611 0.850058 0.192170
H129  H     H_    0.420594 0.080240 0.804085 0.148951
C142  C     C_3   0.332560 0.922070 0.335254 -0.254862
C143  C     C_3   0.261019 0.832867 0.359726 -0.305652
C144  C     C_3   0.165971 0.767220 0.337628 -0.438296
H130  H     H_    0.131199 0.810366 0.327978 0.166725
H131  H     H_    0.181393 0.733596 0.311840 0.161898
H132  H     H_    0.113835 0.707175 0.356996 0.167411
H133  H     H_    0.296092 0.788421 0.367229 0.177042
H134  H     H_    0.242493 0.857391 0.387402 0.192453
H135  H     H_    0.301947 0.971260 0.329570 0.142102
H136  H     H_    0.338600 0.893932 0.306135 0.168536
C145  C     C_3   0.621982 0.660127 0.327858 -0.214704
C146  C     C_3   0.718420 0.743651 0.344813 -0.268204
C147  C     C_3   0.772778 0.825770 0.315252 -0.456281
H137  H     H_    0.791859 0.797176 0.288797 0.156002
H138  H     H_    0.726822 0.858188 0.306832 0.158649
H139  H     H_    0.841772 0.884540 0.328486 0.166964
H140  H     H_    0.702594 0.776384 0.370823 0.226724
H141  H     H_    0.768155 0.715110 0.352695 0.219432
H142  H     H_    0.641639 0.638999 0.299544 0.158721
H143  H     H_    0.572837 0.690563 0.321537 0.167470
C148  C     C_3   0.871879 0.294401 0.305785 -0.264807
C149  C     C_3   0.780159 0.205431 0.288713 -0.274006
C150  C     C_3   0.806694 0.137785 0.265895 -0.416697
H144  H     H_    0.856723 0.178211 0.241290 0.163981
H145  H     H_    0.842937 0.108952 0.285367 0.162158
H146  H     H_    0.738929 0.074626 0.253828 0.190728
H147  H     H_    0.728483 0.163200 0.312453 0.200898
H148  H     H_    0.740769 0.229902 0.268966 0.224846
H149  H     H_    0.921404 0.338703 0.281689 0.152675
H150  H     H_    0.916525 0.269869 0.322378 0.162284
O45   O     O_3   0.055893 0.696288 0.836072 -0.705867
H151  H     H_    0.014706 0.679600 0.812346 0.333412
O46   O     O_3   0.313035 0.329296 0.843925 -0.691625
H152  H     H_    0.332177 0.304688 0.820669 0.335272
O47   O     O_3   0.635394 0.933756 0.834412 -0.710807
H153  H     H_    0.653145 0.966328 0.808658 0.340147
O48   O     O_3   0.679761 0.999192 0.347383 -0.728843
H154  H     H_    0.662004 0.961204 0.322672 0.330281
O49   O     O_3   0.344891 0.313821 0.339411 -0.679067
H155  H     H_    0.320337 0.334302 0.316785 0.339404
O50   O     O_3   0.809442 0.576057 0.327602 -0.722207
H156  H     H_    0.798172 0.569809 0.299047 0.342566

loop_
_geom_bond_atom_site_label_1
_geom_bond_atom_site_label_2
_ccdc_geom_bond_type
C98   H16   S    
C5    O4    A    
C120  H69   S    
C147  H137  S    
C149  H148  S    
C6    C58   S    
C36   C42   A    
C114  H48   S    
C80   O40   S    
C141  H123  S    
C114  H50   S    
C148  H149  S    
C7    C73   S    
Cr2   O20   S    
C63   O29   S    
C109  H47   S    
C108  H35   S    
C122  H78   S    
C91   N19   A    
C128  C129  S    
C1    C56   S    
C10   N16   A    
C4    O10   A    
C5    O11   A    
C12   N18   A    
Cr5   O23   S    
C38   C92   S    
C116  C117  S    
C125  C126  S    
C101  C102  S    
C80   C86   A    
C26   H2    S    
C66   C72   A    
C126  H82   S    
C28   H4    S    
C137  C138  S    
C13   C133  S    
C104  H31   S    
C132  H98   S    
C134  H113  S    
C70   C124  S    
C117  H61   S    
C96   N6    A    
C111  H42   S    
C107  C108  S    
C49   O19   A    
C103  C104  S    
O47   H153  S    
C115  H66   S    
Cr5   O5    S    
C111  H41   S    
C31   C37   A    
C142  H135  S    
C134  C135  S    
C135  H111  S    
C102  H20   S    
C64   O30   S    
C14   C38   A    
C17   C145  S    
C100  H26   S    
C56   C86   A    
O39   H103  S    
Cr2   O25   S    
C8    C74   S    
N16   N22   A    
C15   C39   A    
C16   C40   A    
C50   O13   A    
Cr5   O26   S    
C147  H139  S    
O48   H154  S    
C56   C62   A    
O49   H155  S    
N2    N8    A    
C79   C85   A    
C141  H125  S    
C138  H117  S    
C118  H73   S    
Cr3   O15   S    
Cr1   O13   S    
Cr3   O9    S    
C25   H1    S    
C140  C141  S    
C58   C88   A    
O45   H151  S    
C60   C90   A    
C127  H95   S    
C29   C35   A    
C30   C36   A    
C129  H90   S    
C148  C149  S    
C54   O24   A    
C119  H71   S    
C9    N15   A    
C150  H146  S    
C8    N8    A    
C139  C140  S    
C110  C111  S    
C105  H27   S    
C117  H63   S    
C149  H147  S    
C25   C31   A    
C26   C32   A    
C3    O9    A    
Cr1   O1    S    
Cr6   O26   S    
C139  H128  S    
C2    C57   S    
C26   C44   A    
C143  H133  S    
C69   C121  S    
C21   O35   S    
C27   C33   A    
C28   C46   A    
C146  H140  S    
C112  C113  S    
C29   C47   A    
C18   C24   A    
C124  H88   S    
C113  H51   S    
C30   C48   A    
C18   C42   A    
O27   H7    S    
C118  C119  S    
C62   O28   S    
C68   C74   A    
O38   H60   S    
C59   C89   A    
C61   C67   A    
C72   C78   A    
C11   C77   S    
C3    C55   S    
C68   C118  S    
C63   C69   A    
C122  C123  S    
C112  H54   S    
C86   C100  S    
O34   H56   S    
C22   O36   S    
C44   C52   S    
C121  H80   S    
O36   H58   S    
C97   H18   S    
C136  H122  S    
C84   C90   A    
C7    N13   A    
C106  H39   S    
C20   C44   A    
C57   C63   A    
C21   C45   A    
C99   H14   S    
C58   C64   A    
C83   C89   A    
C23   C47   A    
C116  H64   S    
C125  H85   S    
C24   C48   A    
C126  H84   S    
C103  H33   S    
C90   C112  S    
C102  H22   S    
C76   C82   A    
C33   O47   S    
C53   O16   A    
C57   C87   A    
C130  C131  S    
Cr4   O26   S    
C133  H115  S    
N17   N23   A    
N18   N24   A    
C105  H29   S    
C73   C79   A    
C101  H24   S    
C123  H76   S    
C53   O23   A    
C107  H37   S    
Cr3   O25   S    
C137  H120  S    
C130  H101  S    
C94   N22   A    
Cr6   O24   S    
C71   C77   A    
C81   O41   S    
Cr4   O22   S    
C128  H93   S    
C51   O21   A    
C122  H79   S    
C5    C60   S    
C40   C94   S    
C114  H49   S    
C109  H46   S    
N3    N9    A    
C3    O2    A    
C71   C127  S    
C6    O5    A    
C131  H99   S    
C59   C65   A    
C144  H132  S    
C82   O42   S    
C92   N2    A    
C82   C88   A    
C55   C61   A    
C94   N4    A    
C62   C68   A    
C35   C41   A    
C28   C34   A    
C52   O18   A    
C20   O34   S    
C127  C128  S    
C29   H5    S    
C1    O3    A    
C6    O12   A    
Cr1   O7    S    
Cr4   O4    S    
C36   O50   S    
C66   O32   S    
O37   H59   S    
C108  H34   S    
O28   H8    S    
C121  C122  S    
C89   C109  S    
C100  C101  S    
C35   O49   S    
C145  H143  S    
C42   C96   S    
C11   N17   A    
N13   N19   A    
C131  C132  S    
C110  H44   S    
C98   H17   S    
C115  C116  S    
C129  H89   S    
O32   H12   S    
C135  H110  S    
C149  C150  S    
C39   C93   S    
N5    N11   A    
C100  H25   S    
C43   C53   S    
O29   H9    S    
O35   H57   S    
C67   C73   A    
C72   C130  S    
C1    O7    A    
C27   C45   A    
C120  H70   S    
C60   C66   A    
C133  C134  S    
C147  H138  S    
C74   C80   A    
C95   N23   A    
C25   C43   A    
C34   O48   S    
C93   N21   A    
C141  H124  S    
C19   C43   A    
C148  H150  S    
C108  H36   S    
C2    O1    A    
C13   C19   A    
O41   H105  S    
C14   C20   A    
C132  H97   S    
C132  H96   S    
C67   C115  S    
C51   O14   A    
C127  H94   S    
C99   H13   S    
Cr4   O16   S    
C55   C85   A    
C119  C120  S    
C23   O37   S    
C109  C110  S    
C18   C148  S    
C113  H52   S    
C31   O45   S    
Cr1   O19   S    
Cr3   O3    S    
C24   O38   S    
C150  H145  S    
C17   C23   A    
C104  H30   S    
C84   O44   S    
C81   C87   A    
Cr6   O18   S    
C22   C46   A    
C134  H112  S    
C117  H62   S    
C34   C40   A    
C79   O39   S    
C144  H130  S    
C87   C103  S    
O50   H156  S    
C111  H43   S    
C46   C50   S    
C16   C22   A    
C30   H6    S    
C143  H134  S    
C65   O31   S    
C146  H141  S    
C142  H136  S    
C124  H87   S    
C102  H21   S    
C138  H116  S    
O44   H108  S    
C41   C95   S    
Cr3   O21   S    
C69   C75   A    
C8    N14   A    
N14   N20   A    
C136  C137  S    
C4    O6    A    
C50   O20   A    
C16   C142  S    
O40   H104  S    
C112  H53   S    
C77   C83   A    
N6    N12   A    
C118  H74   S    
C97   C98   S    
O30   H10   S    
C9    N9    A    
C106  C107  S    
C136  H121  S    
C150  H144  S    
C11   N11   A    
C47   C49   S    
O42   H106  S    
C33   C39   A    
C116  H65   S    
C125  H86   S    
C126  H83   S    
C103  H32   S    
C129  H91   S    
C61   O27   S    
C14   C136  S    
C27   H3    S    
C52   O22   A    
C49   O15   A    
Cr6   O6    S    
C7    N7    A    
C133  H114  S    
C12   N12   A    
C10   C76   S    
C32   O46   S    
C48   C51   S    
C145  C146  S    
C105  H28   S    
C12   C78   S    
C140  H127  S    
C32   C38   A    
C88   C106  S    
C123  H75   S    
C13   C37   A    
C96   N24   A    
C119  H72   S    
O31   H11   S    
C107  H38   S    
N15   N21   A    
C113  C114  S    
C92   N20   A    
C139  H129  S    
C54   O17   A    
C37   C91   S    
C75   C81   A    
Cr2   O14   S    
O43   H107  S    
C65   C71   A    
Cr2   O8    S    
Cr1   O25   S    
C131  H100  S    
C140  H126  S    
C10   N10   A    
C144  H131  S    
Cr6   O12   S    
C124  C125  S    
O46   H152  S    
C121  H81   S    
C93   N3    A    
C45   C54   S    
C64   C70   A    
C70   C76   A    
C97   H19   S    
C120  H68   S    
C106  H40   S    
O33   H55   S    
C98   C99   S    
C99   H15   S    
C115  H67   S    
C15   C139  S    
C128  H92   S    
C138  H118  S    
C145  H142  S    
Cr2   O2    S    
C2    O8    A    
C104  C105  S    
C91   N1    A    
C130  H102  S    
Cr4   O10   S    
N4    N10   A    
Cr5   O11   S    
C143  C144  S    
C110  H45   S    
C95   N5    A    
C4    C59   S    
Cr5   O17   S    
C146  C147  S    
C101  H23   S    
C83   O43   S    
C135  H109  S    
C123  H77   S    
C17   C41   A    
N1    N7    A    
C85   C97   S    
C78   C84   A    
C15   C21   A    
C137  H119  S    
C9    C75   S    
C142  C143  S    
C19   O33   S    
