data_mof_unit_32130.cif
_audit_creation_date              2012-12-10T16:52:05-0500
_audit_creation_method            fapswitch 2.2
_symmetry_space_group_name_H-M    P1
_symmetry_Int_Tables_number       1
_space_group_crystal_system       triclinic
_cell_length_a                    7.754868
_cell_length_b                    8.62631
_cell_length_c                    14.951321
_cell_angle_alpha                 91.35301
_cell_angle_beta                  85.549581
_cell_angle_gamma                 93.513067
_cell_volume                      995.113762064

loop_
_atom_site_label
_atom_site_type_symbol
_atom_type_description
_atom_site_fract_x
_atom_site_fract_y
_atom_site_fract_z
_atom_type_partial_charge
C1    C     C_R   0.545205 0.794432 0.499025 0.880594
C2    C     C_R   0.454795 0.205568 0.500975 0.880592
C3    C     C_R   0.804314 0.595288 0.943050 -0.222743
C4    C     C_R   0.195686 0.404711 0.056950 -0.222746
C5    C     C_2   0.565678 0.957448 0.510828 0.184348
C6    C     C_2   0.434321 0.042553 0.489174 0.184362
C7    C     C_R   0.501419 0.498762 0.673187 0.889501
C8    C     C_R   0.498581 0.501238 0.326813 0.889486
C9    C     C_R   0.345048 0.458024 0.190997 -0.255168
C10   C     C_R   0.654952 0.541976 0.809003 -0.255158
C11   C     C_R   0.496693 0.504715 0.231222 -0.058101
C12   C     C_R   0.503307 0.495284 0.768778 -0.058103
C13   C     C_R   0.648680 0.552041 0.180256 -0.255527
C14   C     C_R   0.351320 0.447958 0.819744 -0.255524
C15   C     C_R   0.650933 0.551339 0.087770 0.111153
C16   C     C_R   0.349067 0.448661 0.912230 0.111153
C17   C     C_R   0.499060 0.501642 0.046539 0.064807
C18   C     C_R   0.500940 0.498357 0.953461 0.064806
C19   C     C_R   0.345415 0.454978 0.098410 0.117499
C20   C     C_R   0.654584 0.545021 0.901590 0.117498
C21   C     C_R   0.802422 0.598607 0.036052 -0.218806
C22   C     C_R   0.197578 0.401393 0.963948 -0.218803
H1    H     H_    0.228436 0.420901 0.231610 0.153195
H2    H     H_    0.771564 0.579099 0.768390 0.153198
H3    H     H_    0.765004 0.589644 0.212625 0.162970
H4    H     H_    0.234996 0.410356 0.787375 0.162971
H5    H     H_    0.919075 0.637724 0.067506 0.160991
H6    H     H_    0.080925 0.362275 0.932493 0.160992
H7    H     H_    0.922395 0.631858 0.903632 0.155683
H8    H     H_    0.077605 0.368142 0.096367 0.155682
H9    H     H_    0.014433 0.382772 0.432190 0.189385
H10   H     H_    0.985567 0.617228 0.567809 0.189387
N1    N     N_2   0.950330 0.457950 0.475660 -0.157780
N2    N     N_2   0.049670 0.542050 0.524340 -0.157779
O1    O     O_R   0.389250 0.738570 0.505970 -0.554304
O2    O     O_R   0.610750 0.261430 0.494030 -0.554314
O3    O     O_R   0.678390 0.711620 0.490370 -0.647841
O4    O     O_R   0.321610 0.288380 0.509630 -0.647826
O5    O     O_R   0.355420 0.513510 0.639950 -0.630059
O6    O     O_R   0.644580 0.486490 0.360050 -0.630060
O7    O     O_R   0.644560 0.486560 0.624350 -0.624494
O8    O     O_R   0.355440 0.513440 0.375650 -0.624500
Zn1   Zn    Zn3+2 0.306940 0.517990 0.510420 0.980205
Zn2   Zn    Zn3+2 0.693060 0.482010 0.489580 0.980200
O9    O     O_3   0.707258 0.022970 0.552875 -0.767452
H11   H     H_    0.781173 0.940264 0.569781 0.341951
O10   O     O_3   0.292739 0.977031 0.447129 -0.767451
H12   H     H_    0.218876 0.059745 0.430180 0.341927

loop_
_geom_bond_atom_site_label_1
_geom_bond_atom_site_label_2
_ccdc_geom_bond_type
C16   C22   A    
H9    N1    S    
C4    C22   A    
C2    O4    A    
O6    Zn2   S    
O10   H12   S    
C1    O3    A    
C9    C11   A    
O3    Zn2   S    
C7    O7    A    
C17   C18   A    
C21   H5    S    
O4    Zn1   S    
C22   H6    S    
O9    H11   S    
C14   H4    S    
C11   C13   A    
C13   H3    S    
C2    C6    S    
C15   C21   A    
C10   C12   A    
C8    C11   S    
C1    C5    S    
C17   C19   A    
C12   C14   A    
N1    N2    D    
C18   C20   A    
C13   C15   A    
C5    C6    D    
O7    Zn2   S    
C14   C16   A    
C7    C12   S    
C3    C21   A    
O2    Zn2   S    
C6    O10   S    
C8    O8    A    
C3    C20   A    
C3    H7    S    
O1    Zn1   S    
C1    O1    A    
C16   C18   A    
O8    Zn1   S    
C2    O2    A    
C15   C17   A    
C7    O5    A    
C9    H1    S    
O5    Zn1   S    
C8    O6    A    
C10   H2    S    
C4    C19   A    
C5    O9    S    
C9    C19   A    
C4    H8    S    
N2    Zn1   S    
C10   C20   A    
N1    Zn2   S    
H10   N2    S    
