data_mof_unit_58931.cif
_audit_creation_date              2012-12-10T16:56:34-0500
_audit_creation_method            fapswitch 2.2
_symmetry_space_group_name_H-M    P1
_symmetry_Int_Tables_number       1
_space_group_crystal_system       triclinic
_cell_length_a                    10.803971
_cell_length_b                    10.950266
_cell_length_c                    9.684016
_cell_angle_alpha                 89.687608
_cell_angle_beta                  89.930113
_cell_angle_gamma                 90.417589
_cell_volume                      1145.63228138

loop_
_atom_site_label
_atom_site_type_symbol
_atom_type_description
_atom_site_fract_x
_atom_site_fract_y
_atom_site_fract_z
_atom_type_partial_charge
C1    C     C_R   0.497073 0.265306 0.500097 0.797658
C2    C     C_3   0.877639 0.505541 0.501841 0.021772
C3    C     C_3   0.927814 0.519013 0.351151 -0.446753
C4    C     C_3   0.925867 0.382286 0.565754 -0.008427
C5    C     C_2   0.511432 0.935342 0.386051 0.358841
C6    C     C_2   0.523794 0.865555 0.499551 -0.305358
C7    C     C_2   0.535794 0.067894 0.396770 0.250799
C8    C     C_2   0.482407 0.132771 0.498685 0.167899
C9    C     C_2   0.435622 0.421828 0.922321 0.507391
C10   C     C_2   0.426407 0.431561 0.078614 -0.160353
C11   C     C_R   0.260132 0.501585 0.499741 0.783391
C12   C     C_R   0.504532 0.734542 0.499515 0.846606
C13   C     C_R   0.739777 0.506110 0.500128 0.811221
C14   C     C_3   0.072769 0.601573 0.605456 -0.026295
C15   C     C_3   0.930873 0.617626 0.586110 -0.063401
C16   C     C_3   0.070136 0.535052 0.350535 -0.022266
C17   C     C_3   0.069981 0.370427 0.542263 0.251057
C18   C     C_3   0.122160 0.503517 0.499551 0.054718
Cu1   Cu    Cu3+1 0.500030 0.500020 0.638630 0.965631
Cu2   Cu    Cu3+1 0.499970 0.499980 0.361370 0.976528
H1    H     H_    0.108415 0.469172 0.275126 0.176310
H2    H     H_    0.901932 0.437524 0.289374 0.180065
H3    H     H_    0.553185 0.905896 0.596569 0.146799
H4    H     H_    0.538791 0.572731 0.894091 0.148953
H5    H     H_    0.357633 0.375789 0.131620 0.151294
H6    H     H_    0.088811 0.564819 0.710528 0.180575
H7    H     H_    0.569966 0.544577 0.105105 0.190656
H8    H     H_    0.914074 0.700909 0.522528 0.177647
H9    H     H_    0.882460 0.597586 0.298671 0.185548
H10   H     H_    0.908950 0.388829 0.678739 0.165904
N1    N     N_2   0.498630 0.498660 0.846910 -0.279398
N2    N     N_2   0.498590 0.498630 0.153040 -0.279336
O1    O     O_R   0.500020 0.321960 0.617040 -0.544034
O2    O     O_R   0.499980 0.321920 0.382900 -0.530907
O3    O     O_R   0.317710 0.500000 0.617070 -0.553804
O4    O     O_R   0.317670 0.499960 0.382930 -0.594200
O5    O     O_R   0.500020 0.678080 0.617100 -0.605496
O6    O     O_R   0.499980 0.678040 0.382960 -0.511036
O7    O     O_R   0.682330 0.500040 0.617070 -0.584899
O8    O     O_R   0.682290 0.500000 0.382930 -0.584147
C19   C     C_3   0.140608 0.727146 0.607792 -0.831753
H11   H     H_    0.110832 0.789662 0.524652 0.236748
H12   H     H_    0.120238 0.774167 0.706419 0.231211
H13   H     H_    0.242400 0.718263 0.602486 0.247199
C20   C     C_3   0.850054 0.267585 0.523324 -0.823782
H14   H     H_    0.842957 0.258938 0.409592 0.257272
H15   H     H_    0.891883 0.183655 0.567084 0.230644
H16   H     H_    0.755041 0.271434 0.566253 0.231431
O9    O     O_3   0.477303 0.884614 0.261096 -0.716480
H17   H     H_    0.464757 0.951748 0.193542 0.325340
O10   O     O_3   0.612304 0.125378 0.301304 -0.750648
H18   H     H_    0.649610 0.062264 0.241519 0.324878
O11   O     O_3   0.405659 0.075346 0.594081 -0.774073
H19   H     H_    0.372850 0.136991 0.658630 0.349930
O12   O     O_3   0.373034 0.328943 0.856509 -0.716812
H20   H     H_    0.330683 0.277551 0.926905 0.291278
C21   C     C_3   0.868905 0.644177 0.726894 -0.888883
H21   H     H_    0.922466 0.714175 0.784359 0.236824
H22   H     H_    0.775384 0.683310 0.711802 0.250676
H23   H     H_    0.862646 0.561252 0.792794 0.240556
C22   C     C_3   0.107693 0.661048 0.289858 -0.812032
H24   H     H_    0.043691 0.734113 0.322294 0.222228
H25   H     H_    0.203533 0.687727 0.317854 0.269014
H26   H     H_    0.102712 0.657579 0.175324 0.223133
C23   C     C_3   0.102640 0.273988 0.429013 -0.820282
H27   H     H_    0.046859 0.284210 0.333952 0.212370
H28   H     H_    0.201945 0.279812 0.400021 0.213932
H29   H     H_    0.086530 0.179123 0.466528 0.247770
C24   C     C_3   0.127625 0.318531 0.677489 -0.824711
H30   H     H_    0.079830 0.232385 0.708351 0.225447
H31   H     H_    0.225918 0.295066 0.661079 0.278762
H32   H     H_    0.120648 0.380718 0.766656 0.215660

loop_
_geom_bond_atom_site_label_1
_geom_bond_atom_site_label_2
_ccdc_geom_bond_type
C8    O11   S    
C24   H32   S    
C2    C4    S    
O12   H20   S    
C11   C18   S    
C17   C24   S    
C16   H1    S    
C9    O12   S    
C22   H26   S    
C1    C8    S    
C19   H12   S    
C9    C10   S    
C14   C18   S    
C17   C23   S    
Cu1   Cu2   S    
C23   H29   S    
Cu1   N1    S    
O9    H17   S    
C11   O3    A    
C17   C18   S    
C15   H8    S    
H4    N1    S    
C7    O10   S    
C7    C8    D    
Cu1   O3    S    
C20   H14   S    
C14   H6    S    
C6    C12   S    
C2    C15   S    
C15   C21   S    
C5    O9    S    
C21   H21   S    
C24   H30   S    
Cu1   O7    S    
C14   C19   S    
C5    C6    D    
C4    C17   S    
C10   H5    S    
C16   C18   S    
C11   O4    A    
Cu2   N2    S    
C1    O2    A    
C2    C3    S    
C4    C20   S    
C20   H15   S    
C12   O6    A    
C22   H24   S    
Cu2   O8    S    
C19   H13   S    
C21   H22   S    
C13   O7    A    
C16   C22   S    
C6    H3    S    
C1    O1    A    
Cu2   O2    S    
Cu2   O4    S    
C10   N2    D    
C24   H31   S    
C21   H23   S    
Cu2   O6    S    
C3    H9    S    
C23   H27   S    
C19   H11   S    
C20   H16   S    
C12   O5    A    
C5    C7    S    
C2    C13   S    
C9    N1    D    
C14   C15   S    
C13   O8    A    
Cu1   O5    S    
C23   H28   S    
H7    N2    S    
O11   H19   S    
C22   H25   S    
C4    H10   S    
C3    C16   S    
O10   H18   S    
Cu1   O1    S    
C3    H2    S    
