data_mof_unit_22950.cif
_audit_creation_date              2012-12-10T16:37:32-0500
_audit_creation_method            fapswitch 2.2
_symmetry_space_group_name_H-M    P1
_symmetry_Int_Tables_number       1
_space_group_crystal_system       triclinic
_cell_length_a                    10.8453
_cell_length_b                    10.847725
_cell_length_c                    15.521922
_cell_angle_alpha                 96.359691
_cell_angle_beta                  74.373641
_cell_angle_gamma                 98.832602
_cell_volume                      1733.12615774

loop_
_atom_site_label
_atom_site_type_symbol
_atom_type_description
_atom_site_fract_x
_atom_site_fract_y
_atom_site_fract_z
_atom_type_partial_charge
C1    C     C_R   0.157992 0.477339 0.520878 0.499229
C2    C     C_R   0.501627 0.468537 0.119262 -0.131745
C3    C     C_R   0.700529 0.388900 0.112653 -0.125384
C4    C     C_R   0.842642 0.524332 0.480930 0.491883
C5    C     C_R   0.421881 0.576318 0.840296 0.019072
C6    C     C_2   0.980639 0.542204 0.476368 -0.037488
C7    C     C_2   0.023207 0.469913 0.524196 -0.111809
C8    C     C_2   0.542090 0.967686 0.472341 -0.121275
C9    C     C_2   0.455809 0.034982 0.527135 -0.105769
C10   C     C_R   0.468823 0.167524 0.519994 0.493054
C11   C     C_R   0.529953 0.833893 0.480022 0.511931
C12   C     C_R   0.265960 0.618487 0.980999 -0.152680
C13   C     C_R   0.556616 0.444984 0.258613 0.499142
C14   C     C_R   0.448083 0.556228 0.741651 0.487447
C15   C     C_R   0.739962 0.395170 0.019702 -0.010682
C16   C     C_R   0.583347 0.427158 0.161772 0.023007
C17   C     C_R   0.304034 0.616754 0.888158 -0.126455
C18   C     C_R   0.860309 0.342790 0.969633 0.024035
C19   C     C_R   0.858177 0.251129 0.898251 -0.099614
C20   C     C_R   0.970421 0.199721 0.852261 -0.113679
C21   C     C_R   0.085157 0.237653 0.877970 -0.099379
C22   C     C_R   0.087760 0.326853 0.949822 -0.107820
C23   C     C_R   0.341437 0.574450 0.027509 -0.131318
C24   C     C_R   0.976089 0.379653 0.995446 -0.100662
C25   C     C_R   0.067659 0.642699 0.423426 0.046648
C26   C     C_R   0.046626 0.768124 0.446337 -0.067676
C27   C     C_R   0.130502 0.863718 0.399314 -0.106118
C28   C     C_R   0.235499 0.834824 0.328896 -0.095841
C29   C     C_R   0.256268 0.710219 0.304917 -0.119965
C30   C     C_R   0.172420 0.614261 0.351562 -0.089613
C31   C     C_R   0.461809 0.533591 0.981958 0.032727
C32   C     C_R   0.505920 0.544052 0.887849 0.029297
C33   C     C_R   0.540248 0.483530 0.026520 0.019836
C34   C     C_R   0.663046 0.449208 0.976863 0.037208
C35   C     C_R   0.709833 0.476605 0.886999 -0.145229
C36   C     C_R   0.633805 0.524902 0.843917 -0.120732
H1    H     H_    0.761495 0.354599 0.147298 0.108825
H2    H     H_    0.959125 0.395361 0.561080 0.111761
H3    H     H_    0.769487 0.219329 0.878405 0.115401
H4    H     H_    0.968219 0.129839 0.797041 0.108306
H5    H     H_    0.171857 0.197362 0.842594 0.113530
H6    H     H_    0.176370 0.354618 0.970279 0.127566
H7    H     H_    0.979910 0.449171 0.050730 0.105321
H8    H     H_    0.966433 0.791906 0.501423 0.102841
H9    H     H_    0.114460 0.960276 0.417764 0.116854
H10   H     H_    0.300663 0.908969 0.292850 0.121488
H11   H     H_    0.337553 0.688154 0.250303 0.101362
H12   H     H_    0.622001 0.011788 0.421899 0.103270
H13   H     H_    0.189348 0.518128 0.331862 0.120021
H14   H     H_    0.374682 0.993009 0.577630 0.120008
H15   H     H_    0.807133 0.463459 0.849339 0.124326
H16   H     H_    0.411821 0.494433 0.161628 0.089022
H17   H     H_    0.238868 0.643506 0.853593 0.141283
H18   H     H_    0.302493 0.574586 0.099000 0.101900
H19   H     H_    0.174348 0.649242 0.017060 0.121685
H20   H     H_    0.678623 0.549888 0.776054 0.145466
O1    O     O_3   0.500000 0.500000 0.500000 -0.435240
O2    O     O_R   0.463530 0.379110 0.309170 -0.543338
O3    O     O_R   0.388210 0.611730 0.699360 -0.548826
O4    O     O_R   0.624720 0.532760 0.292120 -0.537964
O5    O     O_R   0.523540 0.476390 0.699360 -0.549070
O6    O     O_R   0.537910 0.240570 0.564270 -0.531531
O7    O     O_R   0.438950 0.782540 0.540270 -0.537780
O8    O     O_R   0.222350 0.398740 0.468260 -0.546764
O9    O     O_R   0.800790 0.578160 0.427210 -0.537014
O10   O     O_R   0.212140 0.566330 0.564260 -0.528708
O11   O     O_R   0.764730 0.456770 0.540270 -0.552015
O12   O     O_R   0.412790 0.208310 0.468260 -0.539360
O13   O     O_R   0.610350 0.768590 0.427210 -0.537206
Zn1   Zn    Zn3+2 0.580150 0.419820 0.574680 0.923836
Zn2   Zn    Zn3+2 0.401380 0.373730 0.437510 0.928700
Zn3   Zn    Zn3+2 0.631680 0.593260 0.413140 0.940735
Zn4   Zn    Zn3+2 0.386790 0.613180 0.574670 0.937722

loop_
_geom_bond_atom_site_label_1
_geom_bond_atom_site_label_2
_ccdc_geom_bond_type
O5    Zn1   S    
C15   C18   S    
C17   H17   S    
C35   C36   A    
C26   H8    S    
C13   O4    A    
C14   O3    A    
C12   C23   A    
C28   H10   S    
C26   C27   A    
C29   H11   S    
C18   C24   A    
C19   H3    S    
C28   C29   A    
C18   C19   A    
C11   O7    A    
O12   Zn2   S    
C4    O9    A    
C20   H4    S    
O2    Zn2   S    
C6    C25   S    
C5    C17   A    
O4    Zn3   S    
O6    Zn1   S    
C34   C35   A    
O8    Zn2   S    
O1    Zn4   S    
C19   C20   A    
C8    C9    D    
C12   C17   A    
C31   C33   A    
O1    Zn1   S    
C2    C16   A    
C9    C10   S    
O3    Zn4   S    
C15   C34   A    
C5    C32   A    
C27   H9    S    
C21   C22   A    
C10   O6    A    
C1    O10   A    
C4    C6    S    
C13   O2    A    
O7    Zn4   S    
C25   C26   A    
O10   Zn4   S    
C23   C31   A    
O13   Zn3   S    
C8    H12   S    
C29   C30   A    
C36   H20   S    
C31   C32   A    
C33   C34   A    
O1    Zn2   S    
C5    C14   S    
C2    H16   S    
C21   H5    S    
C2    C33   A    
C30   H13   S    
C35   H15   S    
C22   C24   A    
C1    O8    A    
C32   C36   A    
C3    C15   A    
C23   H18   S    
C25   C30   A    
C1    C7    S    
C9    H14   S    
C4    O11   A    
C11   O13   A    
C6    C7    D    
C10   O12   A    
O9    Zn3   S    
O11   Zn1   S    
C14   O5    A    
C22   H6    S    
C8    C11   S    
C7    H2    S    
O1    Zn3   S    
C12   H19   S    
C20   C21   A    
C3    H1    S    
C13   C16   S    
C27   C28   A    
C24   H7    S    
C3    C16   A    
