data_mof_unit_50234.cif
_audit_creation_date              2012-10-26T19:46:09-0400
_audit_creation_method            fapswitch 2.2
_symmetry_space_group_name_H-M    P1
_symmetry_Int_Tables_number       1
_space_group_crystal_system       triclinic
_cell_length_a                    10.796097
_cell_length_b                    9.566753
_cell_length_c                    15.878525
_cell_angle_alpha                 89.915188
_cell_angle_beta                  91.129242
_cell_angle_gamma                 90.161472
_cell_volume                      1639.66443082

loop_
_atom_site_label
_atom_site_type_symbol
_atom_type_description
_atom_site_fract_x
_atom_site_fract_y
_atom_site_fract_z
_atom_type_partial_charge
C1    C     C_R   0.262262 0.499841 0.499926 0.604496
C2    C     C_R   0.936559 0.592999 0.552131 -0.083020
C3    C     C_R   0.870888 0.500082 0.500351 -0.050520
C4    C     C_R   0.128033 0.499588 0.500202 0.035690
C5    C     C_R   0.424453 0.074043 0.446036 -0.016350
C6    C     C_R   0.424355 0.925654 0.446077 -0.013794
C7    C     C_R   0.499667 0.500101 0.340257 0.546337
C8    C     C_R   0.576161 0.926014 0.554217 0.378282
C9    C     C_R   0.576361 0.074349 0.554107 0.372824
C10   C     C_R   0.737478 0.500118 0.500332 0.559957
C11   C     C_R   0.500318 0.499897 0.659673 0.582504
C12   C     C_3   0.632980 0.462139 0.953268 -0.249321
C13   C     C_3   0.460336 0.646909 0.049150 -0.138268
C14   C     C_3   0.403395 0.394274 0.048270 -0.154564
C15   C     C_3   0.413325 0.376068 0.950456 0.498658
C16   C     C_3   0.472581 0.653738 0.951068 0.513693
C17   C     C_1   0.501178 0.499547 0.749166 -0.002854
C18   C     C_3   0.498853 0.501302 0.082728 -0.061749
C19   C     C_3   0.501469 0.498527 0.916925 0.105512
C20   C     C_3   0.250833 0.666789 0.920314 -0.080623
C21   C     C_3   0.210014 0.280134 0.939027 -0.123647
C22   C     C_3   0.467506 0.193571 0.853574 -0.075335
C23   C     C_3   0.630174 0.463766 0.050983 -0.236604
C24   C     C_3   0.599804 0.786694 0.856461 -0.043404
C25   C     C_1   0.501841 0.498978 0.824683 -0.023421
C26   C     C_1   0.498988 0.500853 0.174992 -0.067081
C27   C     C_1   0.499270 0.500425 0.250563 0.000725
C28   C     C_R   0.060953 0.407005 0.447240 0.195893
C29   C     C_R   0.064964 0.592240 0.553358 0.188651
C30   C     C_R   0.932618 0.406535 0.448698 -0.086355
Cl1   Cl    Cl    0.676349 0.838739 0.625545 -0.566276
Cl2   Cl    Cl    0.677873 0.162264 0.624608 -0.526803
Cl3   Cl    Cl    0.132815 0.295533 0.374687 -0.622167
Cl4   Cl    Cl    0.142308 0.703893 0.625634 -0.557172
Cu1   Cu    Cu3+1 0.500020 0.640660 0.500000 1.068401
Cu2   Cu    Cu3+1 0.500020 0.359340 0.500000 1.065082
H1    H     H_    0.366329 0.674105 0.070660 0.095074
H2    H     H_    0.888078 0.663341 0.593319 0.214806
H3    H     H_    0.364032 0.129435 0.402472 0.185440
H4    H     H_    0.363515 0.869976 0.402732 0.142391
H5    H     H_    0.238982 0.599741 0.976089 0.114326
H6    H     H_    0.224027 0.610718 0.861625 0.209617
H7    H     H_    0.184277 0.754049 0.926646 0.139146
H8    H     H_    0.147067 0.327885 0.985248 0.112148
H9    H     H_    0.254510 0.186347 0.967797 0.164547
H10   H     H_    0.152228 0.243978 0.884741 0.158503
H11   H     H_    0.557255 0.219081 0.824289 0.145343
H12   H     H_    0.309183 0.428194 0.066165 0.095328
H13   H     H_    0.390172 0.233918 0.813452 0.174036
H14   H     H_    0.458839 0.078014 0.854033 0.159242
H15   H     H_    0.515275 0.796729 0.816015 0.190824
H16   H     H_    0.666452 0.715804 0.825925 0.136268
H17   H     H_    0.643806 0.891538 0.859099 0.159454
H18   H     H_    0.418277 0.291764 0.080251 0.154520
H19   H     H_    0.520939 0.727256 0.079910 0.162409
H20   H     H_    0.699091 0.541089 0.075494 0.147044
H21   H     H_    0.658001 0.359243 0.075592 0.151950
H22   H     H_    0.704809 0.536085 0.931080 0.150387
H23   H     H_    0.665224 0.358519 0.931305 0.156879
H24   H     H_    0.880821 0.335798 0.407885 0.170542
N1    N     N_R   0.500030 0.852070 0.500020 -0.243888
N2    N     N_R   0.500030 0.147930 0.500020 -0.256250
O1    O     O_R   0.319660 0.618740 0.500000 -0.468869
O2    O     O_3   0.294330 0.382602 0.909981 -0.607989
O3    O     O_3   0.467994 0.241023 0.938113 -0.589426
O4    O     O_3   0.578984 0.741680 0.940178 -0.579689
O5    O     O_R   0.319660 0.381260 0.500000 -0.466044
O6    O     O_R   0.500020 0.618840 0.379440 -0.516978
O7    O     O_R   0.500020 0.381160 0.379440 -0.500080
O8    O     O_R   0.680370 0.618830 0.500010 -0.466306
O9    O     O_R   0.680370 0.381170 0.500010 -0.459149
O10   O     O_R   0.500010 0.618730 0.620560 -0.440653
O11   O     O_R   0.500010 0.381270 0.620560 -0.466610
O12   O     O_3   0.369928 0.724738 0.911441 -0.565671

loop_
_geom_bond_atom_site_label_1
_geom_bond_atom_site_label_2
_ccdc_geom_bond_type
C7    O7    A    
C3    C30   A    
C20   H6    S    
C15   O2    S    
C29   Cl4   S    
C22   O3    S    
C24   H16   S    
C16   O12   S    
C21   H8    S    
C14   C18   S    
C13   H1    S    
C4    C29   A    
C18   C26   S    
Cu2   O9    S    
C24   O4    S    
C8    N1    A    
C22   H14   S    
C1    C4    S    
C17   C25   T    
C10   O9    A    
C24   H15   S    
C28   C30   A    
C20   H5    S    
C24   H17   S    
Cu2   O5    S    
C20   O12   S    
C12   H22   S    
Cu1   N1    S    
C3    C10   S    
C15   C19   S    
C12   H23   S    
C12   C23   S    
C26   C27   T    
Cu1   O6    S    
C2    C29   A    
Cu2   N2    S    
C10   O8    A    
C12   C19   S    
C14   H18   S    
C5    N2    A    
C2    C3    A    
C21   H9    S    
C5    H3    S    
C16   C19   S    
C5    C6    A    
C19   C25   S    
C6    H4    S    
C16   O4    S    
C28   Cl3   S    
Cu1   O10   S    
C18   C23   S    
C15   O3    S    
C11   O11   A    
C1    O1    A    
C23   H20   S    
C20   H7    S    
C7    C27   S    
Cu2   O7    S    
C6    N1    A    
C13   C18   S    
C21   H10   S    
Cu2   O11   S    
C13   C16   S    
C22   H13   S    
C23   H21   S    
C2    H2    S    
C14   C15   S    
C11   C17   S    
C21   O2    S    
C14   H12   S    
C9    Cl2   S    
C1    O5    A    
C7    O6    A    
C11   O10   A    
C8    Cl1   S    
C4    C28   A    
Cu1   O1    S    
C22   H11   S    
C9    N2    A    
Cu1   O8    S    
C8    C9    A    
C13   H19   S    
Cu1   Cu2   S    
C30   H24   S    
