data_mof_unit_11328.cif
_audit_creation_date              2013-03-05T15:54:32-0500
_audit_creation_method            fapswitch 2.2
_symmetry_space_group_name_H-M    P1
_symmetry_Int_Tables_number       1
_space_group_crystal_system       triclinic
_cell_length_a                    18.913567
_cell_length_b                    18.698764
_cell_length_c                    12.500734
_cell_angle_alpha                 89.876016
_cell_angle_beta                  131.02273
_cell_angle_gamma                 90.126859
_cell_volume                      3335.42079869

loop_
_atom_site_label
_atom_site_type_symbol
_atom_site_description
_atom_site_fract_x
_atom_site_fract_y
_atom_site_fract_z
_atom_type_partial_charge
O1    O     O_R   0.608610 0.924520 0.551740 -0.545681
O2    O     O_R   0.608610 0.075480 0.551740 -0.526915
O3    O     O_R   0.108610 0.424520 0.551740 -0.545677
O4    O     O_R   0.108610 0.575480 0.551740 -0.526908
O5    O     O_R   0.564110 0.924510 0.685150 -0.518875
O6    O     O_R   0.564110 0.075490 0.685150 -0.511864
O7    O     O_R   0.064110 0.424510 0.685150 -0.518866
O8    O     O_R   0.064110 0.575490 0.685150 -0.511864
C1    C     C_R   0.611267 0.897565 0.651619 0.839502
C2    C     C_R   0.611209 0.102573 0.651358 0.846532
C3    C     C_R   0.111265 0.397564 0.651617 0.839539
C4    C     C_R   0.111203 0.602577 0.651349 0.846559
Cu1   Cu    Cu3+1 0.526340 0.000000 0.421010 0.981201
Cu2   Cu    Cu3+1 0.026340 0.500000 0.421010 0.981198
Cu3   Cu    Cu3+1 0.473640 0.000000 0.578990 0.968539
Cu4   Cu    Cu3+1 0.973640 0.500000 0.578990 0.968537
O9    O     O_R   0.435880 0.075470 0.314850 -0.590938
O10   O     O_R   0.435880 0.924530 0.314850 -0.581842
O11   O     O_R   0.935880 0.575470 0.314850 -0.590948
O12   O     O_R   0.935880 0.424530 0.314850 -0.581858
O13   O     O_R   0.391380 0.075460 0.448260 -0.604777
O14   O     O_R   0.391380 0.924540 0.448260 -0.607599
O15   O     O_R   0.891380 0.575460 0.448260 -0.604793
O16   O     O_R   0.891380 0.424540 0.448260 -0.607571
C5    C     C_R   0.384820 0.099432 0.343473 0.774114
C6    C     C_R   0.384787 0.900519 0.343499 0.779934
C7    C     C_R   0.884819 0.599432 0.343471 0.774075
C8    C     C_R   0.884764 0.400540 0.343466 0.779943
C9    C     C_R   0.646218 0.316964 0.097312 0.184780
C10   C     C_R   0.646792 0.683654 0.099508 0.183521
C11   C     C_R   0.146422 0.816609 0.097827 0.184836
C12   C     C_R   0.146786 0.183638 0.099496 0.183505
H1    H     H_    0.218496 0.888172 0.275728 0.157432
H2    H     H_    0.218872 0.111514 0.276798 0.159305
H3    H     H_    0.718293 0.388584 0.275135 0.157296
H4    H     H_    0.718875 0.611532 0.276815 0.159289
H5    H     H_    0.506000 0.246522 0.856366 0.150073
H6    H     H_    0.506631 0.754780 0.859438 0.151559
H7    H     H_    0.006103 0.746392 0.856638 0.150072
H8    H     H_    0.006631 0.254784 0.859450 0.151557
C13   C     C_R   0.310126 0.849906 0.242902 -0.092446
C14   C     C_R   0.310200 0.149987 0.243101 -0.092319
C15   C     C_R   0.810034 0.350001 0.242762 -0.092342
C16   C     C_R   0.810201 0.649990 0.243102 -0.092302
C17   C     C_R   0.746875 0.178974 0.736920 -0.164238
C18   C     C_R   0.746793 0.821404 0.737414 -0.165536
C19   C     C_R   0.246815 0.679022 0.736803 -0.164245
C20   C     C_R   0.246782 0.321392 0.737399 -0.165498
C21   C     C_R   0.312241 0.731505 0.826425 -0.173004
C22   C     C_R   0.311669 0.268503 0.826277 -0.162415
C23   C     C_R   0.812316 0.231440 0.826580 -0.172974
C24   C     C_R   0.811685 0.768519 0.826298 -0.162453
C25   C     C_R   0.310033 0.764894 0.923550 -0.189522
C26   C     C_R   0.308970 0.234580 0.922722 -0.178126
C27   C     C_R   0.810083 0.264844 0.923670 -0.189531
C28   C     C_R   0.808982 0.734590 0.922734 -0.178062
C29   C     C_R   0.739468 0.248310 0.928913 0.106945
C30   C     C_R   0.739021 0.751695 0.928974 0.097970
C31   C     C_R   0.239470 0.748320 0.928890 0.106953
C32   C     C_R   0.239016 0.251693 0.928972 0.097984
C33   C     C_R   0.663519 0.205542 0.819349 0.098019
C34   C     C_R   0.663375 0.794759 0.819975 0.086058
C35   C     C_R   0.163522 0.705542 0.819352 0.098011
C36   C     C_R   0.163372 0.294760 0.819977 0.086062
C37   C     C_R   0.238334 0.777585 0.032851 0.015714
C38   C     C_R   0.238168 0.222609 0.033366 0.012034
C39   C     C_R   0.738275 0.277631 0.032779 0.015755
C40   C     C_R   0.738171 0.722611 0.033365 0.012020
C41   C     C_R   0.651985 0.279715 0.004616 0.109017
C42   C     C_R   0.652270 0.720932 0.006339 0.109037
C43   C     C_R   0.152098 0.779556 0.004865 0.108993
C44   C     C_R   0.152267 0.220928 0.006339 0.109039
C45   C     C_R   0.573202 0.245408 0.883378 -0.225678
C46   C     C_R   0.573565 0.755524 0.885598 -0.223748
C47   C     C_R   0.073285 0.745299 0.883583 -0.225679
C48   C     C_R   0.073563 0.255526 0.885605 -0.223753
C49   C     C_R   0.579214 0.208090 0.793982 -0.200605
C50   C     C_R   0.579322 0.792558 0.795475 -0.204784
C51   C     C_R   0.079243 0.708060 0.794059 -0.200558
C52   C     C_R   0.079320 0.292562 0.795485 -0.204777
C53   C     C_R   0.320034 0.804423 0.164232 0.102898
C54   C     C_R   0.319954 0.195637 0.164274 0.109570
C55   C     C_R   0.819961 0.304438 0.164206 0.102848
C56   C     C_R   0.819956 0.695638 0.164275 0.109598
C57   C     C_R   0.224646 0.854214 0.211995 -0.240268
C58   C     C_R   0.224923 0.145684 0.212967 -0.241376
C59   C     C_R   0.724472 0.354514 0.211557 -0.240211
C60   C     C_R   0.724926 0.645696 0.212978 -0.241397
C61   C     C_R   0.672965 0.164158 0.734242 -0.123832
C62   C     C_R   0.672920 0.836122 0.734745 -0.122274
C63   C     C_R   0.172942 0.664176 0.734200 -0.123876
C64   C     C_R   0.172915 0.336119 0.734742 -0.122274
H9    H     H_    0.754224 0.150045 0.669735 0.194620
H10   H     H_    0.754367 0.850602 0.670504 0.176243
H11   H     H_    0.254146 0.650105 0.669587 0.194615
H12   H     H_    0.254355 0.350586 0.670483 0.176208
H13   H     H_    0.361826 0.805628 0.990004 0.141483
H14   H     H_    0.359740 0.192979 0.987891 0.151921
H15   H     H_    0.861891 0.305565 0.990159 0.141507
H16   H     H_    0.859755 0.692992 0.987906 0.151923
H17   H     H_    0.366364 0.745105 0.823185 0.139586
H18   H     H_    0.365613 0.254888 0.822761 0.135733
H19   H     H_    0.866466 0.245020 0.823391 0.139579
H20   H     H_    0.865636 0.754913 0.822793 0.135741
H21   H     H_    0.514989 0.185133 0.699918 0.164816
H22   H     H_    0.515030 0.815527 0.701608 0.168213
H23   H     H_    0.015003 0.685124 0.699985 0.164807
H24   H     H_    0.015029 0.315534 0.701622 0.168229
C65   C     C_R   0.689456 0.012948 0.297935 0.000730
C66   C     C_R   0.189452 0.512973 0.297932 0.000719
N1    N     N_R   0.566260 0.000000 0.302220 -0.246601
N2    N     N_R   0.066260 0.500000 0.302220 -0.246603
C67   C     C_R   0.342008 0.986742 0.620347 0.072002
C68   C     C_R   0.842010 0.486735 0.620351 0.072037
C69   C     C_R   0.310507 0.958638 0.685485 0.122336
C70   C     C_R   0.810516 0.458624 0.685495 0.122319
C71   C     C_R   0.373614 0.951652 0.832777 -0.171319
C72   C     C_R   0.873626 0.451639 0.832788 -0.171312
C73   C     C_R   0.465761 0.979548 0.919252 -0.079956
C74   C     C_R   0.965766 0.479547 0.919256 -0.079964
C75   C     C_R   0.498361 0.995315 0.846315 0.097223
C76   C     C_R   0.998363 0.495319 0.846316 0.097204
C77   C     C_R   0.528968 0.987181 0.073895 -0.098774
C78   C     C_R   0.028971 0.487186 0.073896 -0.098780
C79   C     C_R   0.626655 0.995545 0.150816 -0.076144
C80   C     C_R   0.126656 0.495564 0.150817 -0.076153
C81   C     C_R   0.658787 0.986474 0.077567 0.065544
C82   C     C_R   0.158792 0.486497 0.077572 0.065546
C83   C     C_R   0.597468 0.996534 0.931301 0.597189
C84   C     C_R   0.097470 0.496545 0.931302 0.597194
C85   C     C_R   0.500160 0.991455 0.155490 0.234880
C86   C     C_R   0.000161 0.491453 0.155490 0.234884
C87   C     C_R   0.658009 0.009383 0.371827 0.731246
C88   C     C_R   0.158007 0.509395 0.371826 0.731240
N3    N     N_R   0.434410 0.000000 0.697680 -0.211334
N4    N     N_R   0.934410 0.500000 0.697680 -0.211339
H25   H     H_    0.295217 0.989716 0.505895 0.120190
H26   H     H_    0.795217 0.489706 0.505899 0.120163
H27   H     H_    0.349866 0.919670 0.874721 0.160227
H28   H     H_    0.849887 0.419651 0.874740 0.160236
C89   C     C_3   0.755506 0.957512 0.148180 -0.740008
H29   H     H_    0.749641 0.913686 0.082741 0.245513
H30   H     H_    0.800570 0.000177 0.158531 0.241653
H31   H     H_    0.789413 0.932917 0.252636 0.221467
C90   C     C_3   0.255518 0.457549 0.148196 -0.740002
H32   H     H_    0.289433 0.432963 0.252663 0.221465
H33   H     H_    0.249665 0.413718 0.082775 0.245518
H34   H     H_    0.300570 0.500220 0.158529 0.241649
C91   C     C_3   0.785367 0.045673 0.375589 -0.783238
H35   H     H_    0.791441 0.071179 0.301839 0.234219
H36   H     H_    0.797816 0.089550 0.446095 0.246666
H37   H     H_    0.840839 0.004831 0.442255 0.237169
C92   C     C_3   0.285352 0.545717 0.375578 -0.783207
H38   H     H_    0.297781 0.589600 0.446061 0.246660
H39   H     H_    0.340838 0.504886 0.442266 0.237169
H40   H     H_    0.291421 0.571220 0.301821 0.234224
C93   C     C_3   0.396759 0.988598 0.079622 -0.741703
H41   H     H_    0.375089 0.008688 0.134550 0.265080
H42   H     H_    0.355691 0.022792 0.983514 0.196951
H43   H     H_    0.373139 0.932240 0.059186 0.195834
C94   C     C_3   0.896761 0.488590 0.079622 -0.741698
H44   H     H_    0.873146 0.432231 0.059198 0.195861
H45   H     H_    0.875090 0.508687 0.134547 0.265071
H46   H     H_    0.855688 0.522778 0.983505 0.196942
C95   C     C_3   0.211781 0.931810 0.599164 -0.903795
H47   H     H_    0.170541 0.940154 0.483845 0.224296
H48   H     H_    0.212544 0.873691 0.618488 0.248243
H49   H     H_    0.176577 0.960670 0.630501 0.245075
C96   C     C_3   0.711794 0.431786 0.599181 -0.903680
H50   H     H_    0.670551 0.440130 0.483861 0.224305
H51   H     H_    0.712566 0.373667 0.618509 0.248254
H52   H     H_    0.676588 0.460641 0.630519 0.245043
F1    F     F_    0.641017 0.001814 0.880144 -0.644834
F2    F     F_    0.141018 0.501815 0.880142 -0.644832
C97   C     C_3   0.556903 0.320533 0.073125 -0.878112
H53   H     H_    0.534312 0.265698 0.073303 0.229489
H54   H     H_    0.566195 0.351469 0.157394 0.234513
H55   H     H_    0.501133 0.347031 0.970140 0.237523
C98   C     C_3   0.557845 0.680389 0.076420 -0.875642
H56   H     H_    0.501593 0.654041 0.973573 0.238953
H57   H     H_    0.567356 0.649444 0.161037 0.234958
H58   H     H_    0.535794 0.735300 0.076900 0.229708
C99   C     C_3   0.057240 0.819877 0.074062 -0.878020
H59   H     H_    0.034578 0.764910 0.073435 0.229335
H60   H     H_    0.066772 0.850282 0.159065 0.234460
H61   H     H_    0.001429 0.846766 0.971538 0.237612
C100  C     C_3   0.057833 0.180347 0.076383 -0.875669
H62   H     H_    0.035780 0.235248 0.076908 0.229707
H63   H     H_    0.001590 0.154019 0.973511 0.238932
H64   H     H_    0.067331 0.149369 0.160955 0.234983
C101  C     C_3   0.416910 0.775123 0.235636 -0.848437
H65   H     H_    0.455784 0.765176 0.349850 0.219684
H66   H     H_    0.413073 0.722741 0.190464 0.239209
H67   H     H_    0.458187 0.813350 0.227627 0.243397
C102  C     C_3   0.416817 0.224906 0.234862 -0.849982
H68   H     H_    0.456153 0.234736 0.349213 0.218709
H69   H     H_    0.457636 0.186709 0.226207 0.245924
H70   H     H_    0.412941 0.277341 0.189466 0.236324
C103  C     C_3   0.916822 0.275063 0.235727 -0.848556
H71   H     H_    0.955613 0.265110 0.349912 0.219669
H72   H     H_    0.912959 0.222673 0.190555 0.239242
H73   H     H_    0.958186 0.313248 0.227828 0.243412
C104  C     C_3   0.916820 0.724906 0.234868 -0.850026
H74   H     H_    0.956154 0.734735 0.349219 0.218702
H75   H     H_    0.957641 0.686711 0.226215 0.245936
H76   H     H_    0.912945 0.777343 0.189475 0.236333
F3    F     F_    0.719085 0.018689 0.514479 -0.670006
F4    F     F_    0.219082 0.518704 0.514477 -0.669995

loop_
_geom_bond_atom_site_label_1
_geom_bond_atom_site_label_2
_geom_bond_distance
_ccdc_geom_bond_type
C30   C34   1.411822 A    
C104  H74   1.111370 S    
C39   C55   1.416165 A    
C95   H47   1.111031 S    
C11   C57   1.395748 A    
C15   C55   1.404209 A    
C96   H50   1.111031 S    
C4    C63   1.474623 S    
C14   C54   1.402824 A    
O3    C3    1.315489 A    
C44   C48   1.401094 A    
C17   H9    1.082987 S    
C94   H46   1.108788 S    
C71   C73   1.415400 A    
C81   C83   1.392624 A    
C94   H44   1.106643 S    
C25   C31   1.413040 A    
C97   H54   1.111012 S    
C26   C32   1.413062 A    
H4    C60   1.084149 S    
C10   C60   1.395792 A    
Cu2   N2    2.060823 S    
C104  H75   1.109181 S    
C93   H41   1.073227 S    
Cu1   O10   1.922686 S    
C29   C39   1.424267 A    
C91   H36   1.111420 S    
C21   H17   1.080476 S    
C87   F3    1.356831 S    
C82   C90   1.517043 S    
C77   C79   1.424760 A    
Cu3   N3    2.048677 S    
C17   C23   1.388869 A    
C23   H19   1.080459 S    
C102  H69   1.109187 S    
C18   C24   1.388982 A    
C78   C86   1.440055 A    
H2    C58   1.084151 S    
C85   C93   1.513921 S    
O2    Cu1   1.935472 S    
H1    C57   1.084263 S    
C71   H27   1.068133 S    
C53   C101  1.519709 S    
C100  H64   1.110866 S    
O13   C5    1.310178 A    
C94   H45   1.073234 S    
O6    Cu3   1.923041 S    
C86   C94   1.513924 S    
H3    C59   1.084248 S    
C3    C64   1.472985 S    
Cu3   O14   1.935154 S    
C38   C44   1.426205 A    
C2    C61   1.474604 S    
C33   C49   1.407761 A    
C69   C71   1.395227 A    
O10   C6    1.309714 A    
C42   C46   1.401094 A    
C103  H73   1.109164 S    
C10   C98   1.509767 S    
C41   C45   1.401506 A    
C36   C52   1.408351 A    
C14   C58   1.397068 A    
O15   C7    1.310181 A    
C28   C30   1.413062 A    
C92   H39   1.109753 S    
O11   C7    1.310575 A    
C69   C95   1.501981 S    
C10   C42   1.416928 A    
C46   C50   1.384890 A    
C98   H58   1.110606 S    
C77   C85   1.440055 A    
C20   C22   1.388989 A    
C13   C53   1.404216 A    
C103  H71   1.111352 S    
O8    Cu4   1.923041 S    
C96   H51   1.110832 S    
C83   F1    1.337141 S    
C95   H48   1.110833 S    
C9    C97   1.509781 S    
C72   H28   1.068146 S    
C7    C16   1.461521 S    
C90   H33   1.111945 S    
C33   C61   1.419965 A    
C32   C36   1.411822 A    
C90   H32   1.107830 S    
C97   H55   1.110160 S    
C9    C41   1.417592 A    
C73   C75   1.426325 A    
C104  H76   1.109978 S    
C9    C59   1.395764 A    
C65   C87   1.390040 A    
C101  H65   1.111358 S    
C40   C56   1.414938 A    
Cu2   O12   1.922686 S    
O1    C1    1.315483 A    
C19   C21   1.388871 A    
C91   H37   1.109743 S    
C75   C83   1.424283 A    
N1    C87   1.347720 A    
C35   C51   1.407747 A    
O12   C8    1.309673 A    
C23   C27   1.391272 A    
C25   H13   1.077503 S    
C37   C43   1.426590 A    
C89   H31   1.107824 S    
C84   F2    1.337140 S    
C102  H68   1.111372 S    
C39   C41   1.426528 A    
C27   H15   1.077527 S    
C93   H42   1.108790 S    
C65   C91   1.514434 S    
C99   H59   1.110788 S    
C101  H66   1.109864 S    
O5    C1    1.310996 A    
C38   C54   1.414934 A    
C99   H60   1.111544 S    
C88   F4    1.356829 S    
C97   H53   1.110493 S    
C18   H10   1.083130 S    
Cu1   Cu3   2.734519 S    
O8    C4    1.311313 A    
O5    Cu3   1.924388 S    
C12   C58   1.395783 A    
C51   H23   1.080444 S    
C22   C26   1.391340 A    
C75   N3    1.404492 A    
C92   H40   1.107911 S    
C79   C81   1.402924 A    
C76   N4    1.404497 A    
C54   C102  1.519882 S    
O3    Cu2   1.935341 S    
C67   N3    1.353366 A    
C66   C80   1.425583 A    
C81   C89   1.517041 S    
C56   C104  1.519880 S    
N1    C85   1.393938 A    
O7    Cu4   1.924388 S    
C22   H18   1.080646 S    
Cu4   O15   1.935019 S    
H7    C47   1.080124 S    
C27   C29   1.413030 A    
O14   C6    1.311584 A    
C96   H52   1.110356 S    
Cu2   Cu4   2.734519 S    
C99   H61   1.110519 S    
O4    C4    1.316083 A    
C28   H16   1.079113 S    
C1    C62   1.472977 S    
C55   C103  1.519690 S    
O2    C2    1.316095 A    
C90   H34   1.110103 S    
C17   C61   1.403174 A    
C74   C76   1.426325 A    
C78   C80   1.424757 A    
H6    C46   1.079947 S    
C65   C79   1.425589 A    
H5    C45   1.080116 S    
C24   H20   1.080643 S    
C80   C82   1.402923 A    
C20   H12   1.083131 S    
C12   C100  1.509747 S    
C11   C99   1.509875 S    
N2    C86   1.393936 A    
C19   C63   1.403186 A    
Cu2   O11   1.924030 S    
C34   C50   1.408346 A    
O16   C8    1.311586 A    
N2    C88   1.347723 A    
C16   C56   1.402827 A    
C82   C84   1.392628 A    
C5    C14   1.461508 S    
O6    C2    1.311290 A    
C68   C70   1.388441 A    
C48   C52   1.384897 A    
C29   C33   1.412738 A    
C18   C62   1.403400 A    
C73   C77   1.467413 A    
C93   H43   1.106633 S    
C95   H49   1.110356 S    
C13   C57   1.396446 A    
C52   H24   1.080302 S    
C8    C15   1.462555 S    
C31   C35   1.412736 A    
C19   H11   1.082988 S    
Cu1   O9    1.924030 S    
C50   H22   1.080303 S    
O9    C5    1.310570 A    
C102  H70   1.109978 S    
C89   H30   1.110098 S    
C101  H67   1.109165 S    
C15   C59   1.396395 A    
C100  H62   1.110579 S    
Cu1   N1    2.060823 S    
C66   C92   1.514432 S    
C16   C60   1.397076 A    
C89   H29   1.111942 S    
C31   C37   1.424302 A    
C43   C47   1.401491 A    
C30   C40   1.422460 A    
C24   C28   1.391342 A    
C21   C25   1.391272 A    
C34   C62   1.419234 A    
C49   H21   1.080439 S    
C70   C72   1.395229 A    
C70   C96   1.501980 S    
C67   H25   1.082138 S    
C68   H26   1.082138 S    
O4    Cu2   1.935472 S    
C72   C74   1.415394 A    
C100  H63   1.110109 S    
C66   C88   1.390038 A    
C32   C38   1.422456 A    
C98   H56   1.110139 S    
H8    C48   1.079943 S    
Cu3   O13   1.935019 S    
O1    Cu1   1.935341 S    
C45   C49   1.385374 A    
Cu4   O16   1.935154 S    
C20   C64   1.403410 A    
C35   C63   1.419951 A    
C103  H72   1.109861 S    
C40   C42   1.426210 A    
C68   N4    1.353370 A    
C37   C53   1.416188 A    
C26   H14   1.079118 S    
C98   H57   1.110900 S    
C36   C64   1.419240 A    
C67   C69   1.388433 A    
C92   H38   1.111429 S    
C91   H35   1.107905 S    
C47   C51   1.385362 A    
C76   C84   1.424288 A    
C74   C78   1.467404 A    
C6    C13   1.462618 S    
O7    C3    1.310994 A    
C11   C43   1.417619 A    
C12   C44   1.416929 A    
Cu4   N4    2.048677 S    
