data_mof_unit_68191.cif
_audit_creation_date              2012-12-11T16:32:23-0500
_audit_creation_method            fapswitch 2.2
_symmetry_space_group_name_H-M    P1
_symmetry_Int_Tables_number       1
_space_group_crystal_system       triclinic
_cell_length_a                    7.082144
_cell_length_b                    14.277325
_cell_length_c                    16.13496
_cell_angle_alpha                 90.552624
_cell_angle_beta                  89.91686
_cell_angle_gamma                 90.861226
_cell_volume                      1631.20992937

loop_
_atom_site_label
_atom_site_type_symbol
_atom_type_description
_atom_site_fract_x
_atom_site_fract_y
_atom_site_fract_z
_atom_type_partial_charge
O1    O     O_R   0.361630 0.167340 0.164570 -0.532767
O2    O     O_R   0.638370 0.832660 0.835430 -0.494770
O3    O     O_R   0.690860 0.157560 0.338690 -0.537644
O4    O     O_R   0.309140 0.842440 0.661310 -0.543207
O5    O     O_R   0.861260 0.336420 0.339380 -0.551788
O6    O     O_R   0.138740 0.663580 0.660620 -0.552755
C1    C     C_R   0.521308 0.136003 0.368394 0.727318
C2    C     C_R   0.478589 0.863477 0.631268 0.734960
O7    O     O_R   0.691330 0.156310 0.165190 -0.498399
O8    O     O_R   0.308670 0.843690 0.834810 -0.525415
O9    O     O_R   0.861730 0.335160 0.164640 -0.529497
O10   O     O_R   0.138270 0.664840 0.835360 -0.558257
C3    C     C_R   0.522456 0.137636 0.134499 0.752731
C4    C     C_R   0.477881 0.862075 0.865861 0.750731
O11   O     O_R   0.361150 0.168600 0.339320 -0.510064
O12   O     O_R   0.638850 0.831400 0.660680 -0.527227
O13   O     O_3   0.527950 0.310560 0.252000 -0.397684
O14   O     O_3   0.472050 0.689440 0.748000 -0.395516
V1    V     V_3+5 0.802770 0.240990 0.251980 1.537943
V2    V     V_3+5 0.197230 0.759010 0.748020 1.477616
O15   O     O_R   0.191450 0.346190 0.165260 -0.560183
O16   O     O_R   0.808550 0.653810 0.834740 -0.530828
C5    C     C_R   0.023857 0.357627 0.129761 0.801722
C6    C     C_R   0.977680 0.640393 0.869214 0.815326
O17   O     O_R   0.190980 0.347440 0.338770 -0.534622
O18   O     O_R   0.809020 0.652560 0.661230 -0.533459
C7    C     C_R   0.024009 0.367058 0.368751 0.768051
C8    C     C_R   0.976729 0.630399 0.633151 0.756356
V3    V     V_3+5 0.302780 0.262760 0.251980 1.485238
V4    V     V_3+5 0.697220 0.737240 0.748020 1.512237
O19   O     O_3   0.027730 0.193200 0.251960 -0.352288
O20   O     O_3   0.972270 0.806800 0.748040 -0.354118
C9    C     C_3   0.833596 0.459267 0.485802 0.114976
C10   C     C_3   0.170660 0.535442 0.518611 0.100992
C11   C     C_3   0.936245 0.455194 0.569572 0.138782
C12   C     C_3   0.068939 0.539463 0.434747 0.134313
C13   C     C_3   0.985296 0.560339 0.563268 -0.076036
C14   C     C_3   0.018340 0.434563 0.440748 -0.079116
C15   C     C_3   0.881620 0.565348 0.478842 -0.153819
C16   C     C_3   0.122862 0.429402 0.525047 -0.149957
H1    H     H_    0.782066 0.619066 0.458482 0.221890
H2    H     H_    0.223627 0.376274 0.545243 0.217768
H3    H     H_    0.233099 0.368397 0.746590 0.179406
H4    H     H_    0.866050 0.640245 0.260944 0.184880
C17   C     C_R   0.989111 0.691985 0.064005 0.391055
C18   C     C_R   0.062921 0.307005 0.937075 0.394612
C19   C     C_R   0.983305 0.700915 0.151538 0.116400
C20   C     C_R   0.128947 0.296978 0.853995 0.073402
C21   C     C_R   0.907167 0.628901 0.196955 -0.221172
C22   C     C_R   0.176488 0.375122 0.808867 -0.232761
C23   C     C_R   0.902469 0.539893 0.164442 -0.226990
C24   C     C_R   0.128811 0.462419 0.836650 -0.222595
C25   C     C_R   0.965271 0.520332 0.082778 0.042780
C26   C     C_R   0.053184 0.478971 0.916598 0.045341
C27   C     C_R   0.980595 0.597208 0.026218 -0.088621
C28   C     C_R   0.041859 0.401850 0.973120 -0.084690
C29   C     C_R   0.007041 0.425572 0.059382 -0.134052
C30   C     C_R   0.997837 0.572382 0.939259 -0.157821
H5    H     H_    0.858527 0.487146 0.207760 0.141163
H6    H     H_    0.152530 0.515782 0.791264 0.140935
C31   C     C_3   0.429903 0.963137 0.428358 -0.219874
C32   C     C_3   0.569853 0.035454 0.570659 -0.286460
C33   C     C_3   0.599957 0.925980 0.477434 0.497142
C34   C     C_3   0.399582 0.072480 0.521719 0.496958
H7    H     H_    0.372191 0.931667 0.370369 0.156816
H8    H     H_    0.628098 0.066667 0.628543 0.159600
C35   C     C_3   0.490807 0.934347 0.559961 -0.182684
C36   C     C_3   0.508890 0.064345 0.439165 -0.187338
C37   C     C_3   0.319260 0.972020 0.511576 -0.162276
C38   C     C_3   0.680702 0.026499 0.487427 -0.219604
H9    H     H_    0.168860 0.952046 0.520511 0.161794
H10   H     H_    0.831020 0.047202 0.478332 0.201120
H11   H     H_    0.521229 0.831934 0.255352 0.186287
H12   H     H_    0.602488 0.166563 0.749157 0.144002
C39   C     C_R   0.512749 0.196227 0.955043 0.283444
C40   C     C_R   0.473800 0.802822 0.046708 0.295580
C41   C     C_R   0.553834 0.217572 0.872028 -0.067033
C42   C     C_R   0.490566 0.781355 0.131166 -0.101667
C43   C     C_R   0.573450 0.147802 0.812761 -0.136736
C44   C     C_R   0.510755 0.850697 0.190747 -0.154914
C45   C     C_R   0.546504 0.054753 0.833785 -0.098216
C46   C     C_R   0.512429 0.943869 0.168492 -0.100812
C47   C     C_R   0.515502 0.027539 0.916980 0.008803
C48   C     C_R   0.503324 0.971401 0.084466 0.021522
C49   C     C_R   0.511403 0.098531 0.980482 0.174402
C50   C     C_R   0.488823 0.900509 0.020873 0.192696
C51   C     C_R   0.492637 0.930500 0.936092 -0.109854
C52   C     C_R   0.510796 0.068693 0.064952 -0.104906
H13   H     H_    0.567006 0.289556 0.851888 0.119009
H14   H     H_    0.484641 0.709512 0.152187 0.123704
H15   H     H_    0.555872 0.004272 0.783631 0.095394
H16   H     H_    0.524451 0.994056 0.218883 0.092841
C53   C     C_3   0.850533 0.407190 0.644745 -0.746182
H17   H     H_    0.855262 0.329971 0.636639 0.250192
H18   H     H_    0.929444 0.428717 0.700354 0.197153
H19   H     H_    0.702159 0.429110 0.653449 0.201751
C54   C     C_3   0.161521 0.584879 0.359980 -0.734266
H20   H     H_    0.126586 0.660203 0.358845 0.249337
H21   H     H_    0.316899 0.577645 0.361888 0.217673
H22   H     H_    0.114530 0.547667 0.303487 0.181512
C55   C     C_3   0.469227 0.281572 0.009834 -0.685271
H23   H     H_    0.331709 0.274694 0.039401 0.224095
H24   H     H_    0.567370 0.297046 0.060834 0.233838
H25   H     H_    0.464784 0.347127 0.973397 0.162273
C56   C     C_3   0.434595 0.717546 0.990994 -0.706414
H26   H     H_    0.542281 0.703809 0.943849 0.238352
H27   H     H_    0.422922 0.651651 0.026842 0.162467
H28   H     H_    0.300173 0.723047 0.958593 0.233602
C57   C     C_3   0.644422 0.409093 0.470981 -0.707706
H29   H     H_    0.547373 0.422558 0.523163 0.202519
H30   H     H_    0.580857 0.432531 0.412017 0.207107
H31   H     H_    0.665264 0.332292 0.468413 0.214273
C58   C     C_3   0.360312 0.584775 0.535118 -0.658859
H32   H     H_    0.462438 0.568248 0.485842 0.202346
H33   H     H_    0.342584 0.661855 0.534185 0.237325
H34   H     H_    0.417378 0.563379 0.595983 0.195292
S1    S     S_3+6 0.949832 0.801255 0.014516 -0.094390
O21   O     O_2   0.819051 0.783183 0.946505 -0.369772
O22   O     O_2   0.859016 0.869229 0.072948 -0.365501
O23   O     O_3   0.132099 0.858882 0.974948 -0.542314
H35   H     H_    0.080212 0.918841 0.955300 0.379204
S2    S     S_3+6 0.985384 0.199967 0.984416 -0.098250
O24   O     O_2   0.838322 0.223334 0.044308 -0.379060
O25   O     O_2   0.901528 0.132265 0.922762 -0.363655
O26   O     O_3   0.147413 0.140347 0.035337 -0.540072
H36   H     H_    0.079260 0.084994 0.057823 0.375778
C59   C     C_3   0.043209 0.787621 0.199737 -0.571127
H37   H     H_    0.135538 0.768194 0.252062 0.181074
H38   H     H_    0.126320 0.837601 0.161872 0.232443
H39   H     H_    0.916778 0.823055 0.224563 0.270664
C60   C     C_3   0.137003 0.204947 0.806890 -0.543446
H40   H     H_    0.231208 0.209940 0.752230 0.240801
H41   H     H_    0.192910 0.148131 0.845533 0.229786
H42   H     H_    0.994212 0.185732 0.783486 0.241475
S3    S     S_3+6 0.737850 0.831112 0.441399 -0.076045
O27   O     O_2   0.608132 0.756322 0.406818 -0.376795
O28   O     O_2   0.868577 0.865112 0.374496 -0.366844
O29   O     O_3   0.866030 0.787670 0.519082 -0.512371
H43   H     H_    0.923806 0.843021 0.547006 0.320161
S4    S     S_3+6 0.257836 0.165813 0.558242 -0.078621
O30   O     O_2   0.159383 0.210288 0.486730 -0.360832
O31   O     O_2   0.112265 0.127131 0.616980 -0.355666
O32   O     O_3   0.394374 0.245265 0.608420 -0.546102
H44   H     H_    0.518170 0.243656 0.579934 0.307523

loop_
_geom_bond_atom_site_label_1
_geom_bond_atom_site_label_2
_ccdc_geom_bond_type
H4    C21   S    
S3    O29   S    
C47   C51   A    
C53   H17   S    
C10   C13   S    
O13   V3    S    
S4    O32   S    
O4    C2    A    
C60   H42   S    
V1    O19   S    
C54   H20   S    
S3    O27   D    
C19   C21   A    
C42   H14   S    
C10   C58   S    
C56   H27   S    
C41   H13   S    
C9    C15   S    
C32   C35   S    
C10   C16   S    
C34   C36   S    
C11   C13   S    
C40   C42   A    
C4    C51   S    
O3    C1    A    
S1    O22   D    
C26   C30   A    
C9    C11   S    
C42   C44   A    
C7    C14   S    
C17   S1    S    
O32   H44   S    
C46   H16   S    
C28   C29   A    
C32   C38   S    
C31   C33   S    
O7    V1    S    
C2    O12   A    
C17   C19   A    
C37   H9    S    
O7    C3    A    
C32   C34   S    
C24   H6    S    
C54   H21   S    
C1    C36   S    
O5    C7    A    
C39   C49   A    
O6    C8    A    
O8    V2    S    
C21   C23   A    
C22   C24   A    
C20   C60   S    
O3    V1    S    
C12   C54   S    
O14   V4    S    
V4    O20   S    
C10   C12   S    
C58   H34   S    
C25   C27   A    
C55   H24   S    
V2    O20   S    
C45   C47   A    
C24   C26   A    
O11   V3    S    
C23   H5    S    
C18   C20   A    
C11   C53   S    
O17   V3    S    
C13   C15   S    
C56   H28   S    
C33   C35   S    
C32   H8    S    
C55   H23   S    
S4    O30   D    
C15   H1    S    
O8    C4    A    
S1    O23   S    
C43   C45   A    
C25   C29   A    
C50   C51   A    
C1    O11   A    
O15   V3    S    
C23   C25   A    
O4    V2    S    
C59   H38   S    
C33   C38   S    
O9    V1    S    
O10   V2    S    
O1    V3    S    
C41   C43   A    
H3    C22   S    
C34   C37   S    
C20   C22   A    
C39   C41   A    
C5    C29   S    
C44   C46   A    
C47   C49   A    
O18   V4    S    
C53   H19   S    
C46   C48   A    
H12   C43   S    
O15   C5    A    
O26   H36   S    
O16   C6    A    
C57   H31   S    
O1    C3    A    
S2    O25   D    
C60   H40   S    
C40   C50   A    
C54   H22   S    
O23   H35   S    
S4    O31   D    
C58   H32   S    
C34   S4    S    
C49   C52   A    
C31   C37   S    
S3    O28   D    
O16   V4    S    
C12   C15   S    
C48   C52   A    
C48   C50   A    
C16   H2    S    
C60   H41   S    
C26   C28   A    
C19   C59   S    
O5    V1    S    
O17   C7    A    
O6    V2    S    
C56   H26   S    
O10   C6    A    
O18   C8    A    
C9    C14   S    
O2    V4    S    
S2    O26   S    
C57   H30   S    
C11   C16   S    
C59   H39   S    
V3    O19   S    
S1    O21   D    
C12   C14   S    
C14   C16   S    
C31   C36   S    
C53   H18   S    
C8    C13   S    
C3    C52   S    
O9    C5    A    
O13   V1    S    
H11   C44   S    
O14   V2    S    
O2    C4    A    
O29   H43   S    
C45   H15   S    
C31   H7    S    
C9    C57   S    
C17   C27   A    
C2    C35   S    
C6    C30   S    
C27   C30   A    
C18   C28   A    
C39   C55   S    
C36   C38   S    
C18   S2    S    
C38   H10   S    
C55   H25   S    
C35   C37   S    
S2    O24   D    
C57   H29   S    
O12   V4    S    
C40   C56   S    
C59   H37   S    
C33   S3    S    
C58   H33   S    
