data_mof_unit_64378.cif
_audit_creation_date              2012-12-10T16:55:30-0500
_audit_creation_method            fapswitch 2.2
_symmetry_space_group_name_H-M    P1
_symmetry_Int_Tables_number       1
_space_group_crystal_system       triclinic
_cell_length_a                    21.847749
_cell_length_b                    21.838041
_cell_length_c                    22.630652
_cell_angle_alpha                 120.834306
_cell_angle_beta                  120.029468
_cell_angle_gamma                 88.925767
_cell_volume                      7605.09642082

loop_
_atom_site_label
_atom_site_type_symbol
_atom_type_description
_atom_site_fract_x
_atom_site_fract_y
_atom_site_fract_z
_atom_type_partial_charge
C1    C     C_R   0.998225 0.379095 0.495129 0.840091
C2    C     C_1   0.838239 0.341209 0.174470 -0.050603
C3    C     C_1   0.126271 0.624022 0.750860 -0.151117
C4    C     C_1   0.873951 0.376807 0.249241 -0.193036
C5    C     C_2   0.051868 0.252873 0.567604 0.482173
C6    C     C_2   0.982823 0.744414 0.427651 0.508888
C7    C     C_2   0.994756 0.187762 0.507112 -0.378500
C8    C     C_2   0.015537 0.814841 0.498045 -0.375737
C9    C     C_2   0.045334 0.318814 0.564620 -0.164084
C10   C     C_2   0.995674 0.682178 0.436036 -0.218063
C11   C     C_2   0.999153 0.311255 0.491464 0.259404
C12   C     C_R   0.998307 0.618130 0.498486 0.842280
C13   C     C_2   0.991425 0.681826 0.493462 0.209800
C14   C     C_R   0.618309 0.999317 0.499152 0.825603
C15   C     C_R   0.380933 0.000319 0.499022 0.827639
C16   C     C_R   0.081380 0.581175 0.662156 0.906915
C17   C     C_R   0.918608 0.419207 0.337871 0.889999
C18   C     C_R   0.418782 0.918075 0.337875 0.905791
C19   C     C_R   0.581672 0.081959 0.662145 0.909373
C20   C     C_R   0.880807 0.994932 0.499252 0.922037
C21   C     C_R   0.119532 0.997690 0.500741 0.938034
C22   C     C_R   0.000336 0.119881 0.501739 0.983693
C23   C     C_3   0.240803 0.828018 0.051043 -0.509270
C24   C     C_R   0.003310 0.880402 0.498931 0.936330
C25   C     C_2   0.746656 0.937070 0.429721 0.016424
C26   C     C_2   0.255664 0.023343 0.571874 0.020653
C27   C     C_2   0.816364 0.980145 0.498986 -0.324941
C28   C     C_2   0.185314 0.985815 0.502065 -0.322445
C29   C     C_2   0.685605 0.934877 0.439932 -0.133447
C30   C     C_2   0.317362 0.008998 0.563316 -0.140363
C31   C     C_2   0.683246 0.999269 0.496514 0.270667
C32   C     C_2   0.316027 0.004964 0.501064 0.280517
C33   C     C_3   0.293851 0.735910 0.953751 -0.284371
C34   C     C_3   0.724149 0.163222 0.948193 -0.448421
C35   C     C_3   0.723159 0.319716 0.049276 -0.231437
C36   C     C_3   0.201677 0.654908 0.947866 0.362824
C37   C     C_3   0.843646 0.307914 0.051970 0.362777
C38   C     C_3   0.243833 0.709188 0.046588 -0.291137
C39   C     C_3   0.790856 0.261216 0.952899 -0.238826
C40   C     C_1   0.375099 0.871739 0.249195 -0.175299
C41   C     C_1   0.627493 0.128498 0.750878 -0.175513
C42   C     C_3   0.209517 0.704496 0.917643 0.074882
C43   C     C_3   0.795548 0.296588 0.082778 0.046888
C44   C     C_3   0.343272 0.771782 0.049472 -0.222417
C45   C     C_3   0.184424 0.776514 0.953083 0.415015
C46   C     C_3   0.674802 0.271096 0.951605 -0.217113
C47   C     C_3   0.292634 0.786701 0.082547 0.121891
C48   C     C_3   0.713026 0.214534 0.917691 0.092750
C49   C     C_1   0.403274 0.840702 0.094181 0.202229
C50   C     C_1   0.598040 0.232407 0.916717 0.232434
C51   C     C_3   0.122866 0.285902 0.702236 0.097969
C52   C     C_3   0.182920 0.265692 0.756215 -0.270024
C53   C     C_3   0.190112 0.297682 0.838058 -0.980893
C54   C     C_3   0.864282 0.696141 0.311492 0.119339
C55   C     C_3   0.815206 0.694860 0.233289 -0.317249
C56   C     C_3   0.767653 0.210311 0.045592 0.472478
C57   C     C_3   0.732493 0.663017 0.193044 -0.917289
C58   C     C_1   0.094036 0.392814 0.642413 0.131609
C59   C     C_1   0.007693 0.621134 0.378095 0.201063
C60   C     C_3   0.899403 0.233915 0.348676 0.093786
C61   C     C_3   0.836416 0.227755 0.359937 -0.389198
C62   C     C_3   0.761833 0.215126 0.286806 -0.938637
C63   C     C_3   0.999501 0.762126 0.617626 0.094316
C64   C     C_3   0.943910 0.748038 0.635015 -0.292974
C65   C     C_3   0.982659 0.779644 0.727172 -0.974684
C66   C     C_1   0.728653 0.893895 0.345346 0.234167
C67   C     C_1   0.338205 0.833056 0.174311 -0.021395
C68   C     C_1   0.273981 0.080264 0.654912 0.255621
C69   C     C_1   0.626653 0.863469 0.384033 0.146515
C70   C     C_1   0.380557 0.004425 0.626196 0.150522
C71   C     C_1   0.322476 0.680636 0.910177 0.187674
C72   C     C_1   0.737838 0.400861 0.085311 0.156159
C73   C     C_3   0.763866 0.114492 0.624606 0.082536
C74   C     C_3   0.751745 0.190968 0.650108 -0.300599
C75   C     C_3   0.781863 0.241193 0.742934 -0.956652
C76   C     C_3   0.230095 0.969786 0.365619 0.070250
C77   C     C_3   0.244089 0.006830 0.329685 -0.304442
C78   C     C_1   0.666199 0.167653 0.825799 -0.043861
C79   C     C_3   0.208610 0.950366 0.235950 -0.966605
C80   C     C_3   0.107426 0.565204 0.916253 0.131280
C81   C     C_3   0.069543 0.486620 0.833599 -0.344891
C82   C     C_3   0.047604 0.427080 0.842067 -0.983558
C83   C     C_3   0.970931 0.328508 0.157278 0.109900
C84   C     C_3   0.034755 0.348987 0.153454 -0.336135
C85   C     C_3   0.106915 0.400000 0.241002 -0.929651
C86   C     C_1   0.237499 0.595485 0.926178 0.109176
C87   C     C_1   0.870145 0.387941 0.084016 0.104079
C88   C     C_1   0.192897 0.720619 0.073894 0.217581
C89   C     C_1   0.163714 0.659892 0.825694 0.067312
C90   C     C_1   0.825822 0.213454 0.912340 0.283655
C91   C     C_3   0.159696 0.877311 0.938910 0.062457
C92   C     C_3   0.181750 0.923386 0.915716 -0.320154
C93   C     C_3   0.154037 0.991404 0.936122 -0.961767
C94   C     C_3   0.715064 0.148277 0.082169 0.081850
C95   C     C_3   0.680403 0.066902 0.003664 -0.388483
C96   C     C_3   0.673697 0.011263 0.023455 -0.916215
C97   C     C_1   0.107210 0.753625 0.928918 0.200222
C98   C     C_1   0.832499 0.184280 0.078870 0.143648
H1    H     H_    0.371456 0.732368 0.061220 0.155041
H2    H     H_    0.175244 0.941914 0.442250 0.155648
H3    H     H_    0.281678 0.683612 0.075627 0.119692
H4    H     H_    0.780019 0.299775 0.932923 0.110540
H5    H     H_    0.276852 0.879698 0.071658 0.203376
H6    H     H_    0.668518 0.126127 0.917757 0.199600
H7    H     H_    0.068704 0.263215 0.688837 0.129997
H8    H     H_    0.138425 0.348137 0.739140 0.154687
H9    H     H_    0.168640 0.203491 0.721020 0.244434
H10   H     H_    0.237444 0.288652 0.770913 0.237108
H11   H     H_    0.205946 0.360056 0.875162 0.274336
H12   H     H_    0.669149 0.307778 0.929758 0.144712
H13   H     H_    0.233994 0.281998 0.875753 0.274510
H14   H     H_    0.136486 0.274577 0.824874 0.262214
H15   H     H_    0.847554 0.728372 0.355254 0.145926
H16   H     H_    0.854852 0.637234 0.292772 0.151568
H17   H     H_    0.827078 0.753098 0.250694 0.237087
H18   H     H_    0.828418 0.659859 0.187074 0.234301
H19   H     H_    0.719041 0.604711 0.174851 0.277128
H20   H     H_    0.698495 0.662033 0.135960 0.272768
H21   H     H_    0.717678 0.698705 0.237423 0.267850
H22   H     H_    0.884184 0.180873 0.289122 0.175332
H23   H     H_    0.298621 0.779969 0.943721 0.210601
H24   H     H_    0.904081 0.279348 0.340588 0.121982
H25   H     H_    0.830683 0.179637 0.363613 0.224869
H26   H     H_    0.849320 0.279857 0.418824 0.229029
H27   H     H_    0.766406 0.259317 0.277032 0.271628
H28   H     H_    0.719065 0.217183 0.300138 0.272262
H29   H     H_    0.743581 0.158748 0.229021 0.252906
H30   H     H_    0.024657 0.823895 0.654170 0.151430
H31   H     H_    0.046368 0.740681 0.641360 0.104370
H32   H     H_    0.900822 0.775066 0.617639 0.222205
H33   H     H_    0.915445 0.686703 0.596349 0.245640
H34   H     H_    0.690716 0.310094 0.070786 0.212877
H35   H     H_    0.025568 0.752823 0.745675 0.280456
H36   H     H_    0.941055 0.768026 0.737643 0.272400
H37   H     H_    0.009382 0.841464 0.766870 0.262582
H38   H     H_    0.824901 0.123830 0.659351 0.152951
H39   H     H_    0.742008 0.089344 0.645331 0.105974
H40   H     H_    0.780501 0.219386 0.637527 0.221098
H41   H     H_    0.691270 0.183017 0.612393 0.245138
H42   H     H_    0.751594 0.215091 0.756048 0.266929
H43   H     H_    0.773664 0.296692 0.759818 0.266502
H44   H     H_    0.842422 0.250153 0.782349 0.268962
H45   H     H_    0.210897 0.847980 0.081929 0.162788
H46   H     H_    0.168859 0.948025 0.332773 0.168908
H47   H     H_    0.249885 0.919655 0.351042 0.103180
H48   H     H_    0.220316 0.053878 0.339944 0.236231
H49   H     H_    0.304952 0.030163 0.362251 0.243866
H50   H     H_    0.231782 0.902932 0.224421 0.269913
H51   H     H_    0.220694 0.978455 0.211931 0.262801
H52   H     H_    0.147163 0.927964 0.201222 0.274443
H53   H     H_    0.067853 0.578801 0.934689 0.174039
H54   H     H_    0.157012 0.565345 0.966917 0.119411
H55   H     H_    0.018856 0.486290 0.783945 0.237916
H56   H     H_    0.753076 0.124552 0.925216 0.159051
H57   H     H_    0.108206 0.471855 0.814184 0.234470
H58   H     H_    0.097826 0.425527 0.890292 0.270746
H59   H     H_    0.020702 0.370892 0.781157 0.260910
H60   H     H_    0.007573 0.439388 0.859915 0.274167
H61   H     H_    0.986146 0.297799 0.186727 0.174258
H62   H     H_    0.965002 0.380905 0.199207 0.148434
H63   H     H_    0.043872 0.296718 0.115636 0.235422
H64   H     H_    0.019663 0.378367 0.122442 0.231903
H65   H     H_    0.099454 0.453357 0.279291 0.278437
H66   H     H_    0.152138 0.413583 0.236045 0.266588
H67   H     H_    0.940455 0.183906 0.461972 0.146250
H68   H     H_    0.123676 0.371326 0.272811 0.264609
H69   H     H_    0.182467 0.914617 0.006683 0.137461
H70   H     H_    0.097886 0.857156 0.902408 0.160497
H71   H     H_    0.243536 0.943163 0.950995 0.231887
H72   H     H_    0.157705 0.887266 0.847512 0.223612
H73   H     H_    0.092284 0.973040 0.901097 0.263672
H74   H     H_    0.170416 0.023127 0.917785 0.269109
H75   H     H_    0.179124 0.029380 0.004465 0.269447
H76   H     H_    0.679135 0.157313 0.105393 0.181302
H77   H     H_    0.770834 0.157876 0.134164 0.136666
H78   H     H_    0.053723 0.825044 0.558822 0.131721
H79   H     H_    0.623891 0.059272 0.954376 0.237441
H80   H     H_    0.715396 0.054029 0.979052 0.219530
H81   H     H_    0.729661 0.017350 0.072154 0.265128
H82   H     H_    0.648798 0.952894 0.965852 0.271223
H83   H     H_    0.637270 0.021100 0.046184 0.264620
H84   H     H_    0.827398 0.005159 0.560391 0.158035
N1    N     N_1   0.450166 0.894575 0.129153 -0.193577
N2    N     N_1   0.748947 0.464373 0.113587 -0.197330
N3    N     N_1   0.265009 0.549111 0.909679 -0.191707
N4    N     N_1   0.891154 0.449820 0.108777 -0.183594
N5    N     N_1   0.153389 0.729819 0.095499 -0.219457
N6    N     N_1   0.853033 0.176214 0.880667 -0.219335
N7    N     N_1   0.047213 0.736176 0.910181 -0.189295
N8    N     N_1   0.882261 0.163565 0.104326 -0.213030
N9    N     N_1   0.538071 0.202097 0.889403 -0.183329
N10   N     N_1   0.133089 0.451850 0.703778 -0.197774
N11   N     N_1   0.017112 0.572367 0.331740 -0.187400
N12   N     N_1   0.714083 0.859323 0.277961 -0.203413
N13   N     N_1   0.288859 0.125719 0.721222 -0.207282
N14   N     N_1   0.579704 0.806603 0.339413 -0.182355
N15   N     N_1   0.430887 0.000919 0.676336 -0.177005
N16   N     N_1   0.344975 0.637639 0.876031 -0.160591
O1    O     O_R   0.051090 0.409550 0.500010 -0.600833
O2    O     O_R   0.051070 0.590460 0.499970 -0.635263
O3    O     O_R   0.112510 0.561440 0.622850 -0.604672
O4    O     O_R   0.887490 0.438560 0.377150 -0.613529
O5    O     O_R   0.010350 0.561430 0.622870 -0.614374
O6    O     O_R   0.989650 0.438570 0.377130 -0.620646
O7    O     O_R   0.590290 0.948920 0.499990 -0.634730
O8    O     O_R   0.409710 0.051080 0.500010 -0.606245
O9    O     O_R   0.590320 0.051050 0.499970 -0.604427
O10   O     O_R   0.409680 0.948950 0.500030 -0.635635
O11   O     O_R   0.438380 0.887500 0.377150 -0.609039
O12   O     O_R   0.948910 0.590450 0.499990 -0.609235
O13   O     O_R   0.561620 0.112500 0.622850 -0.620486
O14   O     O_R   0.438400 0.989630 0.377130 -0.621425
O15   O     O_R   0.561600 0.010370 0.622870 -0.605338
O16   O     O_R   0.944190 0.034670 0.569380 -0.632050
O17   O     O_R   0.055810 0.965330 0.430620 -0.618574
O18   O     O_3   0.119564 0.256488 0.628094 -0.611336
O19   O     O_3   0.939791 0.730378 0.348990 -0.622357
O20   O     O_3   0.968352 0.241553 0.414236 -0.650066
O21   O     O_3   0.960898 0.731689 0.531256 -0.653906
O22   O     O_3   0.733032 0.068554 0.537404 -0.635591
O23   O     O_R   0.874830 0.965310 0.430660 -0.617287
O24   O     O_3   0.261658 0.024020 0.452219 -0.627679
O25   O     O_3   0.123786 0.619561 0.904788 -0.643688
O26   O     O_3   0.905458 0.279675 0.074317 -0.646635
O27   O     O_3   0.187047 0.815106 0.918441 -0.666279
O28   O     O_3   0.716363 0.202418 0.065321 -0.662086
O29   O     O_R   0.125170 0.034690 0.569340 -0.623519
O30   O     O_R   0.034670 0.125130 0.569340 -0.616158
O31   O     O_R   0.965330 0.874870 0.430660 -0.580333
O32   O     O_R   0.965310 0.055770 0.430620 -0.613807
O33   O     O_R   0.034690 0.944230 0.569380 -0.637958
O34   O     O_R   0.948930 0.409540 0.500030 -0.647380
Zn1   Zn    Zn3+2 0.068220 0.500010 0.499990 0.989298
Zn2   Zn    Zn3+2 0.931780 0.499990 0.500010 0.961266
Zn3   Zn    Zn3+2 0.499800 0.931810 0.500010 0.983933
Zn4   Zn    Zn3+2 0.500200 0.068190 0.499990 0.968813
Zn5   Zn    Zn3+2 0.046310 0.046310 0.592620 0.950661
Zn6   Zn    Zn3+2 0.953690 0.953690 0.407380 0.992663

loop_
_geom_bond_atom_site_label_1
_geom_bond_atom_site_label_2
_ccdc_geom_bond_type
C51   O18   S    
C44   C49   S    
C80   H53   S    
C93   H74   S    
C34   C56   S    
C23   C45   S    
C73   H39   S    
C73   C74   S    
C36   C42   S    
C95   C96   S    
C1    C11   S    
C56   C98   S    
C14   C31   S    
C98   N8    T    
C24   O33   A    
C81   C82   S    
C15   C32   S    
C59   N11   T    
C74   H40   S    
C55   H17   S    
C2    C43   S    
C54   O19   S    
C61   H26   S    
C19   O13   A    
C85   H68   S    
C91   H69   S    
C77   H48   S    
C38   H3    S    
C75   H42   S    
O1    Zn1   S    
C62   H29   S    
C82   H60   S    
C44   H1    S    
C22   O30   A    
C55   H18   S    
C63   O21   S    
O29   Zn5   S    
C54   H15   S    
C81   H55   S    
O13   Zn4   S    
O8    Zn4   S    
C9    C58   S    
C48   C78   S    
C71   N16   T    
C18   C40   S    
C75   H43   S    
O14   Zn4   S    
C49   N1    T    
C95   H79   S    
C88   N5    T    
C23   H5    S    
C83   H62   S    
C52   H9    S    
C92   H72   S    
C40   C67   T    
C20   O23   A    
C73   H38   S    
C16   O5    A    
C35   C43   S    
C96   H83   S    
C39   C90   S    
C15   O10   A    
C44   C47   S    
C94   H77   S    
C57   H21   S    
C82   H58   S    
C53   H13   S    
C97   N7    T    
C7    H67   S    
C14   O9    A    
C91   O27   S    
C33   H23   S    
C23   H45   S    
C1    O1    A    
C47   C67   S    
C66   N12   T    
O9    Zn4   S    
C87   N4    T    
C29   C69   S    
C77   C79   S    
C25   C29   S    
C21   O29   A    
C46   C48   S    
C23   C47   S    
C74   C75   S    
C51   C52   S    
C91   H70   S    
O7    Zn3   S    
O16   Zn5   S    
C84   C85   S    
C72   N2    T    
O5    Zn2   S    
C24   O31   A    
C41   C78   T    
C5    C7    D    
C82   H59   S    
C33   C71   S    
C6    C8    D    
C76   O24   S    
C5    O18   S    
C69   N14   T    
C13   O21   S    
C73   O22   S    
C38   C88   S    
C60   C61   S    
C19   O15   A    
C42   C45   S    
C20   O16   A    
C17   O4    A    
C37   C43   S    
C17   O6    A    
C2    C4    T    
C3    C16   S    
O11   Zn3   S    
C63   H30   S    
C5    C9    S    
O6    Zn1   S    
C50   N9    T    
C75   H44   S    
C60   O20   S    
O4    Zn2   S    
C6    O19   S    
C95   H80   S    
O3    Zn1   S    
C83   C84   S    
C22   O32   A    
C64   H33   S    
C92   H71   S    
C51   H7    S    
C18   O11   A    
O34   Zn2   S    
C3    C89   T    
C12   O2    A    
O2    Zn1   S    
O17   Zn6   S    
C45   O27   S    
C76   C77   S    
C60   H24   S    
C36   O25   S    
C9    C11   D    
C11   O20   S    
C38   C47   S    
C65   H37   S    
C94   H76   S    
C79   H52   S    
C4    C17   S    
C76   H46   S    
C53   H14   S    
C21   C28   S    
C64   H32   S    
C35   C72   S    
C26   C30   S    
C34   H56   S    
C55   C57   S    
C58   N10   T    
C25   C27   D    
C85   H65   S    
O12   Zn2   S    
O32   Zn6   S    
C34   C48   S    
C83   O26   S    
C57   H19   S    
C16   O3    A    
C91   C92   S    
C84   H64   S    
C52   C53   S    
C39   H4    S    
C62   H28   S    
C31   O22   S    
C53   H11   S    
C80   H54   S    
C77   H49   S    
C54   C55   S    
C93   H73   S    
C18   O14   A    
O33   Zn5   S    
C33   C44   S    
C26   C28   D    
C37   C87   S    
C25   C66   S    
C65   H36   S    
C37   O26   S    
C80   C81   S    
C10   C13   D    
C21   O17   A    
C76   H47   S    
C62   H27   S    
C32   O24   S    
C8    H78   S    
C79   H50   S    
C36   C38   S    
C20   C27   S    
C56   O28   S    
C70   N15   T    
C7    C22   S    
C74   H41   S    
C46   C50   S    
O10   Zn3   S    
C81   H57   S    
C79   H51   S    
O23   Zn6   S    
C61   H25   S    
C42   C89   S    
C36   C86   S    
C64   C65   S    
C96   H82   S    
C46   H12   S    
C10   C59   S    
C27   H84   S    
C26   C68   S    
O30   Zn5   S    
C37   C39   S    
C45   C97   S    
C80   O25   S    
C30   C32   D    
C1    O34   A    
C28   H2    S    
C90   N6    T    
C51   H8    S    
C54   H16   S    
C93   H75   S    
C92   C93   S    
C8    C24   S    
C60   H22   S    
C68   N13   T    
C63   H31   S    
C96   H81   S    
C61   C62   S    
C34   H6    S    
C15   O8    A    
C6    C10   S    
C94   O28   S    
C12   O12   A    
C63   C64   S    
C43   C56   S    
C30   C70   S    
C83   H61   S    
C12   C13   S    
C52   H10   S    
C86   N3    T    
C29   C31   D    
C14   O7    A    
C85   H66   S    
C39   C48   S    
O31   Zn6   S    
O15   Zn3   S    
C35   C46   S    
C35   H34   S    
C94   C95   S    
C65   H35   S    
C84   H63   S    
C19   C41   S    
C33   C42   S    
C57   H20   S    
