data_mof_unit_27019.cif
_audit_creation_date              2012-12-10T17:43:57-0500
_audit_creation_method            fapswitch 2.2
_symmetry_space_group_name_H-M    P1
_symmetry_Int_Tables_number       1
_space_group_crystal_system       triclinic
_cell_length_a                    15.839074
_cell_length_b                    15.042469
_cell_length_c                    13.763578
_cell_angle_alpha                 90.629523
_cell_angle_beta                  90.827315
_cell_angle_gamma                 89.737435
_cell_volume                      3278.72143409

loop_
_atom_site_label
_atom_site_type_symbol
_atom_type_description
_atom_site_fract_x
_atom_site_fract_y
_atom_site_fract_z
_atom_type_partial_charge
C1    C     C_R   0.499244 0.329114 0.499307 0.947395
C2    C     C_R   0.500758 0.670886 0.500693 0.947389
C3    C     C_R   0.499042 0.767226 0.503128 -0.245283
C4    C     C_R   0.500961 0.232775 0.496873 -0.245289
C5    C     C_R   0.569102 0.813046 0.539874 0.356016
C6    C     C_R   0.430901 0.186955 0.460126 0.356004
C7    C     C_R   0.569824 0.906185 0.536896 -0.007781
C8    C     C_R   0.430179 0.093816 0.463103 -0.007777
C9    C     C_R   0.498683 0.953082 0.500898 -0.038675
C10   C     C_R   0.501320 0.046918 0.499102 -0.038676
C11   C     C_R   0.425755 0.906106 0.465666 -0.027310
C12   C     C_R   0.574248 0.093895 0.534333 -0.027307
C13   C     C_R   0.641334 0.952229 0.569756 -0.187721
C14   C     C_R   0.358671 0.047772 0.430238 -0.187709
C15   C     C_R   0.643754 0.045126 0.574915 0.082053
C16   C     C_R   0.356250 0.954875 0.425082 0.082053
C17   C     C_R   0.541209 0.433391 0.793503 0.683211
C18   C     C_R   0.458791 0.566609 0.206497 0.683209
C19   C     C_R   0.464628 0.569120 0.793727 -0.059527
C20   C     C_R   0.535371 0.430880 0.206273 -0.059517
C21   C     C_R   0.467352 0.572738 0.896573 -0.107165
C22   C     C_R   0.532648 0.427262 0.103427 -0.107169
C23   C     C_R   0.339776 0.500040 0.499375 0.855721
C24   C     C_R   0.660224 0.499960 0.500625 0.855721
C25   C     C_R   0.500220 0.499741 0.948401 -0.100539
C26   C     C_R   0.499781 0.500259 0.051598 -0.100540
C27   C     C_R   0.535254 0.427218 0.896755 -0.211477
C28   C     C_R   0.464746 0.572782 0.103244 -0.211476
C29   C     C_R   0.440232 0.649027 0.947925 0.388515
C30   C     C_R   0.559767 0.350973 0.052075 0.388518
C31   C     C_R   0.435883 0.648558 0.051259 0.397653
C32   C     C_R   0.564117 0.351442 0.948741 0.397656
C33   C     C_3   0.973064 0.421245 0.532359 -0.165244
C34   C     C_3   0.026935 0.578755 0.467641 -0.165244
C35   C     C_3   0.027100 0.434565 0.440817 -0.155330
C36   C     C_3   0.972900 0.565435 0.559183 -0.155329
C37   C     C_1   0.250001 0.500137 0.498143 -0.173881
C38   C     C_1   0.749998 0.499863 0.501857 -0.173874
C39   C     C_3   0.030169 0.486773 0.590413 -0.155815
C40   C     C_3   0.969831 0.513227 0.409587 -0.155815
C41   C     C_3   0.082647 0.500095 0.498872 0.194581
C42   C     C_3   0.917353 0.499905 0.501128 0.194580
C43   C     C_1   0.174368 0.500175 0.498032 -0.087288
C44   C     C_1   0.825632 0.499825 0.501968 -0.087289
C45   C     C_R   0.425752 0.811935 0.472558 0.385694
C46   C     C_R   0.574251 0.188066 0.527442 0.385694
Cu1   Cu    Cu3+1 0.500010 0.499990 0.597420 0.986478
Cu2   Cu    Cu3+1 0.499990 0.500010 0.402580 0.986478
H1    H     H_    0.050762 0.380899 0.392205 0.129879
H2    H     H_    0.949238 0.619101 0.607794 0.129878
H3    H     H_    0.949479 0.356651 0.558949 0.125343
H4    H     H_    0.050521 0.643349 0.441051 0.125342
H5    H     H_    0.943643 0.524072 0.335389 0.129794
H6    H     H_    0.056357 0.475928 0.664610 0.129795
H7    H     H_    0.695794 0.914301 0.592549 0.182465
H8    H     H_    0.304213 0.085700 0.407441 0.182456
H9    H     H_    0.436034 0.622812 0.753079 0.187062
H10   H     H_    0.563965 0.377187 0.246920 0.187059
N1    N     N_R   0.499960 0.499930 0.743810 -0.248886
N2    N     N_R   0.500040 0.500070 0.256190 -0.248886
O1    O     O_R   0.500020 0.370250 0.582280 -0.514871
O2    O     O_R   0.499980 0.629750 0.417720 -0.514868
O3    O     O_R   0.500010 0.370270 0.417740 -0.626092
O4    O     O_R   0.499990 0.629730 0.582260 -0.626101
O5    O     O_R   0.379080 0.499980 0.582260 -0.591606
O6    O     O_R   0.620920 0.500020 0.417740 -0.591610
O7    O     O_R   0.379070 0.500000 0.417710 -0.566608
O8    O     O_R   0.620930 0.500000 0.582290 -0.566605
O9    O     O_3   0.419303 0.724826 0.896697 -0.597878
C47   C     C_3   0.490797 0.780408 0.894904 -0.354304
H11   H     H_    0.547945 0.744389 0.869088 0.142242
H12   H     H_    0.503705 0.810354 0.967775 0.202728
H13   H     H_    0.477868 0.835434 0.843710 0.185973
O10   O     O_3   0.580694 0.275173 0.103302 -0.597879
C48   C     C_3   0.509199 0.219591 0.105092 -0.354310
H14   H     H_    0.496304 0.189633 0.032224 0.202736
H15   H     H_    0.452045 0.255613 0.130887 0.142243
H16   H     H_    0.522120 0.164574 0.156299 0.185967
O11   O     O_3   0.415246 0.725276 0.103328 -0.547534
C49   C     C_3   0.336483 0.761130 0.073356 -0.222756
H17   H     H_    0.303511 0.786047 0.138750 0.160427
H18   H     H_    0.293834 0.712158 0.036427 0.127834
H19   H     H_    0.346457 0.818987 0.025627 0.197045
O12   O     O_3   0.584754 0.274724 0.896672 -0.547533
C50   C     C_3   0.663516 0.238870 0.926645 -0.222762
H20   H     H_    0.706166 0.287842 0.963573 0.127832
H21   H     H_    0.696489 0.213953 0.861251 0.160429
H22   H     H_    0.653542 0.181013 0.974374 0.197044
O13   O     O_3   0.354729 0.761969 0.450258 -0.578622
C51   C     C_3   0.310725 0.745844 0.536891 -0.385730
H23   H     H_    0.295843 0.808660 0.576827 0.162954
H24   H     H_    0.346429 0.700163 0.585349 0.178422
H25   H     H_    0.249969 0.713228 0.517693 0.185933
O14   O     O_3   0.645274 0.238031 0.549741 -0.578623
C52   C     C_3   0.689277 0.254157 0.463107 -0.385736
H26   H     H_    0.653573 0.299839 0.414651 0.178420
H27   H     H_    0.704158 0.191341 0.423171 0.162956
H28   H     H_    0.750034 0.286772 0.482305 0.185934
O15   O     O_3   0.639079 0.765621 0.572607 -0.580568
C53   C     C_3   0.634881 0.757300 0.674610 -0.335012
H29   H     H_    0.573630 0.729671 0.697977 0.180416
H30   H     H_    0.645707 0.822006 0.712290 0.143946
H31   H     H_    0.685270 0.710793 0.698887 0.185166
O16   O     O_3   0.360926 0.234381 0.427389 -0.580575
C54   C     C_3   0.365134 0.242715 0.325388 -0.334947
H32   H     H_    0.354232 0.178028 0.287700 0.143954
H33   H     H_    0.426416 0.270271 0.302021 0.180364
H34   H     H_    0.314798 0.289288 0.301122 0.185174
C55   C     C_3   0.718438 0.090818 0.626835 -0.325678
C56   C     C_3   0.778586 0.030980 0.686325 -0.427625
C57   C     C_3   0.844561 0.086001 0.741851 -0.849657
H35   H     H_    0.882221 0.125742 0.690658 0.253792
H36   H     H_    0.813714 0.131405 0.794708 0.242792
H37   H     H_    0.887911 0.041011 0.782341 0.245258
H38   H     H_    0.742083 0.991930 0.739350 0.224474
H39   H     H_    0.812914 0.984854 0.636971 0.224309
H40   H     H_    0.757273 0.124594 0.572118 0.221577
H41   H     H_    0.692472 0.140760 0.678667 0.251891
C58   C     C_3   0.281567 0.909182 0.373161 -0.325676
C59   C     C_3   0.221418 0.969019 0.313671 -0.427627
C60   C     C_3   0.155442 0.913998 0.258148 -0.849657
H42   H     H_    0.186287 0.868593 0.205292 0.242792
H43   H     H_    0.117782 0.874259 0.309343 0.253791
H44   H     H_    0.112092 0.958988 0.217658 0.245258
H45   H     H_    0.187091 0.015147 0.363025 0.224309
H46   H     H_    0.257921 0.008068 0.260645 0.224473
H47   H     H_    0.307532 0.859240 0.321330 0.251891
H48   H     H_    0.242732 0.875407 0.427879 0.221578
O17   O     O_3   0.592125 0.375164 0.742439 -0.499863
C61   C     C_3   0.677046 0.402669 0.754141 -0.226566
H49   H     H_    0.685438 0.475102 0.741871 0.133792
H50   H     H_    0.716195 0.366011 0.700680 0.197567
H51   H     H_    0.702016 0.387486 0.827673 0.122499
O18   O     O_3   0.407874 0.624835 0.257561 -0.499862
C62   C     C_3   0.322954 0.597330 0.245859 -0.226565
H52   H     H_    0.283804 0.633988 0.299319 0.197566
H53   H     H_    0.314563 0.524897 0.258128 0.133786
H54   H     H_    0.297984 0.612513 0.172327 0.122498

loop_
_geom_bond_atom_site_label_1
_geom_bond_atom_site_label_2
_ccdc_geom_bond_type
C62   H54   S    
C14   H8    S    
C15   C55   S    
C36   C42   S    
C52   H26   S    
C52   H28   S    
C55   H40   S    
C62   H52   S    
C39   C41   S    
C4    C46   A    
C50   H20   S    
C19   H9    S    
C54   H33   S    
C33   C39   S    
C34   C40   S    
C33   C42   S    
C19   C21   A    
C2    C3    S    
C30   O10   S    
C59   H46   S    
C39   H6    S    
C7    C9    A    
C23   O7    A    
C56   C57   S    
C60   H44   S    
C61   H49   S    
Cu2   O2    S    
Cu1   Cu2   S    
C35   H1    S    
C24   C38   S    
C47   H11   S    
C6    O16   S    
C20   N2    A    
C45   O13   S    
C9    C10   A    
C24   O6    A    
C58   H48   S    
C40   C42   S    
C41   C43   S    
O9    C47   S    
C34   C41   S    
C42   C44   S    
C49   H19   S    
C1    O3    A    
O16   C54   S    
C2    O4    A    
C55   H41   S    
Cu2   N2    S    
C29   O9    S    
C50   H21   S    
C32   O12   S    
C54   H34   S    
O10   C48   S    
C17   O17   S    
C17   C27   A    
C5    O15   S    
C18   C28   A    
O12   C50   S    
C4    C6    A    
C16   C58   S    
Cu1   O4    S    
C5    C7    A    
C59   H45   S    
Cu2   O3    S    
C6    C8    A    
C19   N1    A    
C25   C26   A    
C23   C37   S    
C21   C29   A    
C3    C45   A    
C53   H31   S    
C37   C43   T    
C61   H50   S    
C48   H14   S    
C28   C31   A    
C38   C44   T    
C48   H15   S    
C11   C16   A    
C51   H24   S    
O15   C53   S    
C46   O14   S    
C12   C15   A    
C47   H13   S    
C53   H30   S    
C57   H36   S    
C9    C11   A    
C60   H42   S    
C10   C12   A    
C17   N1    A    
C12   C46   A    
C20   C22   A    
C13   C15   A    
C14   C16   A    
C11   C45   A    
C61   H51   S    
C33   H3    S    
C20   H10   S    
C56   H39   S    
Cu1   O8    S    
C36   H2    S    
C59   C60   S    
C51   H25   S    
O17   C61   S    
C50   H22   S    
C18   N2    A    
C62   H53   S    
C21   C25   A    
C8    C14   A    
C22   C30   A    
C57   H35   S    
C27   C32   A    
C34   H4    S    
C36   C39   S    
C49   H17   S    
C3    C5    A    
C1    O1    A    
Cu1   O1    S    
C58   C59   S    
C52   H27   S    
C31   O11   S    
O18   C62   S    
C25   C27   A    
C54   H32   S    
C26   C28   A    
C1    C4    S    
C23   O5    A    
C35   C40   S    
C29   C31   A    
C55   C56   S    
C30   C32   A    
C51   H23   S    
C53   H29   S    
C33   C35   S    
C49   H18   S    
C18   O18   S    
C57   H37   S    
C34   C36   S    
Cu2   O7    S    
O14   C52   S    
C35   C41   S    
C48   H16   S    
C60   H43   S    
C24   O8    A    
Cu1   N1    S    
O11   C49   S    
C7    C13   A    
C8    C10   A    
C40   H5    S    
C22   C26   A    
C47   H12   S    
Cu2   O6    S    
O13   C51   S    
C56   H38   S    
Cu1   O5    S    
C2    O2    A    
C13   H7    S    
C58   H47   S    
