data_mof_unit_65508.cif
_audit_creation_date              2012-12-10T18:46:53-0500
_audit_creation_method            fapswitch 2.2
_symmetry_space_group_name_H-M    P1
_symmetry_Int_Tables_number       1
_space_group_crystal_system       triclinic
_cell_length_a                    18.103579
_cell_length_b                    18.098355
_cell_length_c                    51.456785
_cell_angle_alpha                 89.999978
_cell_angle_beta                  89.999978
_cell_angle_gamma                 90.006525
_cell_volume                      16859.5581869

loop_
_atom_site_label
_atom_site_type_symbol
_atom_type_description
_atom_site_fract_x
_atom_site_fract_y
_atom_site_fract_z
_atom_type_partial_charge
C1    C     C_R   0.000000 0.500000 0.820760 0.802583
C2    C     C_R   0.000000 0.500000 0.179240 0.802592
C3    C     C_R   0.500000 1.000000 0.820757 0.801321
C4    C     C_R   0.500000 1.000000 0.179243 0.801313
C5    C     C_R   0.500000 1.000000 0.320760 0.803233
C6    C     C_R   0.500000 0.000000 0.679199 0.801935
C7    C     C_R   1.000000 0.500000 0.320755 0.801551
C8    C     C_R   0.000000 0.500000 0.679245 0.801511
C9    C     C_R   0.567080 0.118074 0.986325 -0.071793
C10   C     C_R   0.432919 0.881927 0.013675 -0.071793
C11   C     C_R   0.881751 0.433268 0.986325 -0.071819
C12   C     C_R   0.118250 0.566729 0.013675 -0.071820
C13   C     C_R   0.432919 0.881927 0.986325 -0.071794
C14   C     C_R   0.567080 0.118073 0.013675 -0.071794
C15   C     C_R   0.118250 0.566730 0.986325 -0.071819
C16   C     C_R   0.881751 0.433268 0.013675 -0.071820
C17   C     C_R   0.056271 0.623584 0.486327 -0.071774
C18   C     C_R   0.943721 0.376420 0.513674 -0.071168
C19   C     C_R   0.364840 0.987144 0.486248 -0.072026
C20   C     C_R   0.635242 0.011088 0.513571 -0.071465
C21   C     C_R   0.943725 0.376418 0.486327 -0.071774
C22   C     C_R   0.056276 0.623582 0.513674 -0.071167
C23   C     C_R   0.635160 0.012855 0.486248 -0.072026
C24   C     C_R   0.364758 0.988911 0.513571 -0.071465
C25   C     C_R   0.049087 0.454591 0.609481 -0.132092
C26   C     C_R   0.950909 0.545407 0.390519 -0.132023
C27   C     C_R   0.533796 0.057650 0.609337 -0.131472
C28   C     C_R   0.461530 0.054683 0.390495 -0.130406
C29   C     C_R   0.950912 0.545410 0.609481 -0.132093
C30   C     C_R   0.049090 0.454594 0.390519 -0.132022
C31   C     C_R   0.466204 0.942350 0.609337 -0.131472
C32   C     C_R   0.538470 0.945317 0.390495 -0.130406
C33   C     C_R   0.548446 0.953906 0.109469 -0.132779
C34   C     C_R   0.451552 0.046091 0.890531 -0.132781
C35   C     C_R   0.045649 0.451136 0.109463 -0.132732
C36   C     C_R   0.954351 0.548863 0.890537 -0.132732
C37   C     C_R   0.451554 0.046094 0.109469 -0.132780
C38   C     C_R   0.548448 0.953909 0.890531 -0.132781
C39   C     C_R   0.954351 0.548864 0.109463 -0.132731
C40   C     C_R   0.045650 0.451136 0.890537 -0.132733
C41   C     C_R   0.049557 0.454159 0.636624 -0.056196
C42   C     C_R   0.950439 0.545838 0.363376 -0.056025
C43   C     C_R   0.534975 0.057807 0.636435 -0.059809
C44   C     C_R   0.460625 0.054893 0.363395 -0.056673
C45   C     C_R   0.950443 0.545841 0.636624 -0.056196
C46   C     C_R   0.049560 0.454162 0.363376 -0.056025
C47   C     C_R   0.465025 0.942193 0.636435 -0.059809
C48   C     C_R   0.539375 0.945107 0.363395 -0.056674
C49   C     C_R   0.548954 0.953519 0.136619 -0.054986
C50   C     C_R   0.451043 0.046478 0.863381 -0.054972
C51   C     C_R   0.046030 0.450622 0.136612 -0.052845
C52   C     C_R   0.953970 0.549378 0.863388 -0.052838
C53   C     C_R   0.451046 0.046481 0.136619 -0.054986
C54   C     C_R   0.548956 0.953522 0.863381 -0.054972
C55   C     C_R   0.953971 0.549378 0.136612 -0.052845
C56   C     C_R   0.046030 0.450622 0.863388 -0.052837
C57   C     C_R   1.000000 0.500000 0.650549 -0.091305
C58   C     C_R   1.000000 0.500000 0.349451 -0.091129
C59   C     C_R   0.500000 0.000000 0.650439 -0.098526
C60   C     C_R   0.500000 1.000000 0.349449 -0.094282
C61   C     C_R   0.500000 0.000000 0.150544 -0.090499
C62   C     C_R   0.500000 0.000000 0.849456 -0.090523
C63   C     C_R   0.000000 0.500000 0.150539 -0.090480
C64   C     C_R   1.000000 0.500000 0.849461 -0.090481
C65   C     C_R   1.000000 0.500000 0.595920 0.290845
C66   C     C_R   1.000000 0.500000 0.404080 0.291202
C67   C     C_R   0.500000 1.000000 0.595742 0.280908
C68   C     C_R   0.500000 1.000000 0.404061 0.283878
C69   C     C_R   0.500000 1.000000 0.095917 0.293735
C70   C     C_R   0.500000 0.000000 0.904084 0.293737
C71   C     C_R   0.000000 0.500000 0.095912 0.293426
C72   C     C_R   0.000000 0.500000 0.904088 0.293425
C73   C     C_R   0.141873 0.358544 0.750383 0.884312
C74   C     C_R   0.858137 0.641471 0.249625 0.884678
C75   C     C_R   0.641479 0.141846 0.750361 0.881623
C76   C     C_R   0.358534 0.858137 0.249629 0.880617
C77   C     C_R   0.858127 0.641456 0.750383 0.884312
C78   C     C_R   0.141863 0.358529 0.249625 0.884678
C79   C     C_R   0.358520 0.858154 0.750361 0.881623
C80   C     C_R   0.641466 0.141863 0.249629 0.880617
C81   C     C_R   0.641860 0.858527 0.250374 0.884181
C82   C     C_R   0.358153 0.141490 0.749636 0.882813
C83   C     C_R   0.141467 0.641862 0.250370 0.880654
C84   C     C_R   0.858541 0.358126 0.749622 0.880878
C85   C     C_R   0.358140 0.141473 0.250374 0.884181
C86   C     C_R   0.641846 0.858510 0.749636 0.882813
C87   C     C_R   0.858533 0.358138 0.250370 0.880654
C88   C     C_R   0.141459 0.641874 0.749622 0.880879
C89   C     C_3   0.197263 0.768048 0.767368 -0.206535
C90   C     C_3   0.802741 0.231961 0.232616 -0.206423
C91   C     C_3   0.231919 0.197166 0.767362 -0.203115
C92   C     C_3   0.768157 0.802919 0.232693 -0.203416
C93   C     C_3   0.802736 0.231952 0.767368 -0.206535
C94   C     C_3   0.197258 0.768039 0.232616 -0.206424
C95   C     C_3   0.768081 0.802835 0.767362 -0.203115
C96   C     C_3   0.231843 0.197081 0.232693 -0.203415
C97   C     C_3   0.697255 0.268042 0.267383 -0.207057
C98   C     C_3   0.302708 0.732019 0.732577 -0.203910
C99   C     C_3   0.731832 0.697073 0.267307 -0.202977
C100  C     C_3   0.268132 0.302908 0.732694 -0.204747
C101  C     C_3   0.302745 0.731958 0.267383 -0.207056
C102  C     C_3   0.697292 0.267981 0.732577 -0.203910
C103  C     C_3   0.268168 0.302927 0.267307 -0.202977
C104  C     C_3   0.731868 0.697092 0.732694 -0.204747
C105  C     C_3   0.220214 0.814534 0.743614 0.454134
C106  C     C_3   0.779760 0.185504 0.256372 0.454103
C107  C     C_3   0.185587 0.220275 0.743592 0.453203
C108  C     C_3   0.814412 0.779736 0.256473 0.451381
C109  C     C_3   0.779786 0.185466 0.743614 0.454135
C110  C     C_3   0.220240 0.814496 0.256373 0.454103
C111  C     C_3   0.814413 0.779725 0.743592 0.453204
C112  C     C_3   0.185588 0.220264 0.256473 0.451381
C113  C     C_3   0.720237 0.314499 0.243627 0.454156
C114  C     C_3   0.279761 0.685527 0.756330 0.452848
C115  C     C_3   0.685576 0.720257 0.243528 0.451462
C116  C     C_3   0.314463 0.279797 0.756464 0.451891
C117  C     C_3   0.279763 0.685501 0.243626 0.454157
C118  C     C_3   0.720239 0.314473 0.756330 0.452848
C119  C     C_3   0.314423 0.279743 0.243528 0.451462
C120  C     C_3   0.685537 0.720203 0.756465 0.451892
C121  C     C_3   0.301448 0.800899 0.750144 -0.117998
C122  C     C_3   0.698531 0.199133 0.249829 -0.117575
C123  C     C_3   0.199153 0.301493 0.750202 -0.119532
C124  C     C_3   0.800867 0.698538 0.249824 -0.120557
C125  C     C_3   0.698552 0.199101 0.750144 -0.117998
C126  C     C_3   0.301468 0.800867 0.249830 -0.117575
C127  C     C_3   0.800847 0.698507 0.750202 -0.119532
C128  C     C_3   0.199133 0.301462 0.249824 -0.120557
C129  C     C_3   0.801466 0.300869 0.250170 -0.117532
C130  C     C_3   0.198518 0.699159 0.749806 -0.118531
C131  C     C_3   0.699123 0.801454 0.250177 -0.120313
C132  C     C_3   0.300897 0.198578 0.749849 -0.119615
C133  C     C_3   0.198534 0.699131 0.250170 -0.117533
C134  C     C_3   0.801482 0.300841 0.749806 -0.118531
C135  C     C_3   0.300877 0.198545 0.250177 -0.120312
C136  C     C_3   0.699102 0.801422 0.749849 -0.119615
C137  C     C_3   0.279795 0.754416 0.773959 -0.264045
C138  C     C_3   0.720217 0.245585 0.226009 -0.263600
C139  C     C_3   0.245475 0.279682 0.774039 -0.258907
C140  C     C_3   0.754616 0.720426 0.225980 -0.258885
C141  C     C_3   0.720204 0.245585 0.773959 -0.264045
C142  C     C_3   0.279783 0.754416 0.226009 -0.263599
C143  C     C_3   0.754526 0.720318 0.774039 -0.258907
C144  C     C_3   0.245384 0.279574 0.225980 -0.258885
C145  C     C_3   0.779780 0.254418 0.273990 -0.264086
C146  C     C_3   0.220172 0.745640 0.725986 -0.262345
C147  C     C_3   0.745371 0.779566 0.274021 -0.258793
C148  C     C_3   0.254567 0.220396 0.726017 -0.262641
C149  C     C_3   0.220220 0.745581 0.273990 -0.264086
C150  C     C_3   0.779828 0.254360 0.725986 -0.262345
C151  C     C_3   0.254629 0.220434 0.274021 -0.258793
C152  C     C_3   0.745432 0.779603 0.726017 -0.262641
C153  C     C_R   0.467271 0.942940 0.944782 0.515060
C154  C     C_R   0.532729 0.057060 0.055218 0.515060
C155  C     C_R   0.057169 0.532518 0.944783 0.515145
C156  C     C_R   0.942831 0.467481 0.055217 0.515146
C157  C     C_R   0.532728 0.057060 0.944782 0.515060
C158  C     C_R   0.467271 0.942940 0.055218 0.515060
C159  C     C_R   0.942831 0.467481 0.944783 0.515146
C160  C     C_R   0.057169 0.532518 0.055217 0.515145
C161  C     C_R   0.971645 0.440644 0.444795 0.514802
C162  C     C_R   0.028358 0.559355 0.555205 0.515070
C163  C     C_R   0.565033 0.009947 0.444798 0.513808
C164  C     C_R   0.434250 0.000599 0.554928 0.513285
C165  C     C_R   0.028354 0.559357 0.444795 0.514803
C166  C     C_R   0.971641 0.440646 0.555205 0.515070
C167  C     C_R   0.434967 0.990052 0.444798 0.513809
C168  C     C_R   0.565750 0.999400 0.554928 0.513286
C169  C     C_R   0.533677 0.059154 0.972332 -0.064831
C170  C     C_R   0.466323 0.940846 0.027669 -0.064830
C171  C     C_R   0.940750 0.466512 0.972332 -0.064916
C172  C     C_R   0.059251 0.533487 0.027668 -0.064918
C173  C     C_R   0.466323 0.940847 0.972332 -0.064830
C174  C     C_R   0.533677 0.059154 0.027669 -0.064830
C175  C     C_R   0.059251 0.533487 0.972332 -0.064917
C176  C     C_R   0.940750 0.466512 0.027668 -0.064917
C177  C     C_R   0.028563 0.561779 0.472338 -0.064559
C178  C     C_R   0.971432 0.438224 0.527663 -0.064479
C179  C     C_R   0.432368 0.992517 0.472277 -0.062954
C180  C     C_R   0.567865 0.003711 0.527478 -0.062280
C181  C     C_R   0.971435 0.438223 0.472338 -0.064559
C182  C     C_R   0.028566 0.561777 0.527663 -0.064479
C183  C     C_R   0.567632 0.007483 0.472277 -0.062954
C184  C     C_R   0.432135 0.996288 0.527478 -0.062280
C185  C     C_R   0.500000 1.000000 0.986179 -0.027159
C186  C     C_R   0.500000 0.000000 0.013821 -0.027160
C187  C     C_R   0.000000 0.499999 0.986179 -0.027103
C188  C     C_R   0.000000 0.499999 0.013820 -0.027102
C189  C     C_R   0.999999 0.500001 0.486182 -0.027229
C190  C     C_R   0.999999 0.500001 0.513818 -0.027333
C191  C     C_R   0.500000 1.000000 0.486084 -0.028089
C192  C     C_R   0.500000 1.000000 0.513659 -0.027774
H1    H     H_    0.153099 0.782533 0.781442 0.205696
H2    H     H_    0.846925 0.217460 0.218552 0.205603
H3    H     H_    0.217388 0.152893 0.781394 0.207162
H4    H     H_    0.782735 0.847235 0.218684 0.207357
H5    H     H_    0.846900 0.217467 0.781442 0.205696
H6    H     H_    0.153074 0.782540 0.218552 0.205604
H7    H     H_    0.782613 0.847108 0.781393 0.207162
H8    H     H_    0.217265 0.152764 0.218685 0.207356
H9    H     H_    0.653071 0.282542 0.281448 0.205201
H10   H     H_    0.346868 0.717578 0.718494 0.207189
H11   H     H_    0.717254 0.652756 0.281316 0.207291
H12   H     H_    0.282662 0.347187 0.718664 0.206633
H13   H     H_    0.346929 0.717457 0.281447 0.205201
H14   H     H_    0.653132 0.282422 0.718494 0.207190
H15   H     H_    0.282746 0.347244 0.281316 0.207292
H16   H     H_    0.717337 0.652813 0.718664 0.206633
H17   H     H_    0.305439 0.758405 0.793506 0.194687
H18   H     H_    0.694598 0.241571 0.206459 0.194546
H19   H     H_    0.241357 0.305174 0.793608 0.200286
H20   H     H_    0.758790 0.694998 0.206402 0.200371
H21   H     H_    0.694560 0.241595 0.793506 0.194687
H22   H     H_    0.305401 0.758430 0.206459 0.194546
H23   H     H_    0.758644 0.694827 0.793608 0.200286
H24   H     H_    0.241209 0.305002 0.206402 0.200371
H25   H     H_    0.805399 0.258432 0.293540 0.194319
H26   H     H_    0.194541 0.741656 0.706438 0.194710
H27   H     H_    0.741171 0.804991 0.293600 0.198963
H28   H     H_    0.258670 0.194913 0.706447 0.194454
H29   H     H_    0.194602 0.741567 0.293540 0.194319
H30   H     H_    0.805459 0.258344 0.706438 0.194710
H31   H     H_    0.258829 0.195009 0.293600 0.198963
H32   H     H_    0.741329 0.805086 0.706447 0.194454
H33   H     H_    0.086742 0.419429 0.598732 0.151271
H34   H     H_    0.913252 0.580566 0.401268 0.150724
H35   H     H_    0.559883 0.102172 0.598624 0.157911
H36   H     H_    0.431779 0.096800 0.401225 0.155284
H37   H     H_    0.913257 0.580571 0.598732 0.151270
H38   H     H_    0.086748 0.419435 0.401268 0.150724
H39   H     H_    0.440116 0.897827 0.598624 0.157911
H40   H     H_    0.568221 0.903200 0.401224 0.155285
H41   H     H_    0.585572 0.918206 0.098714 0.149132
H42   H     H_    0.414423 0.081790 0.901287 0.149129
H43   H     H_    0.081009 0.413687 0.098706 0.149107
H44   H     H_    0.918990 0.586311 0.901294 0.149107
H45   H     H_    0.414428 0.081794 0.098714 0.149132
H46   H     H_    0.585576 0.918210 0.901287 0.149129
H47   H     H_    0.918991 0.586313 0.098706 0.149108
H48   H     H_    0.081010 0.413688 0.901294 0.149107
N1    N     N_R   0.500000 0.000000 0.931979 -0.347601
N2    N     N_R   0.500000 1.000000 0.068021 -0.347601
N3    N     N_R   0.000000 0.500000 0.931982 -0.347621
N4    N     N_R   0.000000 0.500000 0.068018 -0.347622
N5    N     N_R   0.999999 0.500000 0.431983 -0.347035
N6    N     N_R   1.000000 0.500000 0.568017 -0.346955
N7    N     N_R   0.500000 1.000000 0.431963 -0.345394
N8    N     N_R   0.500000 1.000000 0.567811 -0.344504
O1    O     O_3   1.000000 0.500000 0.750000 -0.521931
O2    O     O_3   1.000000 0.500000 0.250000 -0.521946
O3    O     O_3   0.500000 1.000000 0.750000 -0.521156
O4    O     O_3   0.500000 0.000000 0.250000 -0.521707
O5    O     O_R   0.000220 0.561630 0.808380 -0.633292
O6    O     O_R   0.999780 0.438370 0.191620 -0.633308
O7    O     O_R   0.438370 0.000220 0.808380 -0.633874
O8    O     O_R   0.561630 0.999780 0.191620 -0.633888
O9    O     O_R   0.999780 0.438370 0.808380 -0.633292
O10   O     O_R   0.000220 0.561630 0.191620 -0.633308
O11   O     O_R   0.561630 0.999780 0.808380 -0.633874
O12   O     O_R   0.438370 0.000220 0.191620 -0.633888
O13   O     O_R   0.500220 0.061630 0.308380 -0.634887
O14   O     O_R   0.499780 0.938370 0.691620 -0.636024
O15   O     O_R   0.938370 0.500220 0.308380 -0.634242
O16   O     O_R   0.061630 0.499780 0.691620 -0.634290
O17   O     O_R   0.499780 0.938370 0.308380 -0.634887
O18   O     O_R   0.500220 0.061630 0.691620 -0.636024
O19   O     O_R   0.061630 0.499780 0.308380 -0.634242
O20   O     O_R   0.938370 0.500220 0.691620 -0.634290
O21   O     O_R   0.086770 0.352080 0.765560 -0.617178
O22   O     O_R   0.913230 0.647920 0.234440 -0.617145
O23   O     O_R   0.647920 0.086770 0.765560 -0.619171
O24   O     O_R   0.352080 0.913230 0.234440 -0.618824
O25   O     O_R   0.913230 0.647920 0.765560 -0.617178
O26   O     O_R   0.086770 0.352080 0.234440 -0.617145
O27   O     O_R   0.352080 0.913230 0.765560 -0.619171
O28   O     O_R   0.647920 0.086770 0.234440 -0.618824
O29   O     O_R   0.586770 0.852080 0.265560 -0.617143
O30   O     O_R   0.413230 0.147920 0.734440 -0.619704
O31   O     O_R   0.147920 0.586770 0.265560 -0.619009
O32   O     O_R   0.852080 0.413230 0.734440 -0.618997
O33   O     O_R   0.413230 0.147920 0.265560 -0.617143
O34   O     O_R   0.586770 0.852080 0.734440 -0.619704
O35   O     O_R   0.852080 0.413230 0.265560 -0.619009
O36   O     O_R   0.147920 0.586770 0.734440 -0.618998
O37   O     O_R   0.852120 0.586630 0.735130 -0.633651
O38   O     O_R   0.147880 0.413370 0.264870 -0.633691
O39   O     O_R   0.413370 0.852120 0.735130 -0.633070
O40   O     O_R   0.586630 0.147880 0.264870 -0.634850
O41   O     O_R   0.147880 0.413370 0.735130 -0.633651
O42   O     O_R   0.852120 0.586630 0.264870 -0.633691
O43   O     O_R   0.586630 0.147880 0.735130 -0.633070
O44   O     O_R   0.413370 0.852120 0.264870 -0.634849
O45   O     O_R   0.352120 0.086630 0.235130 -0.633577
O46   O     O_R   0.647880 0.913370 0.764870 -0.632995
O47   O     O_R   0.913370 0.352120 0.235130 -0.634703
O48   O     O_R   0.086630 0.647880 0.764870 -0.634630
O49   O     O_R   0.647880 0.913370 0.235130 -0.633577
O50   O     O_R   0.352120 0.086630 0.764870 -0.632995
O51   O     O_R   0.086630 0.647880 0.235130 -0.634703
O52   O     O_R   0.913370 0.352120 0.764870 -0.634630
O53   O     O_2   0.435569 0.888920 0.930583 -0.538718
O54   O     O_2   0.564431 0.111080 0.069417 -0.538717
O55   O     O_2   0.111315 0.563983 0.930582 -0.538304
O56   O     O_2   0.888686 0.436017 0.069418 -0.538301
O57   O     O_2   0.564431 0.111080 0.930583 -0.538718
O58   O     O_2   0.435569 0.888920 0.069417 -0.538717
O59   O     O_2   0.888685 0.436017 0.930582 -0.538304
O60   O     O_2   0.111315 0.563983 0.069417 -0.538301
O61   O     O_2   0.943362 0.384717 0.430615 -0.539800
O62   O     O_2   0.056646 0.615280 0.569386 -0.540345
O63   O     O_2   0.626512 0.023014 0.430721 -0.541986
O64   O     O_2   0.371462 0.006515 0.568887 -0.543449
O65   O     O_2   0.056637 0.615284 0.430615 -0.539800
O66   O     O_2   0.943353 0.384721 0.569386 -0.540345
O67   O     O_2   0.373488 0.976986 0.430721 -0.541986
O68   O     O_2   0.628538 0.993485 0.568887 -0.543449
Zn1   Zn    Zn3+2 0.088070 0.500110 0.728590 1.028645
Zn2   Zn    Zn3+2 0.911930 0.499890 0.271410 1.028750
Zn3   Zn    Zn3+2 0.499890 0.088070 0.728590 1.027885
Zn4   Zn    Zn3+2 0.500110 0.911930 0.271410 1.029054
Zn5   Zn    Zn3+2 0.911930 0.499890 0.728590 1.028645
Zn6   Zn    Zn3+2 0.088070 0.500110 0.271410 1.028750
Zn7   Zn    Zn3+2 0.500110 0.911930 0.728590 1.027885
Zn8   Zn    Zn3+2 0.499890 0.088070 0.271410 1.029054
Zn9   Zn    Zn3+2 0.588070 0.000110 0.228590 1.029079
Zn10  Zn    Zn3+2 0.411930 0.999890 0.771410 1.029207
Zn11  Zn    Zn3+2 0.999890 0.588070 0.228590 1.030038
Zn12  Zn    Zn3+2 0.000110 0.411930 0.771410 1.030051
Zn13  Zn    Zn3+2 0.411930 0.999890 0.228590 1.029078
Zn14  Zn    Zn3+2 0.588070 0.000110 0.771410 1.029207
Zn15  Zn    Zn3+2 0.000110 0.411930 0.228590 1.030037
Zn16  Zn    Zn3+2 0.999890 0.588070 0.771410 1.030051
Cl1   Cl    Cl    0.181226 0.901585 0.735120 -0.508074
Cl2   Cl    Cl    0.818759 0.098463 0.264874 -0.508313
Cl3   Cl    Cl    0.098625 0.181304 0.734993 -0.507022
Cl4   Cl    Cl    0.901346 0.818674 0.265124 -0.506679
Cl5   Cl    Cl    0.818774 0.098415 0.735121 -0.508074
Cl6   Cl    Cl    0.181241 0.901536 0.264875 -0.508314
Cl7   Cl    Cl    0.901374 0.818696 0.734992 -0.507023
Cl8   Cl    Cl    0.098655 0.181326 0.265124 -0.506679
Cl9   Cl    Cl    0.681240 0.401541 0.235124 -0.508692
Cl10  Cl    Cl    0.318782 0.598481 0.764812 -0.508537
Cl11  Cl    Cl    0.598642 0.681320 0.234877 -0.506957
Cl12  Cl    Cl    0.401420 0.318763 0.765070 -0.507362
Cl13  Cl    Cl    0.318759 0.598460 0.235124 -0.508693
Cl14  Cl    Cl    0.681217 0.401519 0.764812 -0.508537
Cl15  Cl    Cl    0.401357 0.318679 0.234877 -0.506957
Cl16  Cl    Cl    0.598580 0.681238 0.765071 -0.507363
C193  C     C_1   0.602060 0.180035 0.973121 0.290990
N9    N     N_1   0.629999 0.229515 0.962786 -0.129826
C194  C     C_1   0.397938 0.819965 0.026879 0.290991
N10   N     N_1   0.369999 0.770486 0.037214 -0.129823
C195  C     C_1   0.819721 0.398432 0.973121 0.291028
N11   N     N_1   0.770187 0.370608 0.962786 -0.129689
C196  C     C_1   0.180282 0.601563 0.026879 0.291030
N12   N     N_1   0.229816 0.629386 0.037214 -0.129687
C197  C     C_1   0.397939 0.819965 0.973121 0.290992
N13   N     N_1   0.369999 0.770486 0.962786 -0.129827
C198  C     C_1   0.602061 0.180035 0.026879 0.290993
N14   N     N_1   0.630000 0.229514 0.037214 -0.129823
C199  C     C_1   0.180281 0.601564 0.973121 0.291029
N15   N     N_1   0.229816 0.629387 0.962786 -0.129689
C200  C     C_1   0.819720 0.398433 0.026879 0.291029
N16   N     N_1   0.770186 0.370610 0.037214 -0.129686
C201  C     C_1   0.084787 0.688766 0.473119 0.291919
N17   N     N_1   0.107548 0.740823 0.462778 -0.132044
C202  C     C_1   0.915192 0.311243 0.526882 0.291708
N18   N     N_1   0.892420 0.259191 0.537222 -0.134988
C203  C     C_1   0.293964 0.981251 0.473045 0.292707
N19   N     N_1   0.237367 0.976576 0.462699 -0.130852
C204  C     C_1   0.705673 0.019763 0.526885 0.290495
N20   N     N_1   0.761886 0.026773 0.537326 -0.131441
C205  C     C_1   0.915208 0.311237 0.473119 0.291919
N21   N     N_1   0.892446 0.259180 0.462779 -0.132044
C206  C     C_1   0.084803 0.688760 0.526882 0.291708
N22   N     N_1   0.107573 0.740812 0.537222 -0.134988
C207  C     C_1   0.706036 0.018749 0.473045 0.292706
N23   N     N_1   0.762633 0.023423 0.462699 -0.130851
C208  C     C_1   0.294327 0.980237 0.526885 0.290494
N24   N     N_1   0.238114 0.973227 0.537326 -0.131440
C209  C     C_1   0.099772 0.404329 0.649652 0.230416
N25   N     N_1   0.139960 0.364411 0.660088 -0.161967
C210  C     C_1   0.900218 0.595667 0.350349 0.229948
N26   N     N_1   0.860026 0.635583 0.339915 -0.161139
C211  C     C_1   0.574759 0.116870 0.649166 0.244540
N27   N     N_1   0.606684 0.164156 0.659330 -0.161863
C212  C     C_1   0.416683 0.110675 0.350534 0.237434
N28   N     N_1   0.381448 0.155321 0.340252 -0.170207
C213  C     C_1   0.900228 0.595671 0.649652 0.230417
N29   N     N_1   0.860040 0.635589 0.660088 -0.161967
C214  C     C_1   0.099781 0.404334 0.350349 0.229948
N30   N     N_1   0.139974 0.364417 0.339915 -0.161138
C215  C     C_1   0.425240 0.883130 0.649166 0.244540
N31   N     N_1   0.393316 0.835844 0.659330 -0.161863
C216  C     C_1   0.583317 0.889325 0.350534 0.237435
N32   N     N_1   0.618552 0.844679 0.340252 -0.170208
C217  C     C_1   0.598557 0.903112 0.149661 0.228522
N33   N     N_1   0.638255 0.862735 0.160110 -0.161157
C218  C     C_1   0.401438 0.096882 0.850339 0.228516
N34   N     N_1   0.361737 0.137258 0.839890 -0.161230
C219  C     C_1   0.095978 0.400551 0.149648 0.230329
N35   N     N_1   0.135993 0.360472 0.160089 -0.174382
C220  C     C_1   0.904020 0.599448 0.850352 0.230316
N36   N     N_1   0.864006 0.639526 0.839911 -0.174409
C221  C     C_1   0.401443 0.096888 0.149661 0.228522
N37   N     N_1   0.361745 0.137265 0.160110 -0.161157
C222  C     C_1   0.598562 0.903117 0.850339 0.228517
N38   N     N_1   0.638263 0.862742 0.839890 -0.161230
C223  C     C_1   0.904022 0.599449 0.149648 0.230329
N39   N     N_1   0.864007 0.639528 0.160089 -0.174382
C224  C     C_1   0.095980 0.400552 0.850352 0.230316
N40   N     N_1   0.135995 0.360474 0.839911 -0.174409

loop_
_geom_bond_atom_site_label_1
_geom_bond_atom_site_label_2
_ccdc_geom_bond_type
C106  Cl2   S    
C98   C121  S    
C5    O17   A    
C197  N13   T    
C37   C69   A    
C24   C184  A    
C18   C21   A    
C163  N7    A    
C102  C125  S    
C117  C133  S    
C28   H36   S    
C12   C172  A    
C119  Cl15  S    
C79   C121  S    
C45   C57   A    
C42   C210  S    
C81   O29   A    
C83   O31   A    
C69   N2    S    
C98   C114  S    
C130  C146  S    
C153  C173  A    
C80   O28   A    
C114  C137  S    
C55   C223  S    
C99   C147  S    
C157  C169  A    
C9    C169  A    
C165  O65   S    
C31   H39   S    
C20   C204  S    
C21   C205  S    
C8    O16   A    
C114  Cl10  S    
C129  C145  S    
O19   Zn6   S    
C33   C69   A    
O4    Zn13  S    
O40   Zn8   S    
C35   C71   A    
C4    O12   A    
C85   O33   A    
C5    O13   A    
C114  C130  S    
C72   N3    S    
C42   C58   A    
C14   C198  S    
O33   Zn8   S    
C108  C124  S    
C2    O6    A    
C136  C152  S    
C176  C188  A    
C96   C135  S    
C163  C183  A    
C191  C192  A    
C77   O25   A    
C25   C41   A    
C160  O60   S    
C168  C180  A    
C4    C61   S    
C28   C44   A    
C29   C45   A    
C26   C66   A    
O2    Zn15  S    
C118  Cl14  S    
C13   C173  A    
C8    C57   S    
C96   C144  S    
C91   H3    S    
C196  N12   T    
C89   H1    S    
C160  C172  A    
C112  C151  S    
C133  C149  S    
C23   C207  S    
C127  C143  S    
C44   C212  S    
C128  C144  S    
O38   Zn6   S    
C35   C51   A    
C209  N25   T    
O28   Zn9   S    
C210  N26   T    
C19   C179  A    
C143  H23   S    
C17   C177  A    
O45   Zn13  S    
C46   C214  S    
C97   C145  S    
C77   O37   A    
C92   H4    S    
C49   C217  S    
C206  N22   T    
C82   O50   A    
C215  N31   T    
C104  C152  S    
C117  C142  S    
C167  O67   S    
C221  N37   T    
C107  C148  S    
C27   H35   S    
C3    O11   A    
C105  C146  S    
C25   H33   S    
C162  O62   S    
C22   C206  S    
C47   C59   A    
C146  H26   S    
C179  C191  A    
C155  O55   S    
C198  N14   T    
C39   C71   A    
C156  O56   S    
C182  C190  A    
C94   H6    S    
C223  N39   T    
C201  N17   T    
C13   C197  S    
C171  C187  A    
C105  Cl1   S    
C65   N6    S    
C32   H40   S    
C193  N9    T    
C153  N1    A    
C165  C177  A    
O22   Zn11  S    
C194  N10   T    
O42   Zn2   S    
O4    Zn8   S    
C39   H47   S    
C219  N35   T    
C74   O22   A    
C32   C68   A    
O39   Zn7   S    
C173  C185  A    
O34   Zn7   S    
O31   Zn6   S    
C28   C68   A    
C103  H15   S    
C71   N4    S    
C52   C220  S    
O1    Zn1   S    
C135  C151  S    
C81   C131  S    
C218  N34   T    
C9    C193  S    
C50   C218  S    
C158  N2    A    
C121  C137  S    
C156  N4    A    
C90   C129  S    
C53   C61   A    
C92   C108  S    
C125  C141  S    
C73   C123  S    
C55   C63   A    
C6    O18   A    
C56   C64   A    
C131  C147  S    
C54   C222  S    
C168  O68   S    
C118  C134  S    
C43   C59   A    
O16   Zn1   S    
C37   C53   A    
C15   C199  S    
C46   C58   A    
C82   O30   A    
C88   O36   A    
C90   C138  S    
C86   O34   A    
C80   O40   A    
C154  C174  A    
O24   Zn13  S    
C94   C142  S    
O20   Zn5   S    
C144  H24   S    
C158  C170  A    
C166  O66   S    
C138  H18   S    
O48   Zn16  S    
C93   H5    S    
O15   Zn2   S    
C161  N5    A    
C41   C209  S    
C38   H46   S    
C116  C132  S    
C20   C23   A    
C85   O45   A    
C106  C122  S    
C158  O58   S    
C6    O14   A    
C160  N4    A    
C7    O19   A    
C102  H14   S    
C23   C183  A    
C110  C126  S    
C29   C65   A    
C35   H43   S    
C4    O8    A    
C1    C64   S    
C33   H41   S    
C2    C63   S    
C26   C42   A    
O49   Zn9   S    
C3    C62   S    
C86   C136  S    
C96   H8    S    
C79   O27   A    
C40   C72   A    
C5    C60   S    
C99   H11   S    
C6    C59   S    
C30   C46   A    
C97   H9    S    
C164  O64   S    
O21   Zn12  S    
C113  Cl9   S    
C36   H44   S    
C116  Cl12  S    
C87   C129  S    
C109  C150  S    
C29   H37   S    
C22   C182  A    
C165  N5    A    
C217  N33   T    
C161  O61   S    
O3    Zn7   S    
C56   C224  S    
C84   O32   A    
C95   C136  S    
C151  H31   S    
C161  C181  A    
C76   O44   A    
C27   C67   A    
C175  C187  A    
C153  O53   S    
C18   C202  S    
C18   C178  A    
C89   C105  S    
C2    O10   A    
C19   C203  S    
O27   Zn10  S    
C157  O57   S    
C78   O38   A    
C36   C72   A    
C159  O59   S    
C99   C124  S    
C155  N3    A    
C74   C124  S    
C38   C70   A    
O5    Zn16  S    
C95   C143  S    
O17   Zn4   S    
C76   C126  S    
C107  Cl3   S    
O18   Zn3   S    
C100  C116  S    
C107  C123  S    
C118  C141  S    
C78   C128  S    
C111  C152  S    
C47   C215  S    
C195  N11   T    
C183  C191  A    
C208  N24   T    
C80   C122  S    
C26   H34   S    
C84   C134  S    
C106  C145  S    
C159  C171  A    
O2    Zn6   S    
C70   N1    S    
C99   C115  S    
C178  C190  A    
C33   C49   A    
C204  N20   T    
O4    Zn4   S    
C94   C133  S    
O1    Zn5   S    
O11   Zn14  S    
O29   Zn4   S    
C48   C216  S    
O30   Zn3   S    
C181  C189  A    
C39   C55   A    
C202  N18   T    
C40   C56   A    
C17   C201  S    
O25   Zn16  S    
C200  N16   T    
C184  C192  A    
C166  C178  A    
O47   Zn15  S    
C34   C70   A    
C45   C213  S    
C103  C151  S    
C116  C139  S    
O36   Zn1   S    
C16   C176  A    
C115  Cl11  S    
C31   C47   A    
C119  C144  S    
C150  H30   S    
C120  C143  S    
C112  Cl8   S    
C159  N3    A    
C1    O5    A    
O2    Zn2   S    
C1    O9    A    
C49   C61   A    
C51   C63   A    
C122  C138  S    
C52   C64   A    
C91   C132  S    
C54   C62   A    
C126  C142  S    
C119  C135  S    
C89   C130  S    
C90   C106  S    
C137  H17   S    
C120  C136  S    
C9    C14   A    
O1    Zn12  S    
C117  Cl13  S    
C91   C107  S    
C11   C16   A    
C38   C54   A    
C12   C15   A    
C170  C186  A    
C148  H28   S    
C79   O39   A    
C142  H22   S    
O12   Zn13  S    
O32   Zn5   S    
C102  C150  S    
O37   Zn5   S    
O14   Zn7   S    
C167  C179  A    
C89   C137  S    
C152  H32   S    
C82   C132  S    
O10   Zn11  S    
C92   C140  S    
C11   C171  A    
C93   C141  S    
C140  H20   S    
C51   C219  S    
C211  N27   T    
O46   Zn14  S    
C155  C175  A    
O8    Zn9   S    
C156  C176  A    
O51   Zn11  S    
C124  C140  S    
C216  N32   T    
C15   C175  A    
O6    Zn15  S    
C10   C170  A    
C95   C111  S    
C17   C22   A    
C86   O46   A    
C108  Cl4   S    
C100  C123  S    
C101  C117  S    
C19   C24   A    
C109  Cl5   S    
C41   C57   A    
C187  C188  A    
C14   C174  A    
C53   C221  S    
C100  H12   S    
C185  C186  A    
C32   C48   A    
C104  C127  S    
C75   O23   A    
C44   C60   A    
C167  N7    A    
C76   O24   A    
C94   C110  S    
O52   Zn12  S    
C104  H16   S    
C189  C190  A    
C87   O35   A    
C112  C128  S    
C77   C127  S    
C31   C67   A    
C166  N6    A    
C27   C43   A    
C43   C211  S    
C145  H25   S    
C115  C140  S    
O41   Zn1   S    
C224  N40   T    
C113  C138  S    
O43   Zn3   S    
C75   C125  S    
O44   Zn4   S    
C24   C208  S    
C104  C120  S    
C66   N5    S    
C154  N2    A    
O26   Zn15  S    
C123  C139  S    
C220  N36   T    
C88   C130  S    
C8    O20   A    
C110  C149  S    
C214  N30   T    
C20   C180  A    
C115  C131  S    
C21   C181  A    
C96   C112  S    
C113  C129  S    
C40   H48   S    
C100  C148  S    
C162  C182  A    
C154  O54   S    
C134  C150  S    
O7    Zn10  S    
O50   Zn10  S    
C74   O42   A    
C157  N1    A    
O3    Zn14  S    
C90   H2    S    
C222  N38   T    
O2    Zn11  S    
C7    C58   S    
C102  C118  S    
C11   C195  S    
C108  C147  S    
C91   C139  S    
C149  H29   S    
C10   C194  S    
O13   Zn8   S    
C48   C60   A    
C68   N7    S    
C34   C50   A    
O9    Zn12  S    
C177  C189  A    
C132  C148  S    
C92   C131  S    
C25   C65   A    
C75   O43   A    
C93   C134  S    
C180  C192  A    
O3    Zn3   S    
C141  H21   S    
C98   C146  S    
C139  H19   S    
C87   O47   A    
C88   O48   A    
C162  N6    A    
C97   C122  S    
C164  C184  A    
O35   Zn2   S    
C81   O49   A    
C67   N8    S    
O3    Zn10  S    
C37   H45   S    
C101  C126  S    
C105  C121  S    
C110  Cl6   S    
C7    O15   A    
C103  C128  S    
C207  N23   T    
C30   C66   A    
C101  H13   S    
C85   C135  S    
C109  C125  S    
C168  N8    A    
C111  C127  S    
C50   C62   A    
C111  Cl7   S    
C97   C113  S    
C34   H42   S    
C203  N19   T    
C12   C196  S    
C16   C200  S    
C98   H10   S    
C103  C119  S    
O1    Zn16  S    
C10   C13   A    
C36   C52   A    
C73   O41   A    
C199  N15   T    
C120  Cl16  S    
C30   H38   S    
C169  C185  A    
C73   O21   A    
C205  N21   T    
C174  C186  A    
C213  N29   T    
C172  C188  A    
C101  C149  S    
C164  N8    A    
C3    O7    A    
C83   C133  S    
C147  H27   S    
O23   Zn14  S    
C78   O26   A    
C95   H7    S    
C93   C109  S    
C163  O63   S    
O4    Zn9   S    
C212  N28   T    
C83   O51   A    
C84   O52   A    
