data_mof_unit_61294.cif
_audit_creation_date              2012-12-10T16:55:32-0500
_audit_creation_method            fapswitch 2.2
_symmetry_space_group_name_H-M    P1
_symmetry_Int_Tables_number       1
_space_group_crystal_system       triclinic
_cell_length_a                    21.790131
_cell_length_b                    21.756523
_cell_length_c                    22.058719
_cell_angle_alpha                 120.033264
_cell_angle_beta                  119.251763
_cell_angle_gamma                 88.669514
_cell_volume                      7552.18765791

loop_
_atom_site_label
_atom_site_type_symbol
_atom_type_description
_atom_site_fract_x
_atom_site_fract_y
_atom_site_fract_z
_atom_type_partial_charge
C1    C     C_R   0.002365 0.382485 0.503123 0.932272
C2    C     C_1   0.839261 0.336601 0.173579 -0.121756
C3    C     C_1   0.123706 0.625759 0.751344 -0.182749
C4    C     C_1   0.876293 0.374241 0.248656 -0.182748
C5    C     C_2   0.994163 0.246654 0.558704 -0.156758
C6    C     C_2   0.005837 0.753346 0.441296 -0.156760
C7    C     C_2   0.990050 0.183326 0.496401 -0.339340
C8    C     C_2   0.009950 0.816674 0.503598 -0.339349
C9    C     C_2   0.985232 0.309963 0.551546 -0.156345
C10   C     C_2   0.014769 0.690037 0.448455 -0.156346
C11   C     C_2   0.010249 0.321367 0.512375 -0.337059
C12   C     C_R   0.997634 0.617515 0.496877 0.932272
C13   C     C_2   0.989751 0.678633 0.487624 -0.337058
C14   C     C_R   0.615685 0.996044 0.493923 0.936823
C15   C     C_R   0.384318 0.003958 0.506081 0.936831
C16   C     C_R   0.080530 0.581166 0.662331 0.911053
C17   C     C_R   0.919470 0.418834 0.337668 0.911054
C18   C     C_R   0.418572 0.918968 0.337637 0.914350
C19   C     C_R   0.581428 0.081032 0.662363 0.914341
C20   C     C_R   0.881301 0.003521 0.501487 0.884999
C21   C     C_R   0.118698 0.996486 0.498513 0.885001
C22   C     C_R   0.997657 0.119003 0.499527 0.938893
C23   C     C_3   0.274641 0.841099 0.047817 -0.391404
C24   C     C_R   0.002343 0.880997 0.500473 0.938905
C25   C     C_2   0.754572 0.006863 0.443135 -0.218743
C26   C     C_2   0.245415 0.993113 0.556839 -0.218730
C27   C     C_2   0.818569 0.015981 0.508023 -0.161937
C28   C     C_2   0.181431 0.984048 0.491976 -0.161904
C29   C     C_2   0.689947 0.015776 0.447859 -0.166103
C30   C     C_2   0.310042 0.984205 0.552119 -0.166104
C31   C     C_2   0.673376 0.984492 0.478846 -0.316216
C32   C     C_2   0.326631 0.015513 0.521164 -0.316211
C33   C     C_3   0.279115 0.688288 0.949673 -0.390670
C34   C     C_3   0.725350 0.158902 0.952184 -0.391406
C35   C     C_3   0.720890 0.311719 0.050326 -0.390670
C36   C     C_3   0.165768 0.697569 0.954037 -0.393951
C37   C     C_3   0.834237 0.302423 0.045963 -0.393951
C38   C     C_3   0.214725 0.746264 0.051182 -0.388551
C39   C     C_3   0.785280 0.253728 0.948818 -0.388549
C40   C     C_1   0.373574 0.874808 0.248667 -0.178262
C41   C     C_1   0.626426 0.125192 0.751333 -0.178260
C42   C     C_3   0.206588 0.709239 0.917849 0.355034
C43   C     C_3   0.793412 0.290761 0.082151 0.355033
C44   C     C_3   0.328049 0.736960 0.046767 -0.394671
C45   C     C_3   0.225691 0.792415 0.950692 -0.393877
C46   C     C_3   0.671956 0.263047 0.953232 -0.394672
C47   C     C_3   0.289420 0.791624 0.082205 0.352890
C48   C     C_3   0.710580 0.208376 0.917794 0.352889
C49   C     C_1   0.831396 0.048392 0.590702 0.211440
C50   C     C_1   0.168612 0.951711 0.409312 0.211395
C51   C     C_3   0.774300 0.207586 0.049309 -0.393876
C52   C     C_1   0.335580 0.837392 0.173620 -0.119809
C53   C     C_1   0.664420 0.162608 0.826380 -0.119809
C54   C     C_1   0.160739 0.663399 0.826421 -0.121756
H1    H     H_    0.339252 0.700715 0.070623 0.169198
H2    H     H_    0.999085 0.748992 0.386991 0.165560
H3    H     H_    0.974862 0.176351 0.438008 0.156931
H4    H     H_    0.025137 0.823649 0.561992 0.156930
H5    H     H_    0.960484 0.348301 0.580666 0.164932
H6    H     H_    0.039517 0.651699 0.419335 0.164931
H7    H     H_    0.042535 0.288129 0.491908 0.157041
H8    H     H_    0.957464 0.711870 0.508091 0.157040
H9    H     H_    0.749576 0.993049 0.385972 0.168213
H10   H     H_    0.250392 0.006868 0.613976 0.168189
H11   H     H_    0.656783 0.047053 0.426152 0.169842
H12   H     H_    0.660759 0.299292 0.929376 0.169199
H13   H     H_    0.343193 0.952910 0.573805 0.169843
H14   H     H_    0.702391 0.946784 0.491562 0.162166
H15   H     H_    0.297633 0.053241 0.508475 0.162175
H16   H     H_    0.151450 0.638102 0.931306 0.167745
H17   H     H_    0.848560 0.361889 0.068694 0.167745
H18   H     H_    0.223913 0.710184 0.075114 0.169781
H19   H     H_    0.776098 0.289807 0.924886 0.169783
H20   H     H_    0.185853 0.784409 0.075863 0.171460
H21   H     H_    0.814148 0.215577 0.924137 0.171459
H22   H     H_    0.255123 0.802220 0.925493 0.167981
H23   H     H_    0.309508 0.696232 0.924462 0.168971
H24   H     H_    0.744865 0.197787 0.074507 0.167981
H25   H     H_    0.174361 0.808846 0.928649 0.168100
H26   H     H_    0.825627 0.191149 0.071351 0.168100
H27   H     H_    0.266813 0.628658 0.926882 0.167841
H28   H     H_    0.733198 0.371349 0.073117 0.167840
H29   H     H_    0.113382 0.712325 0.932042 0.169565
H30   H     H_    0.886619 0.287661 0.067958 0.169565
H31   H     H_    0.327585 0.874280 0.069268 0.167407
H32   H     H_    0.672403 0.125726 0.930733 0.167407
H33   H     H_    0.690493 0.303781 0.075538 0.168972
H34   H     H_    0.381940 0.768291 0.068196 0.167129
H35   H     H_    0.618062 0.231722 0.931804 0.167130
H36   H     H_    0.246830 0.880920 0.072442 0.169852
H37   H     H_    0.753157 0.119075 0.927558 0.169849
H38   H     H_    0.000917 0.251008 0.613010 0.165562
N1    N     N_1   0.841743 0.074194 0.656432 -0.216744
N2    N     N_1   0.158273 0.925968 0.343595 -0.216742
O1    O     O_R   0.051090 0.409550 0.500010 -0.624171
O2    O     O_R   0.051070 0.590460 0.499970 -0.616767
O3    O     O_R   0.112510 0.561440 0.622850 -0.616791
O4    O     O_R   0.887490 0.438560 0.377150 -0.616791
O5    O     O_R   0.010350 0.561430 0.622870 -0.621852
O6    O     O_R   0.989650 0.438570 0.377130 -0.621853
O7    O     O_R   0.590290 0.948920 0.499990 -0.625888
O8    O     O_R   0.409710 0.051080 0.500010 -0.625887
O9    O     O_R   0.590320 0.051050 0.499970 -0.616822
O10   O     O_R   0.409680 0.948950 0.500030 -0.616832
O11   O     O_R   0.438380 0.887500 0.377150 -0.617404
O12   O     O_R   0.948910 0.590450 0.499990 -0.624172
O13   O     O_R   0.561620 0.112500 0.622850 -0.617404
O14   O     O_R   0.438400 0.989630 0.377130 -0.621460
O15   O     O_R   0.561600 0.010370 0.622870 -0.621465
O16   O     O_R   0.944190 0.034670 0.569380 -0.619529
O17   O     O_R   0.055810 0.965330 0.430620 -0.619529
O18   O     O_R   0.874830 0.965310 0.430660 -0.622032
O19   O     O_R   0.125170 0.034690 0.569340 -0.622029
O20   O     O_R   0.034670 0.125130 0.569340 -0.615426
O21   O     O_R   0.965330 0.874870 0.430660 -0.615422
O22   O     O_R   0.965310 0.055770 0.430620 -0.625475
O23   O     O_R   0.034690 0.944230 0.569380 -0.625473
O24   O     O_R   0.948930 0.409540 0.500030 -0.616766
Zn1   Zn    Zn3+2 0.068220 0.500010 0.499990 0.951933
Zn2   Zn    Zn3+2 0.931780 0.499990 0.500010 0.951933
Zn3   Zn    Zn3+2 0.499800 0.931810 0.500010 0.954394
Zn4   Zn    Zn3+2 0.500200 0.068190 0.499990 0.954403
Zn5   Zn    Zn3+2 0.046310 0.046310 0.592620 0.954766
Zn6   Zn    Zn3+2 0.953690 0.953690 0.407380 0.954764

loop_
_geom_bond_atom_site_label_1
_geom_bond_atom_site_label_2
_ccdc_geom_bond_type
C30   C32   D    
C37   C43   S    
C23   C45   S    
O2    Zn1   S    
C36   C42   S    
C1    C11   S    
C14   C31   S    
C33   H23   S    
C15   C32   S    
C46   H35   S    
C34   C51   S    
C45   H22   S    
C33   C42   S    
O18   Zn6   S    
C34   H32   S    
C3    C54   T    
C16   O3    A    
C36   H29   S    
C25   H9    S    
C18   C40   S    
C34   H37   S    
C26   H10   S    
C8    H4    S    
O5    Zn2   S    
C20   O18   A    
C35   H33   S    
C13   H8    S    
C37   H30   S    
C39   H21   S    
C15   O10   A    
C35   C43   S    
C17   O4    A    
C30   H13   S    
C44   C47   S    
C22   O22   A    
C48   C53   S    
C28   C50   S    
C21   O17   A    
C35   H28   S    
C36   H16   S    
O24   Zn2   S    
C19   O15   A    
C25   C29   S    
C31   H14   S    
C38   H18   S    
C23   C47   S    
O15   Zn3   S    
C21   O19   A    
O14   Zn4   S    
C5    C7    D    
C50   N2    T    
C14   O7    A    
C6    C8    D    
O10   Zn3   S    
O1    Zn1   S    
C40   C52   T    
O7    Zn3   S    
C9    H5    S    
C42   C45   S    
O3    Zn1   S    
C10   H6    S    
C5    C9    S    
O16   Zn5   S    
O19   Zn5   S    
C2    C43   S    
C1    O1    A    
C24   O23   A    
C23   H36   S    
O11   Zn3   S    
C45   H25   S    
O6    Zn1   S    
O4    Zn2   S    
C9    C11   D    
C41   C53   T    
C38   C47   S    
C32   H15   S    
C29   H11   S    
C4    C17   S    
C21   C28   S    
C26   C30   S    
C37   H17   S    
C20   O16   A    
C34   C48   S    
O20   Zn5   S    
C38   H20   S    
O21   Zn6   S    
O22   Zn6   S    
O12   Zn2   S    
O17   Zn6   S    
C33   C44   S    
C6    H2    S    
C11   H7    S    
C10   C13   D    
C6    C10   S    
C16   O5    A    
C46   H12   S    
C47   C52   S    
C20   C27   S    
C25   C27   D    
C7    C22   S    
C26   C28   D    
C36   C38   S    
O23   Zn5   S    
C51   H24   S    
C37   C39   S    
O8    Zn4   S    
C42   C54   S    
C12   O12   A    
O9    Zn4   S    
C44   H1    S    
C43   C51   S    
C14   O9    A    
C2    C4    T    
C51   H26   S    
C8    C24   S    
C1    O24   A    
C39   H19   S    
C15   O8    A    
C17   O6    A    
C18   O14   A    
C18   O11   A    
C5    H38   S    
C46   C48   S    
C19   C41   S    
C22   O20   A    
C12   C13   S    
C24   O21   A    
C29   C31   D    
C23   H31   S    
C12   O2    A    
O13   Zn4   S    
C49   N1    T    
C44   H34   S    
C35   C46   S    
C33   H27   S    
C7    H3    S    
C3    C16   S    
C27   C49   S    
C39   C48   S    
C19   O13   A    
