data_mof_unit_43296.cif
_audit_creation_date              2012-12-10T16:58:32-0500
_audit_creation_method            fapswitch 2.2
_symmetry_space_group_name_H-M    P1
_symmetry_Int_Tables_number       1
_space_group_crystal_system       triclinic
_cell_length_a                    13.129844
_cell_length_b                    13.102223
_cell_length_c                    15.506261
_cell_angle_alpha                 107.692146
_cell_angle_beta                  73.926396
_cell_angle_gamma                 90.166196
_cell_volume                      2432.3922178

loop_
_atom_site_label
_atom_site_type_symbol
_atom_type_description
_atom_site_fract_x
_atom_site_fract_y
_atom_site_fract_z
_atom_type_partial_charge
C1    C     C_R   0.218698 0.543717 0.535682 0.515858
C2    C     C_R   0.498727 0.440072 0.101222 0.264761
C3    C     C_R   0.681115 0.399977 0.094806 -0.155824
C4    C     C_R   0.780987 0.457479 0.464724 0.564936
C5    C     C_R   0.429791 0.573596 0.856954 -0.001444
C6    C     C_2   0.893583 0.445589 0.456371 0.220821
C7    C     C_2   0.934390 0.512425 0.522054 0.186782
C8    C     C_2   0.106381 0.568686 0.548152 -0.062740
C9    C     C_2   0.046443 0.491010 0.518153 -0.088884
C10   C     C_2   0.534412 0.895464 0.536746 -0.090478
C11   C     C_2   0.543376 0.930246 0.462597 -0.130213
C12   C     C_R   0.307587 0.638619 0.015898 -0.080393
C13   C     C_2   0.472222 0.099501 0.455099 0.287216
C14   C     C_2   0.547138 0.046398 0.475105 0.253941
C15   C     C_R   0.472461 0.217714 0.471820 0.512408
C16   C     C_R   0.528551 0.781665 0.527231 0.515693
C17   C     C_R   0.545389 0.443318 0.247443 0.517373
C18   C     C_R   0.455298 0.555428 0.753525 0.553025
C19   C     C_R   0.715821 0.404036 0.003216 -0.091810
C20   C     C_R   0.573097 0.419580 0.144905 0.031441
C21   C     C_R   0.328083 0.621661 0.919284 0.169539
C22   C     C_3   0.722476 0.056207 0.474871 -0.024991
C23   C     C_R   0.378770 0.597131 0.051085 0.281415
C24   C     C_3   0.798764 0.133561 0.511617 -0.294032
C25   C     C_3   0.295279 0.079562 0.468069 -0.004430
C26   C     C_3   0.221319 0.993339 0.442342 -0.346611
C27   C     C_3   0.404605 0.717184 0.181931 -0.014147
C28   C     C_3   0.385907 0.741403 0.287616 -0.345140
C29   C     C_R   0.470841 0.530928 0.988174 0.029826
C30   C     C_R   0.503896 0.534420 0.894212 -0.094839
C31   C     C_R   0.536426 0.471024 0.018288 -0.005320
C32   C     C_R   0.645099 0.441689 0.963997 -0.014896
C33   C     C_R   0.680984 0.454304 0.873682 0.213576
C34   C     C_R   0.610872 0.501160 0.840830 -0.073990
H1    H     H_    0.739210 0.382533 0.127449 0.168581
H2    H     H_    0.845835 0.245532 0.315806 0.327573
H3    H     H_    0.742607 0.039832 0.396872 0.137195
H4    H     H_    0.734388 0.980197 0.490143 0.164620
H5    H     H_    0.790477 0.209684 0.495721 0.198606
H6    H     H_    0.781179 0.151606 0.589302 0.184668
H7    H     H_    0.881962 0.096978 0.477021 0.145260
H8    H     H_    0.270057 0.151853 0.453325 0.190863
H9    H     H_    0.285671 0.099557 0.545362 0.136236
H10   H     H_    0.241220 0.921565 0.460402 0.151550
H11   H     H_    0.137555 0.024561 0.482542 0.142350
H12   H     H_    0.074677 0.652216 0.579489 0.190723
H13   H     H_    0.229493 0.969800 0.365451 0.178572
H14   H     H_    0.781905 0.239697 0.770393 0.343805
H15   H     H_    0.312036 0.252440 0.168498 0.394068
H16   H     H_    0.087700 0.616064 0.977122 0.362218
H17   H     H_    0.368238 0.786590 0.170073 0.149195
H18   H     H_    0.492154 0.707437 0.147307 0.133095
H19   H     H_    0.428548 0.677609 0.301333 0.153766
H20   H     H_    0.415527 0.819950 0.316754 0.135833
H21   H     H_    0.299508 0.745262 0.323564 0.177760
H22   H     H_    0.545510 0.874592 0.393946 0.128143
H23   H     H_    0.523072 0.952695 0.606848 0.154581
H24   H     H_    0.799859 0.385712 0.967233 0.225869
H25   H     H_    0.234506 0.683106 0.065258 0.180317
H26   H     H_    0.643389 0.516289 0.774577 0.218883
H27   H     H_    0.082561 0.408851 0.487633 0.199021
H28   H     H_    0.909029 0.603182 0.724558 0.394082
O1    O     O_3   0.500000 0.500000 0.500000 -0.480039
O2    O     O_R   0.468210 0.402800 0.293550 -0.466457
O3    O     O_R   0.410220 0.615430 0.721590 -0.456850
O4    O     O_R   0.602670 0.506150 0.290200 -0.566150
O5    O     O_R   0.518910 0.475630 0.694660 -0.537954
O6    O     O_2   0.861790 0.718430 0.569531 -0.249294
O7    O     O_2   0.742291 0.608513 0.646318 -0.284715
O8    O     O_3   0.905410 0.667961 0.705048 -0.464083
O9    O     O_2   0.068531 0.377997 0.307745 -0.194561
O10   O     O_2   0.002497 0.251142 0.393674 -0.330718
O11   O     O_3   0.898661 0.286208 0.283639 -0.480536
O12   O     O_R   0.526920 0.270960 0.524520 -0.506574
O13   O     O_3   0.617058 0.103211 0.521010 -0.549014
O14   O     O_3   0.400903 0.040791 0.412581 -0.602075
O15   O     O_2   0.821491 0.411008 0.699139 -0.289256
O16   O     O_2   0.890049 0.476224 0.836024 -0.233551
O17   O     O_3   0.840063 0.279430 0.790412 -0.490784
O18   O     O_2   0.303619 0.466997 0.226890 -0.204702
O19   O     O_2   0.314091 0.385757 0.059080 -0.233679
O20   O     O_3   0.385213 0.270161 0.142392 -0.488805
O21   O     O_2   0.245863 0.758681 0.853010 -0.190320
O22   O     O_2   0.208167 0.570329 0.798854 -0.252901
O23   O     O_R   0.454490 0.752910 0.584610 -0.521155
O24   O     O_3   0.106972 0.686730 0.969724 -0.475185
O25   O     O_3   0.356978 0.622644 0.147822 -0.508127
O26   O     O_R   0.270990 0.462040 0.468400 -0.517454
O27   O     O_R   0.747590 0.514090 0.422470 -0.500498
O28   O     O_R   0.265290 0.607490 0.589320 -0.499798
O29   O     O_R   0.716130 0.416380 0.519810 -0.525902
O30   O     O_R   0.423930 0.265320 0.430520 -0.540343
O31   O     O_R   0.594650 0.710810 0.460350 -0.523829
S1    S     S_3+6 0.856839 0.628587 0.611561 0.040095
S2    S     S_3+6 0.970144 0.337906 0.359081 0.011140
S3    S     S_3+6 0.811455 0.407113 0.797020 0.005808
S4    S     S_3+6 0.370123 0.393386 0.132947 0.101983
S5    S     S_3+6 0.221826 0.659483 0.881716 0.074851
Zn1   Zn    Zn3+2 0.564370 0.417180 0.558730 1.012183
Zn2   Zn    Zn3+2 0.417220 0.409120 0.424430 1.003135
Zn3   Zn    Zn3+2 0.609330 0.556780 0.419650 0.992033
Zn4   Zn    Zn3+2 0.409080 0.616930 0.597190 1.058216

loop_
_geom_bond_atom_site_label_1
_geom_bond_atom_site_label_2
_ccdc_geom_bond_type
C1    O28   A    
O18   S4    D    
C1    C8    S    
O1    Zn3   S    
C25   H9    S    
C26   H10   S    
C11   H22   S    
C18   O3    A    
C12   C23   A    
C16   O31   A    
O1    Zn2   S    
C9    H27   S    
O3    Zn4   S    
H14   O17   S    
O8    S1    S    
C5    C30   A    
C17   O2    A    
C11   C14   S    
O9    S2    D    
C22   H4    S    
C17   C20   S    
H28   O8    S    
O28   Zn4   S    
O1    Zn1   S    
C26   H11   S    
C15   O30   A    
C12   H25   S    
C2    S4    S    
O16   S3    D    
C8    C9    D    
O21   S5    D    
C3    C19   A    
O5    Zn1   S    
C4    O29   A    
C1    O26   A    
C23   O25   S    
C13   C14   D    
C34   H26   S    
C24   H7    S    
O10   S2    D    
O4    Zn3   S    
C22   O13   S    
O1    Zn4   S    
C19   C32   A    
C28   H21   S    
C27   H17   S    
C19   H24   S    
C30   C34   A    
C2    C20   A    
C10   H23   S    
C4    C6    S    
O7    S1    D    
H2    O11   S    
O12   Zn1   S    
O31   Zn3   S    
C28   H20   S    
C5    C18   S    
C18   O5    A    
C22   H3    S    
C12   C21   A    
O6    S1    D    
C2    C31   A    
H15   O20   S    
C29   C30   A    
C31   C32   A    
C13   O14   S    
C3    H1    S    
C33   C34   A    
C17   O4    A    
C3    C20   A    
C27   O25   S    
O26   Zn2   S    
C26   H13   S    
C13   C15   S    
C16   O23   A    
O20   S4    S    
C22   C24   S    
O11   S2    S    
C33   S3    S    
C23   C29   A    
C27   H18   S    
O30   Zn2   S    
C4    O27   A    
C7    C9    S    
C7    S1    S    
O27   Zn3   S    
C25   H8    S    
C28   H19   S    
C6    C7    D    
O15   S3    D    
C25   O14   S    
O22   S5    D    
C32   C33   A    
C25   C26   S    
O17   S3    S    
C29   C31   A    
C10   C16   S    
C14   O13   S    
C21   S5    S    
O19   S4    D    
C24   H6    S    
O24   S5    S    
C8    H12   S    
C10   C11   D    
H16   O24   S    
O2    Zn2   S    
C15   O12   A    
C5    C21   A    
C6    S2    S    
C27   C28   S    
O29   Zn1   S    
C24   H5    S    
O23   Zn4   S    
