data_mof_unit_56184.cif
_audit_creation_date              2012-12-10T18:09:50-0500
_audit_creation_method            fapswitch 2.2
_symmetry_space_group_name_H-M    P1
_symmetry_Int_Tables_number       1
_space_group_crystal_system       triclinic
_cell_length_a                    10.647814
_cell_length_b                    12.596204
_cell_length_c                    13.133031
_cell_angle_alpha                 82.279863
_cell_angle_beta                  91.037487
_cell_angle_gamma                 102.495721
_cell_volume                      1704.00779233

loop_
_atom_site_label
_atom_site_type_symbol
_atom_type_description
_atom_site_fract_x
_atom_site_fract_y
_atom_site_fract_z
_atom_type_partial_charge
C1    C     C_R   0.480200 0.438824 0.691125 0.841435
C2    C     C_R   0.468492 0.447306 0.973385 0.087817
C3    C     C_R   0.436140 0.467909 0.869301 0.082023
C4    C     C_R   0.741799 0.499782 0.501847 0.843573
C5    C     C_R   0.469768 0.530345 0.036019 0.089290
C6    C     C_R   0.419579 0.623908 0.999282 0.164619
C7    C     C_R   0.369883 0.634267 0.900569 -0.237152
C8    C     C_R   0.377798 0.557142 0.836210 -0.204816
C9    C     C_R   0.521803 0.523615 0.133905 -0.241545
C10   C     C_R   0.460103 0.690777 0.163694 -0.107274
C11   C     C_R   0.465219 0.399515 0.800649 -0.112925
C12   C     C_3   0.120786 0.498423 0.496781 0.036734
C13   C     C_R   0.321375 0.088346 0.345694 -0.307352
C14   C     C_R   0.652156 0.799296 0.630636 0.022672
C15   C     C_R   0.683493 0.903764 0.659491 -0.251634
C16   C     C_R   0.515613 0.561219 0.308758 0.931585
C17   C     C_R   0.625822 0.985409 0.610045 -0.200205
C18   C     C_R   0.536185 0.962571 0.530846 0.019558
C19   C     C_R   0.507957 0.854712 0.504168 0.231946
C20   C     C_R   0.473583 0.041833 0.477403 -0.010205
C21   C     C_R   0.384293 0.011592 0.398969 0.189112
C22   C     C_R   0.358919 0.905221 0.374159 -0.294907
C23   C     C_3   0.088731 0.582761 0.406281 0.332134
C24   C     C_R   0.420316 0.828178 0.425889 -0.224013
C25   C     C_R   0.495797 0.150676 0.498192 -0.057143
C26   C     C_R   0.347562 0.194429 0.370138 0.007761
C27   C     C_R   0.257963 0.499530 0.498711 0.892128
C28   C     C_3   0.898705 0.385139 0.481433 -0.361254
C29   C     C_3   0.040553 0.382034 0.486579 -0.350859
C30   C     C_3   0.946611 0.589717 0.416033 -0.421664
C31   C     C_3   0.937936 0.524336 0.606025 -0.417111
C32   C     C_3   0.878449 0.499786 0.501365 0.102841
C33   C     C_3   0.083381 0.530434 0.600990 -0.491213
C34   C     C_R   0.417874 0.704773 0.062749 -0.138422
C35   C     C_R   0.507753 0.597573 0.199804 -0.045089
C36   C     C_R   0.497631 0.299412 0.838260 -0.197741
C37   C     C_R   0.509699 0.270727 0.943131 -0.148093
C38   C     C_R   0.498525 0.344690 0.010355 -0.179068
H1    H     H_    0.861142 0.366931 0.404597 0.228827
H2    H     H_    0.510773 0.318326 0.090816 0.138380
H3    H     H_    0.533387 0.192924 0.972118 0.143827
H4    H     H_    0.845297 0.319223 0.539857 0.162627
H5    H     H_    0.336657 0.567604 0.760554 0.166806
H6    H     H_    0.300288 0.255254 0.329651 0.162474
H7    H     H_    0.291412 0.881359 0.314223 0.177067
H8    H     H_    0.253082 0.066566 0.285751 0.152869
H9    H     H_    0.562019 0.181552 0.555630 0.119897
H10   H     H_    0.696286 0.735280 0.668904 0.137492
H11   H     H_    0.653230 0.064936 0.635516 0.130764
H12   H     H_    0.135480 0.615388 0.609751 0.191398
H13   H     H_    0.752036 0.921392 0.720103 0.150244
H14   H     H_    0.397507 0.748266 0.402791 0.220537
H15   H     H_    0.057107 0.323130 0.554061 0.164999
H16   H     H_    0.068474 0.350992 0.416811 0.235021
H17   H     H_    0.894495 0.582002 0.342330 0.215507
H18   H     H_    0.920653 0.603413 0.625373 0.184716
H19   H     H_    0.892979 0.458608 0.668052 0.175324
H20   H     H_    0.111088 0.474618 0.666547 0.178484
H21   H     H_    0.014808 0.458512 0.166545 0.386781
H22   H     H_    0.942561 0.672215 0.435720 0.148491
H23   H     H_    0.149608 0.665119 0.413584 0.070502
H24   H     H_    0.448289 0.748763 0.214666 0.150085
H25   H     H_    0.326991 0.703041 0.872394 0.150879
H26   H     H_    0.378825 0.776022 0.035798 0.138231
H27   H     H_    0.569051 0.458255 0.162928 0.146953
H28   H     H_    0.517727 0.244935 0.786449 0.151434
N1    N     N_R   0.433240 0.222190 0.444680 -0.106000
N2    N     N_R   0.566070 0.776970 0.554790 -0.131884
O1    O     O_R   0.468120 0.366740 0.627160 -0.620089
O2    O     O_2   0.233858 0.501330 0.278342 -0.340134
O3    O     O_3   0.991519 0.466490 0.237373 -0.593303
O4    O     O_R   0.510770 0.544830 0.662520 -0.617884
O5    O     O_R   0.663880 0.410950 0.482330 -0.632496
O6    O     O_R   0.706530 0.589040 0.517700 -0.624864
O7    O     O_R   0.489230 0.455170 0.337480 -0.590842
O8    O     O_R   0.531880 0.633260 0.372840 -0.644951
O9    O     O_R   0.293470 0.410960 0.482300 -0.598490
O10   O     O_R   0.336120 0.589050 0.517670 -0.661950
O11   O     O_2   0.144758 0.658455 0.206712 -0.331353
S1    S     S_3+6 0.119526 0.552832 0.278985 -0.041021
Zn1   Zn    Zn3+2 0.471520 0.381090 0.476390 0.954518
Zn2   Zn    Zn3+2 0.528480 0.618910 0.523610 0.924582

loop_
_geom_bond_atom_site_label_1
_geom_bond_atom_site_label_2
_ccdc_geom_bond_type
C24   H14   S    
C30   C32   S    
C33   H20   S    
C12   C29   S    
C16   O7    A    
C25   N1    A    
C8    H5    S    
C27   O10   A    
C26   H6    S    
C7    C8    A    
C12   C23   S    
C26   N1    A    
C28   C29   S    
C16   C35   S    
C5    C6    A    
C36   H28   S    
C20   C25   A    
C18   C19   A    
O10   Zn2   S    
C30   H22   S    
C31   C33   S    
C10   C35   A    
C15   H13   S    
C31   H18   S    
C25   H9    S    
C4    O6    A    
C21   C22   A    
C10   H24   S    
O6    Zn2   S    
O5    Zn1   S    
O3    S1    S    
C1    O4    A    
C12   C27   S    
O2    S1    D    
C23   C30   S    
C28   C32   S    
C3    C11   A    
C3    C8    A    
O8    Zn2   S    
O7    Zn1   S    
C14   H10   S    
C28   H1    S    
C33   H12   S    
C1    O1    A    
C6    C34   A    
C11   C36   A    
C5    C9    A    
C37   C38   A    
C2    C38   A    
C31   C32   S    
O9    Zn1   S    
C34   H26   S    
C17   C18   A    
C13   C21   A    
C19   N2    A    
C10   C34   A    
C7    H25   S    
C4    O5    A    
C4    C32   S    
N1    Zn1   S    
C23   S1    S    
C22   C24   A    
C13   C26   A    
C2    C5    A    
C17   H11   S    
C15   C17   A    
C36   C37   A    
C16   O8    A    
C27   O9    A    
C6    C7    A    
C30   H17   S    
N2    Zn2   S    
C31   H19   S    
C2    C3    A    
C38   H2    S    
C13   H8    S    
C29   H15   S    
C28   H4    S    
C19   C24   A    
C18   C20   A    
C37   H3    S    
C9    H27   S    
O1    Zn1   S    
O11   S1    D    
C23   H23   S    
C22   H7    S    
C20   C21   A    
C29   H16   S    
C9    C35   A    
C14   N2    A    
C14   C15   A    
C1    C11   S    
C12   C33   S    
O4    Zn2   S    
H21   O3    S    
