data_mof_unit_60386.cif
_audit_creation_date              2012-12-10T17:46:07-0500
_audit_creation_method            fapswitch 2.2
_symmetry_space_group_name_H-M    P1
_symmetry_Int_Tables_number       1
_space_group_crystal_system       triclinic
_cell_length_a                    37.36644
_cell_length_b                    30.380851
_cell_length_c                    21.749092
_cell_angle_alpha                 89.990947
_cell_angle_beta                  54.385897
_cell_angle_gamma                 90.049517
_cell_volume                      20071.9838214

loop_
_atom_site_label
_atom_site_type_symbol
_atom_type_description
_atom_site_fract_x
_atom_site_fract_y
_atom_site_fract_z
_atom_type_partial_charge
Br1   Br    Br    0.039831 0.410963 0.784309 -0.546181
Br2   Br    Br    0.959731 0.411075 0.216180 -0.543319
Br3   Br    Br    0.537096 0.909896 0.787271 -0.525464
Br4   Br    Br    0.540156 0.911085 0.135731 -0.546557
C1    C     C_R   0.085106 0.499980 0.414933 0.785756
C2    C     C_R   0.016106 0.533354 0.202163 0.065346
C3    C     C_R   0.527405 0.343670 0.931465 0.439116
C4    C     C_R   0.972505 0.843592 0.068462 0.438889
C5    C     C_R   0.027428 0.843620 0.931589 0.440421
C6    C     C_R   0.499997 0.585059 0.999996 0.783193
C7    C     C_R   0.999990 0.085059 0.000006 0.783144
C8    C     C_R   0.037316 0.297371 0.943230 -0.157315
C9    C     C_R   0.962484 0.297312 0.056892 -0.156686
C10   C     C_R   0.537430 0.797380 0.981710 -0.153831
C11   C     C_R   0.462557 0.797302 0.017988 -0.157960
C12   C     C_R   0.037476 0.343239 0.943552 -0.135308
C13   C     C_R   0.485087 0.033910 0.796662 0.064734
C14   C     C_R   0.962370 0.343184 0.056539 -0.135582
C15   C     C_R   0.537560 0.843248 0.981138 -0.113520
C16   C     C_R   0.462417 0.843175 0.018615 -0.159130
C17   C     C_R   0.999936 0.366485 0.000039 -0.023151
C18   C     C_R   0.499977 0.866485 0.999938 -0.011126
C19   C     C_R   0.473580 0.297551 0.068008 -0.252627
C20   C     C_R   0.526723 0.297687 0.931758 -0.252059
C21   C     C_R   0.973221 0.797611 0.068167 -0.251931
C22   C     C_R   0.026739 0.797634 0.932010 -0.252657
C23   C     C_R   0.999890 0.274150 0.000067 0.089650
C24   C     C_R   0.483948 0.033314 0.234327 0.065523
C25   C     C_R   0.499992 0.774150 0.999857 0.092910
C26   C     C_R   0.486634 0.702550 0.960752 -0.160791
C27   C     C_R   0.513329 0.702613 0.039103 -0.163488
C28   C     C_R   0.986580 0.202558 0.065934 -0.162775
C29   C     C_R   0.013206 0.202604 0.934203 -0.162636
C30   C     C_R   0.486956 0.656676 0.960290 -0.183183
C31   C     C_R   0.513007 0.656737 0.039643 -0.179041
C32   C     C_R   0.986938 0.156684 0.065769 -0.182817
C33   C     C_R   0.012920 0.156729 0.934324 -0.179959
C34   C     C_R   0.499985 0.633415 0.999982 -0.028703
C35   C     C_3   0.963728 0.577762 0.823133 -0.478344
C36   C     C_R   0.999953 0.133415 0.000032 -0.028755
C37   C     C_R   0.500142 0.274414 0.999849 -0.046790
C38   C     C_R   0.000006 0.774420 0.000117 -0.046950
C39   C     C_R   0.039856 0.702728 0.957063 -0.167948
C40   C     C_R   0.960202 0.702624 0.043191 -0.167778
C41   C     C_R   0.539905 0.202687 0.956180 -0.167762
C42   C     C_R   0.460305 0.202640 0.043459 -0.167864
C43   C     C_R   0.985009 0.534164 0.734755 0.132777
C44   C     C_R   0.015160 0.534136 0.265071 0.133071
C45   C     C_R   0.485992 0.034613 0.733794 0.133573
C46   C     C_3   0.036708 0.577659 0.176420 -0.477841
C47   C     C_R   0.484909 0.034109 0.295326 0.132900
C48   C     C_R   0.000928 0.499255 0.684382 -0.153937
C49   C     C_R   0.999061 0.499271 0.315634 -0.154892
C50   C     C_R   0.500882 0.999238 0.684465 -0.155544
C51   C     C_R   0.500972 0.999267 0.313719 -0.154100
C52   C     C_R   0.017303 0.462437 0.700520 -0.224017
C53   C     C_R   0.982502 0.462498 0.299698 -0.221418
C54   C     C_R   0.516179 0.961966 0.701734 -0.222451
C55   C     C_R   0.517469 0.962503 0.264715 -0.223828
C56   C     C_R   0.017449 0.462003 0.765248 0.238522
C57   C     C_3   0.466044 0.078858 0.820822 -0.479493
C58   C     C_R   0.982357 0.462063 0.234970 0.238427
C59   C     C_R   0.516294 0.961551 0.766494 0.234584
C60   C     C_R   0.517602 0.962058 0.199710 0.238336
C61   C     C_3   0.404414 0.370940 0.152265 -0.299715
C62   C     C_3   0.595654 0.371881 0.848653 -0.288849
C63   C     C_3   0.904185 0.871613 0.150791 -0.288746
C64   C     C_3   0.095900 0.871186 0.848186 -0.300932
C65   C     C_3   0.463460 0.077622 0.249675 -0.479558
C66   C     C_3   0.964413 0.578553 0.751578 -0.431799
C67   C     C_3   0.036021 0.578449 0.247978 -0.435669
C68   C     C_3   0.466701 0.079588 0.749294 -0.433852
C69   C     C_R   0.914892 0.499934 0.585140 0.785746
C70   C     C_3   0.464162 0.078428 0.319842 -0.432080
C71   C     C_R   0.202753 0.537401 0.278771 -0.166289
C72   C     C_R   0.797443 0.461882 0.721058 -0.167241
C73   C     C_R   0.702493 0.962081 0.278883 -0.164953
C74   C     C_R   0.297307 0.037244 0.721143 -0.167406
C75   C     C_R   0.156869 0.537625 0.325070 -0.183865
C76   C     C_R   0.843323 0.461942 0.674800 -0.176834
C77   C     C_R   0.656617 0.962107 0.325135 -0.173928
C78   C     C_R   0.343187 0.037501 0.674840 -0.186035
C79   C     C_R   0.133459 0.499945 0.366692 -0.027545
C80   C     C_R   0.585107 0.999976 0.414864 0.786965
C81   C     C_R   0.866534 0.499797 0.633535 -0.029063
C82   C     C_R   0.633464 0.999913 0.366444 -0.028287
C83   C     C_R   0.366539 0.999831 0.633327 -0.028324
C84   C     C_R   0.156626 0.462182 0.361808 -0.175124
C85   C     C_R   0.843161 0.537471 0.638818 -0.181417
C86   C     C_R   0.656892 0.037580 0.361202 -0.179176
C87   C     C_R   0.343314 0.962040 0.638324 -0.178166
C88   C     C_R   0.202503 0.462212 0.316407 -0.166373
C89   C     C_R   0.797280 0.537152 0.684159 -0.165242
C90   C     C_R   0.702777 0.037296 0.315852 -0.164202
C91   C     C_R   0.414894 0.999938 0.585062 0.784766
C92   C     C_R   0.297432 0.962039 0.683726 -0.168707
C93   C     C_R   0.225827 0.499750 0.274384 0.099851
C94   C     C_R   0.774168 0.499415 0.725740 0.099618
C95   C     C_R   0.725830 0.999603 0.274231 0.099176
C96   C     C_R   0.274172 0.999571 0.725642 0.100286
C97   C     C_R   0.000182 0.499902 0.618634 0.824801
C98   C     C_R   0.999819 0.499908 0.381366 0.825508
C99   C     C_R   0.500180 0.999899 0.618648 0.825560
C100  C     C_R   0.500226 0.999908 0.380958 0.824870
C101  C     C_R   0.297424 0.485641 0.254881 -0.169366
C102  C     C_R   0.000246 0.498342 0.815224 -0.137659
C103  C     C_R   0.702639 0.512985 0.744831 -0.168091
C104  C     C_R   0.797400 0.013157 0.255092 -0.168119
C105  C     C_R   0.202539 0.985557 0.745148 -0.171224
C106  C     C_R   0.343306 0.486003 0.209138 -0.193993
C107  C     C_R   0.656763 0.512765 0.790548 -0.180944
C108  C     C_R   0.843276 0.012877 0.209391 -0.182228
C109  C     C_R   0.156657 0.985988 0.790874 -0.195684
C110  C     C_R   0.366574 0.499679 0.133445 -0.027542
C111  C     C_R   0.633430 0.499475 0.866445 -0.031931
C112  C     C_R   0.866570 0.999552 0.133548 -0.031461
C113  C     C_R   0.999748 0.498354 0.184788 -0.138600
C114  C     C_R   0.133429 0.999613 0.866556 -0.028116
C115  C     C_R   0.343278 0.513214 0.104319 -0.181264
C116  C     C_R   0.656664 0.485862 0.895647 -0.190877
C117  C     C_R   0.843295 0.985986 0.104378 -0.189280
C118  C     C_R   0.156766 0.013024 0.895687 -0.180087
C119  C     C_R   0.297405 0.513515 0.150432 -0.168419
C120  C     C_R   0.702546 0.485423 0.849551 -0.168251
C121  C     C_R   0.797414 0.985612 0.150455 -0.166537
C122  C     C_R   0.202639 0.013265 0.849589 -0.168478
C123  C     C_R   0.274216 0.499619 0.225903 0.101723
C124  C     C_R   0.500215 0.998411 0.815290 -0.138832
C125  C     C_R   0.725786 0.499229 0.774021 0.099502
C126  C     C_R   0.774212 0.999433 0.225939 0.099285
C127  C     C_R   0.225786 0.999427 0.774129 0.101988
C128  C     C_R   0.000038 0.633479 0.000042 -0.029886
C129  C     C_R   0.500060 0.133471 0.999896 -0.029601
C130  C     C_R   0.000023 0.725942 0.000146 0.165844
C131  C     C_R   0.500120 0.225933 0.999809 0.165967
C132  C     C_R   0.499984 0.725773 0.999904 0.099738
C133  C     C_R   0.999880 0.225773 0.000076 0.099393
C134  C     C_R   0.999978 0.414811 0.000018 0.849159
C135  C     C_R   0.500258 0.998328 0.184276 -0.137792
C136  C     C_R   0.499984 0.914812 0.999994 0.848345
C137  C     C_R   0.039881 0.656868 0.957107 -0.193742
C138  C     C_R   0.960191 0.656771 0.043047 -0.193073
C139  C     C_R   0.539893 0.156830 0.956306 -0.191689
C140  C     C_R   0.460257 0.156787 0.043424 -0.195234
C141  C     C_R   1.000000 0.499770 0.881464 0.856521
C142  C     C_R   0.000000 0.499776 0.118538 0.856337
C143  C     C_R   0.499995 0.999843 0.881481 0.855892
C144  C     C_R   0.500044 0.999764 0.118493 0.856117
C145  C     C_R   0.000019 0.585060 0.000001 0.769977
C146  C     C_R   0.984067 0.533386 0.797658 0.064435
C147  C     C_R   0.500020 0.085058 0.999966 0.770034
C148  C     C_R   0.500067 0.366833 0.999978 -0.243044
C149  C     C_R   0.999988 0.866836 0.000005 -0.242799
C150  C     C_R   0.499994 0.415057 0.000017 0.856287
C151  C     C_R   0.000019 0.915058 0.999980 0.856838
C152  C     C_R   0.414915 0.499868 0.085092 0.773703
C153  C     C_R   0.585086 0.499817 0.914893 0.773812
C154  C     C_R   0.914914 0.999831 0.085107 0.774022
C155  C     C_R   0.085086 0.999857 0.914907 0.773850
C156  C     C_R   0.472830 0.343531 0.068443 0.440301
Cu1   Cu    Cu3+1 1.000000 0.544020 0.500000 0.941909
Cu2   Cu    Cu3+1 0.500020 0.499990 0.938180 0.973356
Cu3   Cu    Cu3+1 0.999980 0.999990 0.061820 0.973102
Cu4   Cu    Cu3+1 0.000020 0.999990 0.938180 0.975150
Cu5   Cu    Cu3+1 0.500000 0.044020 0.500000 0.941774
Cu6   Cu    Cu3+1 0.000000 0.455930 0.500000 0.961322
Cu7   Cu    Cu3+1 0.500000 0.955930 0.500000 0.961023
Cu8   Cu    Cu3+1 0.955930 0.499910 0.044070 0.984924
Cu9   Cu    Cu3+1 0.044070 0.499910 0.955930 0.984151
Cu10  Cu    Cu3+1 0.455930 0.999910 0.044070 0.959612
Cu11  Cu    Cu3+1 0.544070 0.999910 0.955930 1.009571
Cu12  Cu    Cu3+1 0.499980 0.499990 0.061820 0.975100
H1    H     H_    0.030214 0.434284 0.662978 0.191628
H2    H     H_    0.720100 0.523455 0.686458 0.134465
H3    H     H_    0.779971 0.023635 0.313431 0.134035
H4    H     H_    0.219922 0.974984 0.686866 0.132287
H5    H     H_    0.360553 0.475241 0.232782 0.154449
H6    H     H_    0.639577 0.523472 0.766764 0.154693
H7    H     H_    0.860495 0.023559 0.233144 0.153199
H8    H     H_    0.139379 0.975323 0.767221 0.154124
H9    H     H_    0.360496 0.524022 0.046171 0.150800
H10   H     H_    0.639391 0.475229 0.953893 0.152538
H11   H     H_    0.860536 0.975334 0.046173 0.153180
H12   H     H_    0.969453 0.434380 0.337394 0.193166
H13   H     H_    0.139584 0.023784 0.953827 0.152272
H14   H     H_    0.279980 0.524122 0.127021 0.130981
H15   H     H_    0.719937 0.474900 0.873066 0.132671
H16   H     H_    0.779995 0.975113 0.126964 0.134756
H17   H     H_    0.220098 0.023794 0.872995 0.131336
H18   H     H_    0.071106 0.639791 0.923505 0.156336
H19   H     H_    0.928964 0.639621 0.076614 0.156776
H20   H     H_    0.571084 0.139730 0.922260 0.157443
H21   H     H_    0.429042 0.139656 0.077511 0.155259
H22   H     H_    0.453376 0.279991 0.121166 0.161462
H23   H     H_    0.528253 0.933422 0.665083 0.193759
H24   H     H_    0.546991 0.280235 0.878560 0.161819
H25   H     H_    0.952815 0.780092 0.121325 0.162021
H26   H     H_    0.047107 0.780128 0.878887 0.161520
H27   H     H_    0.066570 0.279977 0.899181 0.136357
H28   H     H_    0.933217 0.279870 0.100954 0.136659
H29   H     H_    0.566709 0.779994 0.967124 0.136744
H30   H     H_    0.433281 0.779850 0.032557 0.132082
H31   H     H_    0.066785 0.360496 0.899212 0.173432
H32   H     H_    0.933082 0.360400 0.100867 0.173606
H33   H     H_    0.566877 0.860511 0.966770 0.173362
H34   H     H_    0.530486 0.934401 0.276335 0.191717
H35   H     H_    0.433105 0.860383 0.032990 0.153282
H36   H     H_    0.070996 0.720080 0.924062 0.128898
H37   H     H_    0.929055 0.719891 0.076206 0.129399
H38   H     H_    0.571046 0.220007 0.922712 0.129454
H39   H     H_    0.429184 0.219925 0.076911 0.128648
H40   H     H_    0.476483 0.719948 0.929815 0.138053
H41   H     H_    0.523482 0.720060 0.070010 0.139664
H42   H     H_    0.976447 0.219963 0.117160 0.139795
H43   H     H_    0.023321 0.220043 0.882986 0.140024
H44   H     H_    0.476624 0.639434 0.929494 0.151519
H45   H     H_    0.219822 0.432770 0.313299 0.130813
H46   H     H_    0.523339 0.639544 0.070467 0.153521
H47   H     H_    0.976645 0.139447 0.117231 0.152069
H48   H     H_    0.023238 0.139531 0.882846 0.153486
H49   H     H_    0.930030 0.576382 0.876668 0.207335
H50   H     H_    0.070401 0.576162 0.122900 0.206601
H51   H     H_    0.432336 0.078462 0.874415 0.206260
H52   H     H_    0.485973 0.102062 0.205679 0.198589
H53   H     H_    0.986328 0.602131 0.821963 0.198284
H54   H     H_    0.014255 0.602109 0.177429 0.198006
H55   H     H_    0.489354 0.102575 0.818886 0.198355
H56   H     H_    0.779786 0.566511 0.687529 0.132937
H57   H     H_    0.429761 0.076127 0.263587 0.206480
H58   H     H_    0.931098 0.577421 0.763820 0.195345
H59   H     H_    0.069326 0.577193 0.235757 0.192431
H60   H     H_    0.433353 0.079422 0.761613 0.192619
H61   H     H_    0.486862 0.103548 0.316563 0.203685
H62   H     H_    0.987194 0.603591 0.709321 0.203465
H63   H     H_    0.013387 0.603567 0.290077 0.202898
H64   H     H_    0.490191 0.103940 0.706270 0.202596
H65   H     H_    0.430857 0.077186 0.374272 0.195040
H66   H     H_    0.220275 0.566765 0.247029 0.131139
H67   H     H_    0.720318 0.066645 0.312509 0.132497
H68   H     H_    0.780082 0.432385 0.752487 0.130962
H69   H     H_    0.719802 0.932615 0.247436 0.131681
H70   H     H_    0.279834 0.066601 0.752799 0.131516
H71   H     H_    0.139736 0.567095 0.327707 0.149170
H72   H     H_    0.860612 0.432528 0.671865 0.153575
H73   H     H_    0.639286 0.932699 0.328036 0.154019
H74   H     H_    0.360363 0.066996 0.672114 0.149360
H75   H     H_    0.139303 0.432767 0.393583 0.153505
H76   H     H_    0.860323 0.567017 0.607350 0.151848
H77   H     H_    0.639771 0.067085 0.392711 0.151583
H78   H     H_    0.280059 0.932585 0.686919 0.130089
H79   H     H_    0.360592 0.932633 0.606634 0.153006
H80   H     H_    0.405978 0.391046 0.107941 0.142884
H81   H     H_    0.383263 0.388805 0.206644 0.187266
H82   H     H_    0.388543 0.338594 0.158687 0.152926
H83   H     H_    0.593514 0.391690 0.893768 0.137444
H84   H     H_    0.616727 0.390372 0.794855 0.195612
H85   H     H_    0.611958 0.339766 0.841645 0.150883
H86   H     H_    0.906490 0.891445 0.105534 0.137398
H87   H     H_    0.882966 0.890029 0.204570 0.195766
H88   H     H_    0.887939 0.839454 0.157600 0.151144
H89   H     H_    0.280014 0.475021 0.313169 0.134293
H90   H     H_    0.094197 0.891279 0.892637 0.143318
H91   H     H_    0.117174 0.889094 0.793823 0.186968
H92   H     H_    0.111724 0.838868 0.841916 0.152924
O1    O     O_R   0.064270 0.537170 0.435740 -0.590862
O2    O     O_R   0.564300 0.499990 0.987900 -0.593188
O3    O     O_R   0.935700 0.999990 0.012100 -0.590988
O4    O     O_R   0.064300 0.999990 0.987900 -0.592911
O5    O     O_R   0.500010 0.564260 0.052180 -0.587184
O6    O     O_R   0.499990 0.564260 0.947820 -0.591066
O7    O     O_R   0.000010 0.064260 0.052180 -0.591294
O8    O     O_R   0.999990 0.064260 0.947820 -0.587075
O9    O     O_R   0.064230 0.462780 0.435770 -0.586952
O10   O     O_R   0.935770 0.462780 0.564230 -0.586494
O11   O     O_R   0.564230 0.962780 0.435770 -0.588029
O12   O     O_R   0.935730 0.537170 0.564260 -0.591433
O13   O     O_R   0.435770 0.962780 0.564230 -0.585378
O14   O     O_R   0.000000 0.537170 0.590170 -0.583924
O15   O     O_R   0.000000 0.537170 0.409830 -0.587497
O16   O     O_R   0.500000 0.037170 0.590170 -0.587614
O17   O     O_R   0.500000 0.037170 0.409830 -0.583825
O18   O     O_R   0.999960 0.462780 0.590210 -0.587562
O19   O     O_R   0.000040 0.462780 0.409790 -0.583404
O20   O     O_R   0.499960 0.962780 0.590210 -0.583839
O21   O     O_R   0.500040 0.962780 0.409790 -0.587601
O22   O     O_R   0.962790 0.435650 0.037200 -0.577425
O23   O     O_R   0.564270 0.037170 0.435740 -0.589606
O24   O     O_R   0.037210 0.435650 0.962800 -0.577608
O25   O     O_R   0.462790 0.935650 0.037200 -0.594205
O26   O     O_R   0.537210 0.935650 0.962800 -0.559893
O27   O     O_R   0.962770 0.499920 0.947050 -0.587635
O28   O     O_R   0.037230 0.499920 0.052950 -0.587764
O29   O     O_R   0.462770 0.999920 0.947050 -0.588979
O30   O     O_R   0.537230 0.999920 0.052950 -0.561807
O31   O     O_R   0.037170 0.499970 0.872660 -0.562067
O32   O     O_R   0.962830 0.499970 0.127340 -0.561934
O33   O     O_R   0.537170 0.999970 0.872660 -0.561765
O34   O     O_R   0.435730 0.037170 0.564260 -0.592696
O35   O     O_R   0.462830 0.999970 0.127340 -0.587870
O36   O     O_R   0.962770 0.564180 0.037230 -0.596780
O37   O     O_R   0.037230 0.564180 0.962770 -0.596939
O38   O     O_R   0.462770 0.064180 0.037230 -0.597805
O39   O     O_R   0.537230 0.064180 0.962770 -0.595927
O40   O     O_R   0.499950 0.435720 0.052230 -0.551410
O41   O     O_R   0.500050 0.435720 0.947770 -0.547828
O42   O     O_R   0.999950 0.935720 0.052230 -0.548104
O43   O     O_R   0.000050 0.935720 0.947770 -0.551601
O44   O     O_3   0.446485 0.365539 0.136485 -0.554610
O45   O     O_R   0.435710 0.499990 0.116480 -0.578569
O46   O     O_3   0.553864 0.365814 0.863517 -0.554325
O47   O     O_3   0.945867 0.865661 0.136369 -0.554431
O48   O     O_3   0.053916 0.865718 0.863601 -0.554791
O49   O     O_R   0.564290 0.499990 0.883520 -0.580432
O50   O     O_R   0.935710 0.999990 0.116480 -0.582336
O51   O     O_R   0.064290 0.999990 0.883520 -0.580638
O52   O     O_R   0.435700 0.499990 0.012100 -0.594721

loop_
_geom_bond_atom_site_label_1
_geom_bond_atom_site_label_2
_ccdc_geom_bond_type
C101  C106  A    
C1    O1    A    
C91   O13   A    
C9    H28   S    
C51   C55   A    
C14   C17   A    
C7    O8    A    
C24   C65   S    
C129  C147  S    
C103  C125  A    
C62   H85   S    
C142  O32   A    
C35   C146  S    
C57   H55   S    
C97   O18   A    
C121  H16   S    
Cu6   O19   S    
C80   C82   S    
C83   C87   A    
Cu1   O14   S    
C72   C94   A    
C3    C20   A    
C10   H29   S    
C54   H23   S    
Cu12  O2    S    
C13   C57   S    
C136  O25   A    
Cu12  O40   S    
C29   C133  A    
C61   H81   S    
C75   H71   S    
C77   C82   A    
C79   C84   A    
C20   C37   A    
Cu3   O50   S    
C10   C15   A    
C110  C152  S    
C5    C22   A    
C11   C16   A    
Cu4   O3    S    
C48   C97   S    
Cu8   O32   S    
C112  C117  A    
C8    C23   A    
C97   O14   A    
C82   C86   A    
Br1   C56   S    
C155  O51   A    
C101  C123  A    
C156  O44   S    
C68   H64   S    
C113  C142  S    
C100  O17   A    
C74   C78   A    
C49   C98   S    
C65   C70   S    
C147  O38   A    
Cu2   O52   S    
C9    C14   A    
C55   H34   S    
Cu8   Cu9   S    
C151  O43   A    
C26   C132  A    
C152  O52   A    
C46   H54   S    
C1    O9    A    
C46   H50   S    
C39   H36   S    
C98   O19   A    
C137  H18   S    
C27   C132  A    
C124  C143  S    
C43   C48   A    
C115  C119  A    
C145  O36   A    
C19   C37   A    
C6    C34   S    
C38   C130  S    
C119  H14   S    
C19   H22   S    
C47   C51   A    
C88   H45   S    
C63   H86   S    
C3    C148  A    
C90   H67   S    
C67   H59   S    
C71   H66   S    
C33   H48   S    
C71   C75   A    
C78   C83   A    
C12   C17   A    
C102  C146  A    
Cu3   O4    S    
Cu2   O49   S    
Cu9   O24   S    
Cu8   O36   S    
C98   O15   A    
C64   H90   S    
C29   H43   S    
Cu10  O25   S    
Cu6   O9    S    
C112  C154  S    
C153  O2    A    
C73   H69   S    
C28   C32   A    
C33   C36   A    
C37   C131  S    
Cu10  Cu11  S    
C104  H3    S    
C122  C127  A    
C94   C125  S    
C40   H37   S    
C114  C118  A    
Cu9   O37   S    
Cu6   O10   S    
C58   C113  A    
Cu11  O39   S    
Cu1   O1    S    
C6    O5    A    
C83   C91   S    
C67   H63   S    
C106  C110  A    
C104  C126  A    
C110  C115  A    
Cu4   O51   S    
C28   H42   S    
C87   C92   A    
C5    C149  A    
Cu5   Cu7   S    
C141  O31   A    
C24   C135  A    
C99   O16   A    
C32   H47   S    
C88   C93   A    
C40   C130  A    
C44   C49   A    
C135  C144  S    
C41   C131  A    
C26   C30   A    
C8    C12   A    
C31   C34   A    
C13   C45   A    
C42   C140  A    
C3    O46   S    
C155  O4    A    
C51   C100  S    
Cu3   O7    S    
C117  C121  A    
C65   H57   S    
C119  C123  A    
C43   C146  A    
C69   O10   A    
C25   C132  S    
C2    C46   S    
C4    C149  A    
C69   C81   S    
Cu8   O22   S    
C62   H84   S    
C147  O39   A    
C10   C25   A    
C78   H74   S    
C99   O20   A    
C108  C112  A    
C56   C102  A    
C22   C38   A    
Cu11  O30   S    
C128  C137  A    
C129  C140  A    
C154  O3    A    
C68   H60   S    
C7    O7    A    
C35   H49   S    
C72   C76   A    
C27   H41   S    
C103  H2    S    
Cu5   O23   S    
C30   H44   S    
C116  H10   S    
C92   C96   A    
C153  O49   A    
C73   C95   A    
C85   C89   A    
C7    C36   S    
C22   H26   S    
C136  O26   A    
Cu2   Cu12  S    
C61   H80   S    
Cu2   O41   S    
C14   H32   S    
Cu5   O16   S    
C16   H35   S    
C53   H12   S    
C63   H87   S    
C116  C120  A    
C152  O45   A    
C4    C21   A    
C47   C70   S    
C92   H78   S    
C62   O46   S    
C87   H79   S    
C23   C133  S    
C102  C141  S    
C144  O35   A    
C24   C47   A    
C20   H24   S    
C69   O12   A    
C42   H39   S    
C18   C136  S    
C71   C93   A    
C115  H9    S    
C42   C131  A    
C39   C137  A    
C143  O33   A    
C105  C127  A    
C86   C90   A    
C149  C151  S    
C2    C113  A    
C59   C124  A    
Cu10  O29   S    
C128  C145  S    
C114  C155  S    
C103  C107  A    
C17   C134  S    
C11   C25   A    
C86   H77   S    
C96   C127  S    
C64   H92   S    
Cu5   O17   S    
Cu1   O15   S    
C81   C85   A    
C106  H5    S    
C29   C33   A    
C104  C108  A    
C39   C130  A    
C46   C67   S    
C76   C81   A    
C61   O44   S    
C50   C99   S    
C150  O40   A    
C61   H82   S    
C70   H61   S    
C57   C68   S    
C80   O23   A    
C16   C18   A    
Cu10  O38   S    
C91   O34   A    
C27   C31   A    
Cu9   O28   S    
C150  O41   A    
C49   C53   A    
C95   C126  S    
C21   C38   A    
C13   C124  A    
Br3   C59   S    
C144  O30   A    
Br4   C60   S    
C57   H51   S    
C52   H1    S    
C72   H68   S    
Cu3   O42   S    
Cu7   O21   S    
C75   C79   A    
Cu4   O43   S    
C120  C125  A    
C35   H53   S    
Cu10  O35   S    
Cu11  O26   S    
C52   C56   A    
C109  H8    S    
Cu8   O27   S    
C40   C138  A    
C6    O6    A    
C80   O11   A    
C41   C139  A    
C64   O48   S    
C60   C135  A    
C148  C156  A    
C100  O21   A    
Cu3   Cu4   S    
C93   C123  S    
Cu11  O33   S    
C105  H4    S    
C53   C58   A    
C5    O48   S    
C55   C60   A    
C74   H70   S    
C2    C44   A    
C111  C153  S    
C154  O50   A    
C26   H40   S    
C1    C79   S    
C45   C50   A    
C134  O24   A    
C66   H62   S    
C141  O27   A    
C142  O28   A    
C121  C126  A    
C8    H27   S    
C84   C88   A    
C45   C68   S    
C107  H6    S    
C139  H20   S    
C73   C77   A    
C12   H31   S    
Cu1   Cu6   S    
C105  C109  A    
Cu7   O20   S    
C117  H11   S    
Cu4   O8    S    
Cu9   O31   S    
C128  C138  A    
C129  C139  A    
C77   H73   S    
C32   C36   A    
C15   C18   A    
Cu7   O11   S    
Cu5   O34   S    
C118  H13   S    
C140  H21   S    
C143  O29   A    
Cu12  O45   S    
C76   H72   S    
C118  C122  A    
C122  H17   S    
C66   H58   S    
C43   C66   S    
Cu1   O12   S    
C151  O42   A    
C19   C156  A    
C108  H7    S    
C148  C150  S    
Cu6   O18   S    
C44   C67   S    
C31   H46   S    
C11   H30   S    
C50   C54   A    
C63   H88   S    
C54   C59   A    
Cu7   O13   S    
Cu2   O6    S    
C30   C34   A    
Cu12  O5    S    
C120  H15   S    
C134  O22   A    
C145  O37   A    
C41   H38   S    
C85   H76   S    
C65   H52   S    
C70   H65   S    
C28   C133  A    
C84   H75   S    
C74   C96   A    
C89   H56   S    
C63   O47   S    
C90   C95   A    
C138  H19   S    
C4    O47   S    
C35   C66   S    
C21   H25   S    
C109  C114  A    
Br2   C58   S    
C62   H83   S    
C101  H89   S    
C111  C116  A    
C15   H33   S    
C9    C23   A    
C107  C111  A    
C89   C94   A    
C64   H91   S    
C48   C52   A    
