data_mof_unit_51026.cif
_audit_creation_date              2012-12-10T20:27:12-0500
_audit_creation_method            fapswitch 2.2
_symmetry_space_group_name_H-M    P1
_symmetry_Int_Tables_number       1
_space_group_crystal_system       triclinic
_cell_length_a                    10.619862
_cell_length_b                    10.733845
_cell_length_c                    9.872148
_cell_angle_alpha                 89.031585
_cell_angle_beta                  105.077114
_cell_angle_gamma                 90.923412
_cell_volume                      1086.37196322

loop_
_atom_site_label
_atom_site_type_symbol
_atom_type_description
_atom_site_fract_x
_atom_site_fract_y
_atom_site_fract_z
_atom_type_partial_charge
C1    C     C_R   0.503797 0.259910 0.501903 0.886845
C2    C     C_R   0.604020 0.544742 0.100070 -0.134816
C3    C     C_R   0.604554 0.543532 0.956465 -0.136238
C4    C     C_R   0.256150 0.505167 0.440352 0.904955
C5    C     C_R   0.390100 0.466994 0.898240 0.204793
C6    C     C_3   0.323361 0.344535 0.870907 -0.515142
C7    C     C_3   0.332894 0.334353 0.026011 -0.521381
C8    C     C_R   0.501788 0.739881 0.499550 0.861187
C9    C     C_R   0.742507 0.505628 0.559668 0.935814
C10   C     C_2   0.114888 0.531022 0.407571 -0.004344
C11   C     C_2   0.071069 0.574932 0.514419 -0.236557
C12   C     C_R   0.522112 0.128389 0.508052 -0.098294
C13   C     C_2   0.882166 0.526534 0.596245 -0.366336
C14   C     C_2   0.933243 0.586460 0.503455 -0.171254
C15   C     C_R   0.516720 0.060570 0.627864 0.055549
C16   C     C_3   0.018724 0.509715 0.264587 -0.408057
C17   C     C_3   0.071932 0.443203 0.157369 -0.887051
C18   C     C_3   0.275697 0.879555 0.629445 -0.419648
C19   C     C_3   0.171428 0.896855 0.708935 -0.894278
C20   C     C_3   0.464689 0.857954 0.856709 -0.323612
C21   C     C_3   0.612063 0.869599 0.921894 -0.909716
C22   C     C_R   0.547703 0.066860 0.393601 -0.220576
C23   C     C_R   0.545266 0.937782 0.391482 -0.218177
C24   C     C_R   0.515861 0.871455 0.503088 -0.140062
C25   C     C_R   0.509472 0.933623 0.623580 0.100642
C26   C     C_3   0.413287 0.925364 0.712360 0.315940
C27   C     C_3   0.424909 0.067350 0.719235 -0.513755
C28   C     C_R   0.391615 0.462651 0.041448 0.212531
H1    H     H_    0.870998 0.626318 0.407791 0.168433
H2    H     H_    0.943056 0.487409 0.693109 0.148018
H3    H     H_    0.561953 0.117555 0.302820 0.167685
H4    H     H_    0.559135 0.890980 0.300137 0.170079
H5    H     H_    0.334269 0.117945 0.666764 0.188653
H6    H     H_    0.141904 0.504779 0.121147 0.275727
H7    H     H_    0.118025 0.354810 0.203769 0.260139
H8    H     H_    0.990684 0.420474 0.064479 0.241874
H9    H     H_    0.935677 0.451667 0.279926 0.229078
H10   H     H_    0.979494 0.600984 0.219109 0.203613
H11   H     H_    0.191213 0.836465 0.804340 0.250671
H12   H     H_    0.475958 0.101375 0.825022 0.190487
H13   H     H_    0.167626 0.995526 0.739350 0.264919
H14   H     H_    0.074587 0.869812 0.640573 0.261872
H15   H     H_    0.244958 0.930231 0.527120 0.203639
H16   H     H_    0.278724 0.779155 0.605964 0.210689
H17   H     H_    0.666576 0.822700 0.855708 0.267455
H18   H     H_    0.643569 0.968642 0.935069 0.256730
H19   H     H_    0.637068 0.823771 0.026992 0.241199
H20   H     H_    0.413879 0.895513 0.932183 0.198484
H21   H     H_    0.439112 0.757342 0.845190 0.218994
H22   H     H_    0.688674 0.579811 0.176818 0.137142
H23   H     H_    0.689753 0.576935 0.925581 0.152050
H24   H     H_    0.221813 0.353135 0.804229 0.198139
H25   H     H_    0.383971 0.277658 0.834620 0.222883
H26   H     H_    0.235813 0.327294 0.046214 0.207736
H27   H     H_    0.402622 0.262177 0.080918 0.214103
H28   H     H_    0.135624 0.589212 0.618345 0.180312
N1    N     N_R   0.499160 0.499140 0.142600 -0.101935
N2    N     N_R   0.499160 0.499180 0.856960 -0.106462
O1    O     O_R   0.500020 0.316790 0.614700 -0.609886
O2    O     O_R   0.500000 0.316760 0.385350 -0.618387
O3    O     O_R   0.317820 0.500020 0.571850 -0.636265
O4    O     O_R   0.317800 0.499980 0.342510 -0.593735
O5    O     O_R   0.500000 0.683240 0.614650 -0.627938
O6    O     O_R   0.499980 0.683210 0.385300 -0.620297
O7    O     O_R   0.682200 0.500020 0.657490 -0.613598
O8    O     O_R   0.682180 0.499980 0.428150 -0.615387
Zn1   Zn    Zn3+2 0.500010 0.500020 0.653140 0.922287
Zn2   Zn    Zn3+2 0.499990 0.499980 0.346860 0.931839

loop_
_geom_bond_atom_site_label_1
_geom_bond_atom_site_label_2
_ccdc_geom_bond_type
O8    Zn2   S    
C23   C24   A    
C19   H14   S    
C6    C7    S    
C17   H8    S    
C18   H16   S    
C5    C28   A    
C2    H22   S    
O3    Zn1   S    
C15   C27   S    
C18   C26   S    
C12   C15   A    
O4    Zn2   S    
C16   H9    S    
C9    O8    A    
O1    Zn1   S    
C23   H4    S    
C9    O7    A    
C2    C3    A    
C2    N1    A    
N2    Zn1   S    
C10   C16   S    
C18   H15   S    
C24   C25   A    
C27   H12   S    
C26   C27   S    
C20   H20   S    
C1    C12   S    
C20   C26   S    
C5    N2    A    
C8    O6    A    
C20   H21   S    
C7    H27   S    
O6    Zn2   S    
N1    Zn2   S    
C8    C24   S    
C18   C19   S    
C21   H17   S    
C10   C11   D    
C1    O1    A    
C5    C6    S    
C11   C14   S    
O5    Zn1   S    
C6    H25   S    
C15   C25   A    
O7    Zn1   S    
C17   H6    S    
C11   H28   S    
C8    O5    A    
C4    C10   S    
C3    N2    A    
C4    O4    A    
C13   H2    S    
C12   C22   A    
C20   C21   S    
O2    Zn2   S    
C19   H11   S    
C21   H18   S    
C22   H3    S    
C1    O2    A    
C3    H23   S    
C22   C23   A    
C16   C17   S    
C9    C13   S    
C17   H7    S    
C7    H26   S    
C6    H24   S    
C25   C26   S    
C13   C14   D    
C4    O3    A    
C27   H5    S    
C7    C28   S    
C19   H13   S    
C16   H10   S    
C14   H1    S    
C21   H19   S    
C28   N1    A    
