data_mof_unit_34444.cif
_audit_creation_date              2013-03-05T15:59:35-0500
_audit_creation_method            fapswitch 2.2
_symmetry_space_group_name_H-M    P1
_symmetry_Int_Tables_number       1
_space_group_crystal_system       triclinic
_cell_length_a                    8.255999
_cell_length_b                    12.735642
_cell_length_c                    17.321258
_cell_angle_alpha                 99.425918
_cell_angle_beta                  97.100662
_cell_angle_gamma                 98.946319
_cell_volume                      1753.91247823

loop_
_atom_site_label
_atom_site_type_symbol
_atom_site_description
_atom_site_fract_x
_atom_site_fract_y
_atom_site_fract_z
_atom_type_partial_charge
P1    P     P_3+3 0.996360 0.395990 0.320310 0.539361
O1    O     O_2   0.825360 0.427200 0.308020 -0.270010
O2    O     O_3   0.099050 0.435020 0.406000 -0.370742
O3    O     O_3   0.623690 0.628090 0.355970 -0.373446
O4    O     O_2   0.737069 0.557745 0.224108 -0.373284
O5    O     O_3   0.956699 0.254833 0.295872 -0.618903
O6    O     O_3   0.575009 0.712612 0.212727 -0.545284
H1    H     H_    0.698483 0.813788 0.316594 0.173077
C1    C     C_3   0.578957 0.901715 0.237657 -0.931917
H2    H     H_    0.578635 0.972510 0.284506 0.255726
H3    H     H_    0.689396 0.916890 0.207795 0.267674
P2    P     P_3+3 0.688190 0.753610 0.561600 0.597859
P3    P     P_3+3 0.105656 0.824460 0.397672 0.588856
O7    O     O_2   0.857620 0.767930 0.537920 -0.255090
O8    O     O_3   0.055170 0.686660 0.395490 -0.275975
O9    O     O_2   0.002742 0.880046 0.455027 -0.281464
O10   O     O_3   0.710394 0.809524 0.663467 -0.710491
O11   O     O_3   0.025460 0.847944 0.305196 -0.513103
C2    C     C_3   0.128607 0.815084 0.250946 0.318369
H4    H     H_    0.152619 0.731887 0.253565 0.093019
H5    H     H_    0.246853 0.873793 0.263233 0.064260
C3    C     C_3   0.045054 0.814819 0.167639 -0.872253
H6    H     H_    0.925128 0.757180 0.154058 0.283357
H7    H     H_    0.021774 0.897158 0.162417 0.246941
C4    C     C_3   0.297890 0.785449 0.637506 1.318707
H8    H     H_    0.396912 0.744989 0.616839 -0.042899
C5    C     C_3   0.361550 0.906140 0.662547 -1.030019
H9    H     H_    0.478041 0.920337 0.705153 0.241613
H10   H     H_    0.386287 0.942763 0.610508 0.206335
H11   H     H_    0.267661 0.946012 0.690872 0.300730
Ba1   Ba    Ba6+2 0.843240 0.548600 0.461650 1.749833
C6    C     C_3   0.927191 0.208730 0.361812 0.161464
H12   H     H_    0.799097 0.213505 0.372028 0.139093
H13   H     H_    0.015842 0.247868 0.416175 0.141292
C7    C     C_3   0.945700 0.090858 0.342672 0.299291
H14   H     H_    0.890125 0.055535 0.280527 0.110964
H15   H     H_    0.078954 0.084575 0.349793 0.076011
C8    C     C_3   0.824623 0.770343 0.712792 1.355196
C9    C     C_3   0.904620 0.861577 0.782287 -0.978905
H16   H     H_    0.970230 0.930642 0.759794 0.239690
H17   H     H_    0.996309 0.832909 0.822687 0.258172
H18   H     H_    0.808638 0.890288 0.815875 0.245016
P4    P     P_3+3 0.193350 0.604100 0.679700 0.609202
O12   O     O_2   0.364350 0.572830 0.692030 -0.334826
O13   O     O_3   0.090660 0.565070 0.594010 -0.293634
O14   O     O_3   0.566030 0.372000 0.644040 -0.315214
O15   O     O_3   0.246518 0.745468 0.702755 -0.576597
P5    P     P_3+3 0.090713 0.174523 0.605408 0.522726
O16   O     O_3   0.601410 0.366560 0.460070 -0.266859
O17   O     O_3   0.134540 0.313430 0.604520 -0.343500
O18   O     O_2   0.206881 0.119820 0.554798 -0.353481
O19   O     O_3   0.154331 0.153129 0.700914 -0.523329
Ba2   Ba    Ba6+2 0.346590 0.451490 0.538360 1.756224
P6    P     P_3+3 0.581755 0.595378 0.252641 0.512953
C10   C     C_3   0.581950 0.800876 0.273792 0.486195
H19   H     H_    0.473040 0.787796 0.304883 -0.020990
H20   H     H_    0.466792 0.890396 0.192547 0.248798
O20   O     O_3   0.588300 0.633530 0.539940 -0.279665
C11   C     C_3   0.392177 0.254593 0.296772 1.209881
H21   H     H_    0.296512 0.286633 0.328843 -0.040935
C12   C     C_3   0.308055 0.197946 0.214064 -1.023789
H22   H     H_    0.211003 0.128869 0.217972 0.213035
H23   H     H_    0.248752 0.255226 0.183184 0.225691
H24   H     H_    0.400703 0.167218 0.179151 0.279003
P7    P     P_3+3 0.507324 0.228854 0.436600 0.492560
O21   O     O_2   0.332090 0.232110 0.462130 -0.416390
O22   O     O_3   0.466038 0.180640 0.334258 -0.655582
H25   H     H_    0.126397 0.789612 0.124181 0.225532
C13   C     C_3   0.125996 0.239865 0.755905 0.445917
H26   H     H_    0.209486 0.315808 0.752652 0.141234
H27   H     H_    0.995176 0.251295 0.745045 -0.028593
C14   C     C_3   0.162144 0.216493 0.839100 -0.868035
H28   H     H_    0.294582 0.210284 0.853361 0.316566
H29   H     H_    0.134612 0.282828 0.882850 0.207614
H30   H     H_    0.084396 0.139095 0.843766 0.248827
P8    P     P_3+3 0.607325 0.385273 0.746632 0.548746
C15   C     C_3   0.620182 0.182352 0.742279 0.260871
H31   H     H_    0.706936 0.207292 0.701568 -0.044149
O23   O     O_2   0.497650 0.462800 0.782233 -0.334320
O24   O     O_3   0.530330 0.261567 0.771256 -0.515972
H32   H     H_    0.530091 0.112367 0.707194 0.128720
H33   H     H_    0.815503 0.214884 0.842524 0.106022
C16   C     C_3   0.715898 0.146734 0.811727 -0.122460
H34   H     H_    0.774280 0.077307 0.789156 0.074142
C17   C     C_2   0.267504 0.500658 0.273097 -0.460344
C18   C     C_3   0.391353 0.491285 0.215853 0.346735
C19   C     C_2   0.315162 0.497868 0.133067 -0.273861
C20   C     C_2   0.148035 0.479675 0.112409 0.102884
C21   C     C_2   0.041902 0.454146 0.174168 -0.244633
C22   C     C_1   0.110198 0.456909 0.248441 0.261340
C23   C     C_R   0.894394 0.456834 0.861320 -0.259413
C24   C     C_R   0.828500 0.441176 0.781351 0.247862
C25   C     C_R   0.084260 0.539196 0.752932 0.244485
C26   C     C_R   0.151949 0.554532 0.833893 -0.270790
C27   C     C_R   0.059692 0.510059 0.888732 0.124499
C28   C     C_2   0.066096 0.475675 0.029399 -0.141248
C29   C     C_2   0.139132 0.520675 0.973353 -0.155677
C30   C     C_R   0.926917 0.476464 0.727135 -0.351609
H35   H     H_    0.264559 0.566302 0.989284 0.147397
H36   H     H_    0.909013 0.428380 0.156665 0.176583
H37   H     H_    0.813903 0.427706 0.900672 0.149062
H38   H     H_    0.939351 0.432900 0.015602 0.144763
H39   H     H_    0.397350 0.508907 0.089702 0.154782
H40   H     H_    0.276106 0.600467 0.853936 0.175532
H41   H     H_    0.310977 0.533052 0.335396 0.218075
H42   H     H_    0.875767 0.462189 0.665019 0.213639
C31   C     C_R   0.771477 0.182403 0.533399 0.395199
C32   C     C_R   0.426028 0.804222 0.463036 0.422135
C33   C     C_R   0.392058 0.982150 0.440712 -0.289609
C34   C     C_R   0.327699 0.873429 0.434055 0.030657
C35   C     C_R   0.584593 0.845217 0.506444 0.039594
C36   C     C_R   0.649302 0.958584 0.516793 -0.077632
C37   C     C_R   0.551844 0.026795 0.481710 -0.065447
C38   C     C_R   0.614434 0.138833 0.490424 0.125475
C39   C     C_R   0.871377 0.116277 0.565003 0.082561
C40   C     C_R   0.808369 0.006261 0.559968 -0.173985
H43   H     H_    0.312143 0.031413 0.416006 0.195990
H44   H     H_    0.887741 0.959316 0.588032 0.197425
F1    F     F_    0.866890 0.032667 0.391932 -0.702426
F2    F     F_    0.947703 0.738745 0.674109 -0.682539
N1    N     N_R   0.738429 0.677875 0.739348 0.175285
O25   O     O_R   0.673321 0.592830 0.686388 -0.368939
O26   O     O_R   0.721166 0.679189 0.813205 -0.436482
F3    F     F_    0.513596 0.338794 0.290809 -0.698227
N2    N     N_R   0.606949 0.115777 0.867624 0.290760
O27   O     O_R   0.487117 0.032605 0.846332 -0.376748
O28   O     O_R   0.632420 0.169450 0.940024 -0.373096
F4    F     F_    0.831216 0.289429 0.540450 -0.692086
F5    F     F_    0.361955 0.697575 0.453970 -0.671078
F6    F     F_    0.167987 0.769164 0.576235 -0.627116

loop_
_geom_bond_atom_site_label_1
_geom_bond_atom_site_label_2
_geom_bond_distance
_ccdc_geom_bond_type
O5    C6    1.397350 S    
C10   H19   1.108496 S    
C20   C28   1.500807 S    
C25   C26   1.414079 A    
C28   H38   1.080316 S    
C5    H10   1.106945 S    
P7    C38   1.851254 S    
C7    F1    1.376588 S    
C2    H4    1.114849 S    
P8    O23   1.546518 D    
O6    C10   1.400423 S    
O7    Ba1   2.865542 S    
C19   C20   1.355331 D    
O14   P8    1.742561 S    
C33   H43   1.076548 S    
C9    H17   1.111173 S    
C15   H31   1.112937 S    
P1    C22   1.847632 S    
O16   P7    1.763261 S    
P3    O11   1.746388 S    
Ba1   O20   2.893490 S    
C7    H15   1.108606 S    
C23   H37   1.077946 S    
C31   F4    1.355563 S    
O11   C2    1.401149 S    
C8    C9    1.530323 S    
C15   C16   1.527256 S    
C39   C40   1.401230 A    
P1    Ba1   3.367494 S    
C12   H23   1.110005 S    
P1    O1    1.524587 D    
C13   H27   1.109377 S    
O19   C13   1.404649 S    
C11   O22   1.400551 S    
O12   Ba2   2.824937 S    
P4    Ba2   3.368042 S    
P5    O18   1.545742 D    
C35   C36   1.433087 A    
C40   H44   1.077718 S    
P7    O22   1.750629 S    
P2    O10   1.766889 S    
C1    C10   1.520206 S    
C1    H2    1.110433 S    
C4    O15   1.398692 S    
C12   H22   1.110959 S    
C33   C37   1.403821 A    
P2    O20   1.582068 S    
P5    O17   1.752704 S    
O13   Ba2   2.912659 S    
C11   H21   1.110561 S    
C5    H11   1.110978 S    
C26   C27   1.422722 A    
Ba1   O16   2.808555 S    
C14   H30   1.110095 S    
C17   H41   1.084357 S    
C4    F6    1.377274 S    
H1    C10   1.112137 S    
C36   C37   1.428555 A    
C29   H35   1.084349 S    
C9    H18   1.111099 S    
C11   C12   1.521465 S    
O17   Ba2   2.769172 S    
C21   H36   1.084669 S    
C24   C30   1.399059 A    
P1    O5    1.746884 S    
O3    Ba1   2.831709 S    
C6    C7    1.519091 S    
O4    P6    1.545447 D    
C2    C3    1.519749 S    
C14   H29   1.110065 S    
C16   N2    1.460119 S    
C23   C24   1.394243 A    
P6    C18   1.860668 S    
C18   C19   1.513846 S    
C4    H8    1.097705 S    
C17   C18   1.514174 S    
C23   C27   1.412091 A    
O1    Ba1   2.824498 S    
P1    O2    1.576405 S    
C7    H14   1.107559 S    
C6    H13   1.110503 S    
C12   H24   1.110795 S    
P4    O12   1.524960 D    
C31   C38   1.394769 A    
P3    C34   1.837587 S    
C1    H3    1.109396 S    
C16   H34   1.110349 S    
C15   H32   1.105265 S    
Ba2   O20   2.807981 S    
C31   C39   1.394470 A    
C28   C29   1.361603 D    
C32   F5    1.354769 S    
Ba1   Ba2   4.518387 S    
O2    Ba1   2.911825 S    
Ba2   O21   2.865740 S    
P4    O13   1.576406 S    
C3    H25   1.110667 S    
N1    O25   1.294264 A    
P8    C24   1.840338 S    
P5    C39   1.848798 S    
C19   H39   1.084123 S    
P2    O7    1.498393 D    
P7    O21   1.568793 D    
P3    O8    1.732617 S    
P2    Ba1   3.399955 S    
N2    O27   1.301044 A    
C3    H7    1.110950 S    
C36   C40   1.418821 A    
C13   C14   1.521869 S    
C37   C38   1.416557 A    
C15   O24   1.406752 S    
C11   F3    1.375878 S    
O3    P6    1.747715 S    
P8    O24   1.744640 S    
C14   H28   1.108751 S    
C17   C22   1.318858 D    
C27   C29   1.505545 S    
O8    Ba1   2.768596 S    
C4    C5    1.516901 S    
C30   H42   1.081075 S    
C32   C35   1.402569 A    
C6    H12   1.102798 S    
C8    F2    1.360384 S    
C33   C34   1.384393 A    
O2    Ba2   2.833315 S    
O16   Ba2   2.892657 S    
O14   Ba2   2.831150 S    
P4    C25   1.870233 S    
C32   C34   1.398065 A    
C1    H20   1.109751 S    
O10   C8    1.398271 S    
C13   H26   1.110796 S    
N1    O26   1.302313 A    
C8    N1    1.450004 S    
C26   H40   1.082807 S    
C9    H16   1.111359 S    
P5    O19   1.750461 S    
C20   C21   1.508278 S    
H33   C16   1.109964 S    
Ba1   O13   2.832708 S    
P3    O9    1.541243 D    
C5    H9    1.108609 S    
N2    O28   1.301332 A    
C3    H6    1.110997 S    
O6    P6    1.750643 S    
C21   C22   1.331880 D    
P4    O15   1.751855 S    
C25   C30   1.393627 A    
P2    C35   1.865158 S    
C2    H5    1.107640 S    
