data_mof_unit_20284.cif
_audit_creation_date              2012-12-10T18:32:54-0500
_audit_creation_method            fapswitch 2.2
_symmetry_space_group_name_H-M    P1
_symmetry_Int_Tables_number       1
_space_group_crystal_system       triclinic
_cell_length_a                    15.107832
_cell_length_b                    15.206753
_cell_length_c                    15.761058
_cell_angle_alpha                 91.458371
_cell_angle_beta                  105.06992
_cell_angle_gamma                 81.091753
_cell_volume                      3453.84298261

loop_
_atom_site_label
_atom_site_type_symbol
_atom_type_description
_atom_site_fract_x
_atom_site_fract_y
_atom_site_fract_z
_atom_type_partial_charge
C1    C     C_R   0.440989 0.663145 0.483411 0.856225
C2    C     C_R   0.595603 0.241346 0.506008 -0.146520
C3    C     C_R   0.286517 0.875810 0.375842 -0.198580
C4    C     C_R   0.501423 0.500841 0.661506 0.903512
C5    C     C_R   0.310595 0.788054 0.409041 0.182148
C6    C     C_R   0.470486 0.813154 0.460272 -0.292746
C7    C     C_R   0.448510 0.896397 0.418605 0.070500
C8    C     C_R   0.354171 0.931363 0.382001 0.097950
C9    C     C_R   0.518690 0.949007 0.421547 0.004902
C10   C     C_R   0.492601 0.041491 0.415444 0.011425
C11   C     C_R   0.399189 0.076224 0.374332 -0.195696
C12   C     C_3   0.389088 0.510121 0.020596 0.345154
C13   C     C_R   0.330302 0.021530 0.354570 0.187025
C14   C     C_R   0.613383 0.913278 0.430487 0.053726
C15   C     C_R   0.682398 0.968603 0.460693 0.430292
C16   C     C_R   0.558776 0.336680 0.510875 0.905007
C17   C     C_R   0.655828 0.059498 0.478745 0.010403
C18   C     C_R   0.560107 0.095993 0.452508 -0.010410
C19   C     C_R   0.721354 0.115477 0.522116 0.102649
C20   C     C_R   0.691148 0.208015 0.529010 0.414809
C21   C     C_R   0.532180 0.184417 0.471518 -0.330868
C22   C     C_R   0.853989 0.594191 0.663373 -0.317319
C23   C     C_3   0.493241 0.510908 0.081968 0.177947
C24   C     C_R   0.760226 0.592967 0.626992 0.014620
C25   C     C_R   0.790546 0.520311 0.500255 -0.043556
C26   C     C_R   0.884867 0.529380 0.528721 0.025469
C27   C     C_R   0.917027 0.557727 0.616191 0.186694
C28   C     C_R   0.498302 0.499827 0.338494 0.896822
C29   C     C_R   0.949454 0.502137 0.477933 -0.036683
C30   C     C_R   0.046011 0.489540 0.521438 0.056843
C31   C     C_R   0.073056 0.499338 0.613376 -0.201430
C32   C     C_R   0.011003 0.540558 0.658353 -0.217462
C33   C     C_R   0.922355 0.485615 0.386255 0.118532
C34   C     C_3   0.554189 0.422749 0.059864 -0.039623
C35   C     C_R   0.985769 0.434049 0.347487 0.437908
C36   C     C_R   0.081637 0.426525 0.388874 -0.070523
C37   C     C_R   0.112467 0.464477 0.472088 -0.058568
C38   C     C_R   0.146680 0.390259 0.344350 -0.280310
C39   C     C_R   0.239899 0.397544 0.377335 0.311813
C40   C     C_3   0.394696 0.510770 0.921155 -0.024067
C41   C     C_R   0.206535 0.481491 0.498555 0.268207
C42   C     C_3   0.534429 0.601429 0.961402 0.358739
C43   C     C_3   0.538461 0.596932 0.065083 0.377062
C44   C     C_1   0.493671 0.502331 0.248861 -0.215764
C45   C     C_3   0.561186 0.428900 0.964364 -0.462941
C46   C     C_3   0.497882 0.513499 0.916708 0.153568
C47   C     C_3   0.317558 0.591040 0.036036 -0.906882
C48   C     C_3   0.348696 0.437466 0.863104 -0.909031
C49   C     C_3   0.347004 0.427411 0.043315 -0.845669
C50   C     C_3   0.648741 0.387054 0.125537 -0.879543
C51   C     C_3   0.231942 0.062192 0.309991 -0.940627
C52   C     C_3   0.234457 0.731658 0.396082 -0.860392
C53   C     C_3   0.639745 0.822635 0.393543 -0.913930
C54   C     C_3   0.820130 0.077121 0.569735 -0.808109
C55   C     C_3   0.234433 0.549040 0.568546 -0.858380
C56   C     C_1   0.492175 0.505952 0.173457 -0.043100
C57   C     C_3   0.302730 0.358639 0.321342 -0.841386
C58   C     C_3   0.630868 0.609779 0.944392 -0.861061
C59   C     C_3   0.832077 0.529005 0.325130 -0.846901
C60   C     C_3   0.471009 0.686711 0.913587 -0.925707
C61   C     C_3   0.492075 0.685617 0.099519 -0.889746
C62   C     C_3   0.640485 0.590098 0.124735 -0.850681
C63   C     C_1   0.501827 0.509561 0.825627 -0.020485
C64   C     C_1   0.503218 0.505430 0.750713 -0.210086
C65   C     C_R   0.404551 0.756532 0.453496 -0.090529
H1    H     H_    0.459471 0.209984 0.460806 0.187908
H2    H     H_    0.142512 0.475569 0.651650 0.160187
H3    H     H_    0.125571 0.359933 0.280904 0.169755
H4    H     H_    0.541061 0.367786 0.929191 0.181445
H5    H     H_    0.633788 0.427546 0.961489 0.196507
H6    H     H_    0.516652 0.366728 0.061777 0.185076
H7    H     H_    0.245187 0.576617 0.016921 0.243225
H8    H     H_    0.331797 0.609962 0.106196 0.254081
H9    H     H_    0.312095 0.649665 0.994478 0.206301
H10   H     H_    0.386248 0.369652 0.882933 0.249704
H11   H     H_    0.275473 0.441130 0.865542 0.246607
H12   H     H_    0.214335 0.900365 0.345293 0.157041
H13   H     H_    0.345694 0.447829 0.792918 0.242553
H14   H     H_    0.377484 0.362216 0.022910 0.213605
H15   H     H_    0.352028 0.423077 0.114620 0.237328
H16   H     H_    0.272053 0.432112 0.009642 0.237172
H17   H     H_    0.655659 0.313744 0.134456 0.235523
H18   H     H_    0.709471 0.396931 0.101806 0.254159
H19   H     H_    0.655666 0.415972 0.191694 0.255883
H20   H     H_    0.226725 0.133387 0.292228 0.240046
H21   H     H_    0.206315 0.026085 0.248558 0.243581
H22   H     H_    0.186564 0.058325 0.354588 0.245056
H23   H     H_    0.540679 0.792211 0.499138 0.193344
H24   H     H_    0.810558 0.245700 0.540958 0.333315
H25   H     H_    0.787135 0.871843 0.479016 0.344132
H26   H     H_    0.249413 0.672237 0.356788 0.259407
H27   H     H_    0.227439 0.711688 0.460801 0.242621
H28   H     H_    0.166085 0.768383 0.360054 0.224637
H29   H     H_    0.677096 0.774481 0.447563 0.234431
H30   H     H_    0.578618 0.795667 0.352624 0.256796
H31   H     H_    0.685114 0.828184 0.349260 0.258046
H32   H     H_    0.852712 0.122054 0.620965 0.228086
H33   H     H_    0.821114 0.015275 0.606145 0.258107
H34   H     H_    0.351535 0.571663 0.887350 0.168265
H35   H     H_    0.863318 0.063742 0.522255 0.269992
H36   H     H_    0.174845 0.600048 0.572832 0.216484
H37   H     H_    0.268170 0.515805 0.633142 0.230444
H38   H     H_    0.282491 0.588601 0.553317 0.276990
H39   H     H_    0.373721 0.334749 0.359428 0.266710
H40   H     H_    0.277950 0.299023 0.286566 0.186896
H41   H     H_    0.301825 0.407975 0.270344 0.244075
H42   H     H_    0.984769 0.339800 0.263360 0.322671
H43   H     H_    0.625229 0.617857 0.873219 0.240255
H44   H     H_    0.657342 0.669895 0.976264 0.239764
H45   H     H_    0.379169 0.145720 0.355399 0.146607
H46   H     H_    0.685144 0.551814 0.967275 0.221699
H47   H     H_    0.784173 0.479484 0.304140 0.243727
H48   H     H_    0.798629 0.587557 0.354829 0.221259
H49   H     H_    0.845699 0.555342 0.265389 0.267564
H50   H     H_    0.399550 0.696236 0.920207 0.214143
H51   H     H_    0.500278 0.747776 0.939053 0.255054
H52   H     H_    0.465737 0.685559 0.841953 0.241883
H53   H     H_    0.491764 0.678939 0.169442 0.243567
H54   H     H_    0.531300 0.740970 0.096112 0.240529
H55   H     H_    0.421281 0.711760 0.063258 0.236991
H56   H     H_    0.035798 0.553474 0.727796 0.142600
H57   H     H_    0.690321 0.538866 0.104963 0.248330
H58   H     H_    0.669286 0.652872 0.123533 0.232521
H59   H     H_    0.643831 0.577647 0.194664 0.245213
H60   H     H_    0.877248 0.618638 0.729378 0.145605
H61   H     H_    0.710877 0.616807 0.664426 0.136400
H62   H     H_    0.764106 0.481851 0.443592 0.157103
N1    N     N_R   0.731690 0.552720 0.548990 -0.102307
N2    N     N_R   0.268300 0.447240 0.450950 -0.097929
O1    O     O_R   0.383120 0.605620 0.475300 -0.620231
O2    O     O_3   0.774841 0.936817 0.467484 -0.782592
O3    O     O_3   0.952775 0.401625 0.264518 -0.771301
O4    O     O_R   0.531890 0.639510 0.506740 -0.618128
O5    O     O_R   0.425580 0.483050 0.607130 -0.611401
O6    O     O_R   0.574360 0.516930 0.638570 -0.612962
O7    O     O_R   0.468110 0.360490 0.493260 -0.636219
O8    O     O_R   0.616880 0.394380 0.524700 -0.536860
O9    O     O_R   0.425640 0.483070 0.361430 -0.615681
O10   O     O_R   0.574420 0.516950 0.392870 -0.619370
O11   O     O_3   0.753409 0.266325 0.560118 -0.753808
Zn1   Zn    Zn3+2 0.400660 0.477370 0.479010 0.922422
Zn2   Zn    Zn3+2 0.599340 0.522630 0.520990 0.962721

loop_
_geom_bond_atom_site_label_1
_geom_bond_atom_site_label_2
_ccdc_geom_bond_type
C57   H40   S    
O8    Zn2   S    
C8    C13   A    
C55   H38   S    
C21   H1    S    
C53   H30   S    
C58   H44   S    
C48   H11   S    
C35   C36   A    
C51   H20   S    
C40   H34   S    
C62   H59   S    
C12   C49   S    
C50   H19   S    
C23   C56   S    
C45   C46   S    
C31   H2    S    
C55   H37   S    
C43   C61   S    
O4    Zn2   S    
C61   H53   S    
C36   C37   A    
C25   N1    A    
C61   H54   S    
C30   C31   A    
O10   Zn2   S    
N2    Zn1   S    
C48   H13   S    
C18   C21   A    
C29   C33   A    
C6    H23   S    
C15   C17   A    
C42   C46   S    
C49   H16   S    
O1    Zn1   S    
C41   C55   S    
C42   C58   S    
C17   C19   A    
C13   C51   S    
O6    Zn2   S    
C16   O8    A    
C52   H26   S    
C1    C65   S    
C5    C52   S    
C3    H12   S    
C2    C16   S    
C9    C10   A    
H24   O11   S    
C57   H41   S    
C53   H29   S    
C33   C59   S    
C11   H45   S    
C24   H61   S    
C48   H10   S    
C54   H35   S    
C28   O10   A    
C12   C47   S    
C1    O4    A    
C51   H21   S    
C62   H58   S    
C50   H18   S    
C59   H47   S    
C6    C65   A    
C34   C50   S    
C2    C20   A    
C58   H46   S    
C7    C8    A    
C28   O9    A    
C47   H8    S    
C5    C65   A    
C1    O1    A    
C42   C60   S    
C22   H60   S    
C39   N2    A    
C25   C26   A    
C45   H4    S    
C28   C44   S    
C49   H14   S    
C30   C37   A    
C12   C40   S    
C40   C46   S    
C9    C14   A    
C29   C30   A    
C44   C56   T    
C31   C32   A    
C12   C23   S    
C59   H48   S    
C23   C34   S    
C2    C21   A    
C17   C18   A    
C26   C27   A    
C60   H52   S    
C54   H32   S    
C34   C45   S    
C4    O6    A    
H25   O2    S    
C19   C54   S    
C38   H3    S    
C3    C8    A    
C22   C27   A    
C22   C24   A    
C60   H51   S    
C42   C43   S    
C51   H22   S    
C16   O7    A    
C62   H57   S    
C50   H17   S    
C4    O5    A    
C40   C48   S    
C57   H39   S    
C55   H36   S    
C45   H5    S    
C23   C43   S    
C32   H56   S    
C47   H9    S    
H42   O3    S    
C3    C5    A    
O9    Zn1   S    
C6    C7    A    
C4    C64   S    
C49   H15   S    
C52   H28   S    
C46   C63   S    
C20   O11   S    
C19   C20   A    
C36   C38   A    
C25   H62   S    
O5    Zn1   S    
C41   N2    A    
C11   C13   A    
C38   C39   A    
C10   C18   A    
C59   H49   S    
C34   H6    S    
C33   C35   A    
O7    Zn1   S    
C58   H43   S    
C37   C41   A    
C47   H7    S    
C52   H27   S    
C10   C11   A    
C27   C32   A    
C63   C64   T    
C7    C9    A    
C14   C53   S    
C15   O2    S    
C26   C29   A    
C24   N1    A    
C14   C15   A    
C54   H33   S    
C60   H50   S    
C53   H31   S    
N1    Zn2   S    
C35   O3    S    
C43   C62   S    
C61   H55   S    
C39   C57   S    
