data_mof_unit_25977.cif
_audit_creation_date              2012-12-11T15:09:03-0500
_audit_creation_method            fapswitch 2.2
_symmetry_space_group_name_H-M    P1
_symmetry_Int_Tables_number       1
_space_group_crystal_system       triclinic
_cell_length_a                    25.94136
_cell_length_b                    27.479732
_cell_length_c                    8.640906
_cell_angle_alpha                 90.041684
_cell_angle_beta                  96.255198
_cell_angle_gamma                 89.878642
_cell_volume                      6123.08330016

loop_
_atom_site_label
_atom_site_type_symbol
_atom_type_description
_atom_site_fract_x
_atom_site_fract_y
_atom_site_fract_z
_atom_type_partial_charge
Ba1   Ba    Ba6+2 0.999910 0.465960 0.844870 1.619751
Ba2   Ba    Ba6+2 0.999910 0.534040 0.344870 1.620858
Ba3   Ba    Ba6+2 0.499910 0.965960 0.844870 1.619754
Ba4   Ba    Ba6+2 0.499910 0.034040 0.344870 1.620861
C1    C     C_3   0.042456 0.240001 0.685188 -0.128263
C2    C     C_R   0.850000 0.644943 0.593338 -0.167436
C3    C     C_3   0.490863 0.225693 0.014279 0.304925
C4    C     C_R   0.920010 0.379782 0.282803 -0.241284
C5    C     C_R   0.919440 0.618980 0.786380 -0.268166
C6    C     C_R   0.420010 0.879784 0.282807 -0.241283
C7    C     C_R   0.419442 0.118981 0.786377 -0.268143
C8    C     C_R   0.348612 0.856036 0.094005 -0.138882
C9    C     C_R   0.350003 0.144945 0.593335 -0.167349
C10   C     C_R   0.836639 0.316809 0.190197 -0.004837
C11   C     C_R   0.836226 0.682606 0.693541 -0.010511
C12   C     C_R   0.336639 0.816809 0.190201 -0.004863
C13   C     C_R   0.336229 0.182607 0.693542 -0.010675
C14   C     C_R   0.864306 0.312872 0.339749 -0.099280
C15   C     C_R   0.862130 0.684631 0.845431 -0.113542
C16   C     C_R   0.364304 0.812873 0.339753 -0.099291
C17   C     C_3   0.022833 0.771117 0.060330 -0.114245
C18   C     C_R   0.362129 0.184629 0.845436 -0.113832
C19   C     C_R   0.905204 0.344744 0.387368 0.017916
C20   C     C_R   0.903222 0.652921 0.891973 -0.032286
C21   C     C_R   0.405203 0.844745 0.387371 0.017909
C22   C     C_R   0.403222 0.152920 0.891974 -0.032206
C23   C     C_R   0.797923 0.231311 0.163074 0.144637
C24   C     C_R   0.796813 0.768396 0.678522 0.154876
C25   C     C_R   0.297920 0.731313 0.163090 0.144619
C26   C     C_R   0.296826 0.268404 0.678496 0.155098
C27   C     C_R   0.256001 0.700175 0.115589 -0.125558
C28   C     C_3   0.542438 0.739995 0.685201 -0.128244
C29   C     C_R   0.255794 0.300075 0.625008 -0.101411
C30   C     C_R   0.756004 0.200173 0.115574 -0.125571
C31   C     C_R   0.755783 0.800068 0.625044 -0.101622
C32   C     C_R   0.208462 0.718022 0.043087 0.033656
C33   C     C_R   0.210187 0.283203 0.538648 0.012743
C34   C     C_R   0.708464 0.218021 0.043081 0.033659
C35   C     C_R   0.710177 0.783196 0.538673 0.012820
C36   C     C_R   0.203640 0.769371 0.019677 0.156728
C37   C     C_R   0.206238 0.232369 0.506804 0.154612
C38   C     C_R   0.703640 0.269370 0.019680 0.156732
C39   C     C_3   0.522832 0.271115 0.060313 -0.114252
C40   C     C_R   0.706230 0.732363 0.506816 0.154627
C41   C     C_R   0.745995 0.300085 0.066023 -0.104861
C42   C     C_R   0.747446 0.701002 0.558097 -0.081331
C43   C     C_R   0.245995 0.800086 0.066020 -0.104858
C44   C     C_R   0.247452 0.201007 0.558097 -0.081244
C45   C     C_3   0.011872 0.275972 0.181864 0.309283
C46   C     C_3   0.986161 0.709958 0.534703 0.306406
C47   C     C_3   0.511876 0.775966 0.181855 0.309247
C48   C     C_3   0.486158 0.209957 0.534667 0.306403
C49   C     C_R   0.793211 0.282091 0.139055 0.048664
C50   C     C_R   0.889449 0.388341 0.141429 0.124988
C51   C     C_R   0.793205 0.718001 0.642843 0.024159
C52   C     C_R   0.293210 0.782092 0.139060 0.048656
C53   C     C_R   0.293211 0.218005 0.642843 0.023966
C54   C     C_R   0.140092 0.684063 0.838667 -0.136301
C55   C     C_R   0.141626 0.317389 0.335118 -0.131680
C56   C     C_R   0.640093 0.184062 0.838662 -0.136303
C57   C     C_R   0.641621 0.817385 0.335131 -0.131693
C58   C     C_R   0.100159 0.651202 0.790538 0.010138
C59   C     C_R   0.101111 0.349795 0.288642 -0.002714
C60   C     C_R   0.600160 0.151202 0.790535 0.010150
C61   C     C_R   0.890634 0.612185 0.640728 0.115666
C62   C     C_R   0.601109 0.849793 0.288649 -0.002714
C63   C     C_R   0.114648 0.609498 0.039073 0.075461
C64   C     C_R   0.115069 0.390887 0.537959 0.067677
C65   C     C_R   0.614649 0.109497 0.039070 0.075452
C66   C     C_R   0.615066 0.890886 0.537963 0.067685
C67   C     C_R   0.153790 0.643377 0.089141 -0.132140
C68   C     C_R   0.154688 0.357322 0.586776 -0.148405
C69   C     C_R   0.653792 0.143376 0.089136 -0.132141
C70   C     C_R   0.654682 0.857319 0.586788 -0.148398
C71   C     C_R   0.166099 0.682080 0.990921 -0.019567
C72   C     C_R   0.389449 0.888341 0.141431 0.124989
C73   C     C_R   0.167748 0.319194 0.486964 -0.012006
C74   C     C_R   0.666101 0.182079 0.990915 -0.019563
C75   C     C_R   0.667740 0.819189 0.486981 -0.012009
C76   C     C_R   0.086585 0.615234 0.892575 -0.279450
C77   C     C_R   0.087013 0.385314 0.391559 -0.279591
C78   C     C_R   0.586585 0.115234 0.892572 -0.279450
C79   C     C_R   0.587011 0.885313 0.391562 -0.279588
C80   C     C_3   0.978510 0.230913 0.141923 -0.105919
C81   C     C_3   0.964164 0.761580 0.510342 -0.137614
C82   C     C_3   0.478524 0.730902 0.141908 -0.105926
C83   C     C_R   0.390636 0.112186 0.640724 0.115683
C84   C     C_3   0.464160 0.261579 0.510315 -0.137635
C85   C     C_3   0.149696 0.470915 0.232981 0.312553
C86   C     C_3   0.148954 0.529338 0.732415 0.313777
C87   C     C_3   0.649694 0.970914 0.232980 0.312564
C88   C     C_3   0.648955 0.029338 0.732414 0.313777
C89   C     C_3   0.199639 0.441428 0.256713 -0.389167
C90   C     C_3   0.198636 0.559021 0.756481 -0.390661
C91   C     C_3   0.699636 0.941426 0.256715 -0.389185
C92   C     C_3   0.698638 0.059020 0.756486 -0.390673
C93   C     C_3   0.821787 0.521505 0.964562 0.529905
C94   C     C_R   0.848611 0.356036 0.094004 -0.138896
C95   C     C_3   0.829494 0.474484 0.469026 0.518664
C96   C     C_3   0.321786 0.021504 0.964556 0.529923
C97   C     C_3   0.329477 0.974492 0.469025 0.518640
C98   C     C_3   0.763096 0.525611 0.902218 -0.022673
C99   C     C_3   0.780873 0.447346 0.514900 -0.071965
C100  C     C_3   0.263097 0.025607 0.902179 -0.022714
C101  C     C_3   0.280851 0.947366 0.514913 -0.071883
C102  C     C_3   0.018787 0.290832 0.656488 0.306534
C103  C     C_3   0.990867 0.725692 0.014295 0.304834
C104  C     C_3   0.518775 0.790827 0.656476 0.306559
H1    H     H_    0.031102 0.314533 0.757640 0.124652
H2    H     H_    0.213118 0.566385 0.642474 0.124665
H3    H     H_    0.310410 0.889095 0.643292 0.214873
H4    H     H_    0.115802 0.269006 0.695651 0.177735
H5    H     H_    0.097862 0.252734 0.868986 0.225551
H6    H     H_    0.086852 0.730993 0.145167 0.184346
H7    H     H_    0.050111 0.749821 0.281737 0.241642
H8    H     H_    0.615786 0.768994 0.695628 0.177718
H9    H     H_    0.597853 0.752727 0.868975 0.225548
H10   H     H_    0.586844 0.230983 0.145150 0.184349
H11   H     H_    0.550111 0.249821 0.281722 0.241629
H12   H     H_    0.961112 0.218967 0.247548 0.088699
H13   H     H_    0.713770 0.933604 0.142448 0.124080
H14   H     H_    0.966336 0.780506 0.624543 0.095414
H15   H     H_    0.461141 0.718941 0.247540 0.088664
H16   H     H_    0.466317 0.280497 0.624526 0.095363
H17   H     H_    0.838557 0.191706 0.331238 0.170582
H18   H     H_    0.858468 0.185609 0.152540 0.194543
H19   H     H_    0.872631 0.786801 0.699692 0.189781
H20   H     H_    0.836560 0.824136 0.796907 0.173165
H21   H     H_    0.338550 0.691709 0.331268 0.170592
H22   H     H_    0.358464 0.685607 0.152577 0.194542
H23   H     H_    0.372760 0.286459 0.700194 0.189590
H24   H     H_    0.713121 0.066384 0.642481 0.124665
H25   H     H_    0.336710 0.324254 0.795978 0.173205
H26   H     H_    0.125868 0.768023 0.939828 0.178790
H27   H     H_    0.146124 0.818431 0.030858 0.189055
H28   H     H_    0.127287 0.227918 0.458535 0.184860
H29   H     H_    0.161911 0.213604 0.307957 0.169261
H30   H     H_    0.625868 0.268021 0.939829 0.178798
H31   H     H_    0.646123 0.318426 0.030879 0.189059
H32   H     H_    0.627279 0.727912 0.458537 0.184858
H33   H     H_    0.661906 0.713599 0.307963 0.169255
H34   H     H_    0.741200 0.338939 0.048315 0.086360
H35   H     H_    0.753445 0.499323 0.806388 0.114295
H36   H     H_    0.743022 0.662471 0.533591 0.087190
H37   H     H_    0.241201 0.838940 0.048305 0.086356
H38   H     H_    0.243026 0.162476 0.533604 0.087201
H39   H     H_    0.853171 0.285955 0.421190 0.099467
H40   H     H_    0.849857 0.710205 0.929447 0.109336
H41   H     H_    0.353169 0.785958 0.421197 0.099469
H42   H     H_    0.349855 0.210200 0.929455 0.109395
H43   H     H_    0.953333 0.250146 0.916603 0.237388
H44   H     H_    0.915431 0.270583 0.048806 0.198854
H45   H     H_    0.909518 0.752072 0.322177 0.229752
H46   H     H_    0.748930 0.473958 0.522800 0.100959
H47   H     H_    0.889963 0.734220 0.491999 0.179230
H48   H     H_    0.453319 0.750177 0.916645 0.237424
H49   H     H_    0.415410 0.770540 0.048920 0.198839
H50   H     H_    0.409539 0.252138 0.322046 0.229761
H51   H     H_    0.389966 0.234181 0.491735 0.179163
H52   H     H_    0.135520 0.477037 0.347859 0.026231
H53   H     H_    0.134570 0.523412 0.847023 0.024437
H54   H     H_    0.635517 0.977036 0.347857 0.026229
H55   H     H_    0.634570 0.023411 0.847021 0.024438
H56   H     H_    0.253467 0.999359 0.806241 0.114341
H57   H     H_    0.248914 0.973989 0.522849 0.100937
H58   H     H_    0.754471 0.562327 0.851519 0.054744
H59   H     H_    0.766889 0.421052 0.421475 0.087239
H60   H     H_    0.254463 0.062336 0.851629 0.054731
H61   H     H_    0.017011 0.696837 0.976511 -0.015863
H62   H     H_    0.266852 0.921075 0.421470 0.087202
H63   H     H_    0.032969 0.306297 0.549903 -0.055427
H64   H     H_    0.961873 0.735647 0.914926 -0.022379
H65   H     H_    0.532948 0.806279 0.549859 -0.055488
H66   H     H_    0.461866 0.235650 0.914921 -0.022545
H67   H     H_    0.040050 0.219861 0.573095 0.098758
H68   H     H_    0.038669 0.785876 0.955747 0.070666
H69   H     H_    0.540024 0.719847 0.573121 0.098756
H70   H     H_    0.538669 0.285873 0.955730 0.070678
H71   H     H_    0.175106 0.639048 0.203174 0.087323
H72   H     H_    0.531106 0.814536 0.757600 0.124627
H73   H     H_    0.175581 0.361412 0.701453 0.086863
H74   H     H_    0.675108 0.139046 0.203168 0.087321
H75   H     H_    0.675573 0.861408 0.701466 0.086850
H76   H     H_    0.261259 0.661347 0.132738 0.072362
H77   H     H_    0.259935 0.338602 0.649615 0.068434
H78   H     H_    0.761263 0.161345 0.132715 0.072361
H79   H     H_    0.759931 0.838595 0.649642 0.068472
H80   H     H_    0.825545 0.362212 0.983616 0.095259
H81   H     H_    0.828121 0.639929 0.480490 0.092947
H82   H     H_    0.325546 0.862212 0.983615 0.095255
H83   H     H_    0.517004 0.196838 0.976481 -0.015870
H84   H     H_    0.328124 0.139933 0.480486 0.092950
H85   H     H_    0.150954 0.711090 0.757084 0.105676
H86   H     H_    0.153220 0.291678 0.250933 0.073003
H87   H     H_    0.650955 0.211090 0.757080 0.105674
H88   H     H_    0.653215 0.791673 0.250949 0.072991
H89   H     H_    0.056495 0.589465 0.853067 0.059972
H90   H     H_    0.056419 0.410782 0.353013 0.061137
H91   H     H_    0.556495 0.089466 0.853066 0.059974
H92   H     H_    0.556419 0.910783 0.353011 0.061135
H93   H     H_    0.019961 0.219151 0.765126 0.136362
H94   H     H_    0.229783 0.462116 0.330481 0.128148
H95   H     H_    0.997402 0.799569 0.103457 0.116581
H96   H     H_    0.519944 0.719154 0.765165 0.136387
H97   H     H_    0.497405 0.299568 0.103444 0.116570
H98   H     H_    0.952270 0.403585 0.318772 0.057492
H99   H     H_    0.950707 0.594197 0.824681 0.066543
H100  H     H_    0.452268 0.903589 0.318782 0.057493
H101  H     H_    0.450710 0.094199 0.824677 0.066533
H102  H     H_    0.986545 0.305585 0.218159 -0.018014
H103  H     H_    0.972787 0.687213 0.432013 0.124094
H104  H     H_    0.486543 0.805576 0.218151 -0.017999
H105  H     H_    0.228719 0.538699 0.831927 0.127846
H106  H     H_    0.472794 0.187216 0.431959 0.124126
H107  H     H_    0.041096 0.266475 0.281097 -0.040431
H108  H     H_    0.971619 0.694381 0.640459 -0.042043
H109  H     H_    0.541101 0.766473 0.281089 -0.040422
H110  H     H_    0.471607 0.194374 0.640400 -0.042063
H111  H     H_    0.003255 0.200774 0.105903 0.110002
H112  H     H_    0.987808 0.782799 0.434560 0.137246
H113  H     H_    0.503274 0.700773 0.105841 0.110046
H114  H     H_    0.487815 0.282805 0.434583 0.137230
H115  H     H_    0.120533 0.450312 0.155173 0.047099
H116  H     H_    0.729780 0.962113 0.330488 0.128148
H117  H     H_    0.119770 0.549716 0.653765 0.048593
H118  H     H_    0.620531 0.950311 0.155170 0.047103
H119  H     H_    0.619772 0.049716 0.653763 0.048592
H120  H     H_    0.193133 0.406579 0.315232 0.069849
H121  H     H_    0.191646 0.594123 0.813244 0.066032
H122  H     H_    0.693129 0.906577 0.315231 0.069844
H123  H     H_    0.691648 0.094122 0.813250 0.066035
H124  H     H_    0.838843 0.563605 0.795137 0.104896
H125  H     H_    0.890824 0.532369 0.876439 0.147988
H126  H     H_    0.791098 0.511279 0.291800 0.176752
H127  H     H_    0.728720 0.038697 0.831933 0.127843
H128  H     H_    0.853330 0.498576 0.275388 0.210120
H129  H     H_    0.338850 0.063608 0.795152 0.104904
H130  H     H_    0.390831 0.032375 0.876476 0.147978
H131  H     H_    0.291079 0.011289 0.291805 0.176748
H132  H     H_    0.353312 0.998585 0.275395 0.210131
H133  H     H_    0.820696 0.592684 0.042329 0.134913
H134  H     H_    0.874762 0.561918 0.100963 0.197806
H135  H     H_    0.905516 0.457908 0.440658 0.143679
H136  H     H_    0.889029 0.446339 0.614275 0.244380
H137  H     H_    0.320682 0.092686 0.042325 0.134926
H138  H     H_    0.213772 0.433605 0.142444 0.124098
H139  H     H_    0.374749 0.061923 0.100983 0.197807
H140  H     H_    0.405493 0.957906 0.440637 0.143643
H141  H     H_    0.389010 0.946337 0.614259 0.244348
H142  H     H_    0.736164 0.482952 0.072519 0.214004
H143  H     H_    0.733499 0.544151 0.105779 0.183734
H144  H     H_    0.810908 0.441917 0.743559 0.231724
H145  H     H_    0.810469 0.389110 0.643340 0.214936
H146  H     H_    0.236182 0.982876 0.072322 0.214077
H147  H     H_    0.233443 0.044058 0.105705 0.183719
H148  H     H_    0.310937 0.941913 0.743543 0.231751
N1    N     N_3   0.851459 0.529715 0.836919 -0.456842
N2    N     N_3   0.789358 0.420584 0.661180 -0.506495
N3    N     N_3   0.228201 0.016862 0.020927 -0.495811
N4    N     N_3   0.289340 0.920596 0.661194 -0.506448
N5    N     N_3   0.096598 0.242212 0.752492 -0.502602
N6    N     N_3   0.065524 0.760505 0.180555 -0.490319
N7    N     N_3   0.596583 0.742202 0.752481 -0.502607
N8    N     N_3   0.565524 0.260499 0.180533 -0.490328
N9    N     N_3   0.845854 0.210741 0.231218 -0.505234
N10   N     N_3   0.842086 0.787648 0.768593 -0.513639
N11   N     N_3   0.345849 0.710742 0.231246 -0.505254
N12   N     N_3   0.819225 0.483936 0.306127 -0.490678
N13   N     N_3   0.342089 0.287653 0.768639 -0.513438
N14   N     N_3   0.156621 0.792298 0.951935 -0.491478
N15   N     N_3   0.160510 0.210572 0.427832 -0.496206
N16   N     N_3   0.656621 0.292297 0.951946 -0.491477
N17   N     N_3   0.660503 0.710567 0.427838 -0.496200
N18   N     N_3   0.936960 0.240688 0.017487 -0.481477
N19   N     N_3   0.910330 0.761213 0.439692 -0.517106
N20   N     N_3   0.436961 0.740675 0.017510 -0.481514
N21   N     N_3   0.410331 0.261215 0.439607 -0.517027
N22   N     N_3   0.351467 0.029718 0.836933 -0.456848
N23   N     N_3   0.319206 0.983945 0.306127 -0.490674
N24   N     N_3   0.834510 0.558801 0.083818 -0.497758
N25   N     N_3   0.875524 0.443840 0.498153 -0.505131
N26   N     N_3   0.334497 0.058802 0.083817 -0.497766
N27   N     N_3   0.375501 0.943838 0.498134 -0.505111
N28   N     N_3   0.728212 0.516936 0.021062 -0.495814
O1    O     O_2   0.898940 0.431940 0.867860 -0.476119
O2    O     O_3   0.040545 0.712332 0.552870 -0.621770
O3    O     O_3   0.536996 0.789624 0.052377 -0.613045
O4    O     O_3   0.540542 0.212334 0.552880 -0.621773
O5    O     O_3   0.058810 0.523750 0.066650 -0.493942
O6    O     O_3   0.058810 0.476250 0.566650 -0.493528
O7    O     O_3   0.558810 0.023750 0.066650 -0.493942
O8    O     O_3   0.558810 0.976250 0.566650 -0.493526
O9    O     O_3   0.941140 0.476130 0.123050 -0.504234
O10   O     O_3   0.941140 0.523870 0.623050 -0.489581
O11   O     O_3   0.441140 0.976130 0.123050 -0.504227
O12   O     O_2   0.898940 0.568060 0.367860 -0.476907
O13   O     O_3   0.441140 0.023870 0.623050 -0.489567
O14   O     O_3   0.982430 0.389880 0.635700 -0.487527
O15   O     O_3   0.982430 0.610120 0.135700 -0.463444
O16   O     O_3   0.482430 0.889880 0.635700 -0.487524
O17   O     O_3   0.482430 0.110120 0.135700 -0.463451
O18   O     O_2   0.895911 0.349272 0.707586 -0.479823
O19   O     O_2   0.895654 0.649554 0.214665 -0.493840
O20   O     O_2   0.395900 0.849288 0.707575 -0.479801
O21   O     O_2   0.395654 0.149554 0.214666 -0.493830
O22   O     O_3   0.830681 0.474052 0.024212 -0.629269
O23   O     O_2   0.398940 0.931940 0.867860 -0.476108
O24   O     O_3   0.834875 0.519580 0.547121 -0.639704
O25   O     O_3   0.330682 0.974053 0.024214 -0.629274
O26   O     O_3   0.334869 0.019588 0.547126 -0.639728
O27   O     O_3   0.964550 0.286634 0.638329 -0.620185
O28   O     O_3   0.965521 0.710419 0.141394 -0.609382
O29   O     O_3   0.464537 0.786638 0.638378 -0.620171
O30   O     O_3   0.465521 0.210418 0.141384 -0.609402
O31   O     O_2   0.100770 0.431440 0.821660 -0.455481
O32   O     O_2   0.100770 0.568560 0.321660 -0.453007
O33   O     O_2   0.600770 0.931440 0.821660 -0.455484
O34   O     O_2   0.398940 0.068060 0.367860 -0.476927
O35   O     O_2   0.600770 0.068560 0.321660 -0.453009
O36   O     O_3   0.017130 0.389790 0.053700 -0.465277
O37   O     O_3   0.017130 0.610210 0.553700 -0.492376
O38   O     O_3   0.517130 0.889790 0.053700 -0.465273
O39   O     O_3   0.517130 0.110210 0.553700 -0.492379
O40   O     O_2   0.103911 0.351493 0.965737 -0.495740
O41   O     O_2   0.105192 0.647545 0.470562 -0.468358
O42   O     O_2   0.603913 0.851494 0.965746 -0.495738
O43   O     O_2   0.605189 0.147548 0.470555 -0.468361
O44   O     O_3   0.160498 0.484878 0.665553 -0.635039
O45   O     O_3   0.160746 0.515248 0.164979 -0.637336
O46   O     O_3   0.660499 0.984877 0.665551 -0.635043
O47   O     O_3   0.660745 0.015247 0.164981 -0.637337
O48   O     O_3   0.036994 0.289624 0.052386 -0.613052
P1    P     P_3+3 0.893960 0.447890 0.040050 0.980160
P2    P     P_3+3 0.066096 0.654024 0.592022 0.944629
P3    P     P_3+3 0.566178 0.846246 0.091531 0.930177
P4    P     P_3+3 0.566094 0.154025 0.592021 0.944624
P5    P     P_3+3 0.935208 0.654902 0.093893 0.922313
P6    P     P_3+3 0.936783 0.343555 0.590995 0.940573
P7    P     P_3+3 0.435208 0.154901 0.093892 0.922317
P8    P     P_3+3 0.436777 0.843560 0.591003 0.940598
P9    P     P_3+3 0.893960 0.552110 0.540050 0.974656
P10   P     P_3+3 0.393960 0.947890 0.040050 0.980171
P11   P     P_3+3 0.393960 0.052110 0.540050 0.974659
P12   P     P_3+3 0.105800 0.447360 0.649510 0.981976
P13   P     P_3+3 0.105800 0.552640 0.149510 0.987299
P14   P     P_3+3 0.605800 0.947360 0.649510 0.981970
P15   P     P_3+3 0.605800 0.052640 0.149510 0.987298
P16   P     P_3+3 0.066178 0.346246 0.091528 0.930169

loop_
_geom_bond_atom_site_label_1
_geom_bond_atom_site_label_2
_ccdc_geom_bond_type
Ba2   P13   S    
C95   C99   S    
C18   H42   S    
C80   N18   S    
H134  N24   S    
H144  N2    S    
H30   N16   S    
C93   O22   S    
Ba1   O10   S    
C64   C77   A    
Ba2   O5    S    
C12   C16   A    
C93   N24   S    
C39   N8    S    
C102  O27   S    
Ba3   O38   S    
C72   P10   S    
C104  O29   S    
C96   C100  S    
C4    C19   A    
C16   H41   S    
C30   H78   S    
H145  N2    S    
C58   P2    S    
C8    C12   A    
C42   C51   A    
C66   C70   A    
H18   N9    S    
C84   N21   S    
C55   H86   S    
C1    N5    S    
C26   N13   S    
O23   P10   D    
O43   P4    D    
O44   P12   S    
C40   C42   A    
O10   P9    S    
Ba1   O14   S    
C5    H99   S    
C77   H90   S    
H50   N21   S    
C34   C74   S    
O20   P8    D    
C38   C41   A    
C64   C68   A    
C104  H65   S    
H132  N23   S    
Ba1   O5    S    
O6    P12   S    
O27   P6    S    
C57   H88   S    
H22   N11   S    
C95   N25   S    
H124  N1    S    
C41   H34   S    
C84   H114  S    
Ba4   O34   S    
H3    N4    S    
C63   P13   S    
C103  H61   S    
H17   N9    S    
C87   O47   S    
O39   P4    S    
O16   P8    S    
C100  H56   S    
C21   P8    S    
C23   C49   A    
O3    P3    S    
C36   N14   S    
C45   H107  S    
C54   H85   S    
C55   C59   A    
C15   H40   S    
C56   C60   A    
H6    N6    S    
Ba4   O7    S    
C60   P4    S    
C66   P14   S    
H146  N3    S    
C76   H89   S    
C15   C20   A    
Ba3   O33   S    
C38   N16   S    
H43   N18   S    
C5    C61   A    
H48   N20   S    
C86   O44   S    
O2    P2    S    
C95   O24   S    
C27   C32   A    
O26   P11   S    
C26   C53   A    
C39   H70   S    
C99   H59   S    
C69   H74   S    
C17   H95   S    
O14   P6    S    
C91   H122  S    
H33   N17   S    
Ba2   O15   S    
C84   H16   S    
H49   N20   S    
H29   N15   S    
C44   C53   A    
O32   P13   D    
O38   P3    S    
C56   C74   A    
C45   C80   S    
C58   C76   A    
O24   P9    S    
C19   P6    S    
H139  N26   S    
C1    H93   S    
C64   P12   S    
C88   C92   S    
C6    H100  S    
O31   P12   D    
Ba3   O13   S    
C65   C78   A    
C24   C31   A    
C7    C83   A    
C45   H102  S    
C87   H54   S    
O25   P10   S    
C3    C39   S    
C41   C49   A    
C98   H58   S    
Ba2   O9    S    
O41   P2    D    
Ba3   O8    S    
C10   C94   A    
O13   P11   S    
C95   N12   S    
C48   C84   S    
C14   H39   S    
C42   H36   S    
C11   C51   S    
H32   N17   S    
C12   C52   S    
C22   P7    S    
C32   C71   S    
O4    P4    S    
Ba1   P1    S    
C99   H46   S    
H11   N8    S    
Ba2   O37   S    
C9    C83   A    
C48   H106  S    
O1    P1    D    
H45   N19   S    
C65   C69   A    
O48   P16   S    
C88   H55   S    
C101  N4    S    
C87   H118  S    
H51   N21   S    
C99   N2    S    
Ba3   Ba4   S    
C6    C21   A    
H130  N22   S    
C59   P16   S    
C48   O4    S    
C35   C40   A    
H26   N14   S    
H31   N16   S    
C3    O30   S    
C62   P3    S    
O46   P14   S    
C78   H91   S    
C57   C75   A    
H148  N4    S    
C2    H81   S    
C92   H127  S    
C37   N15   S    
O19   P5    D    
C33   C37   A    
C87   C91   S    
C17   N6    S    
C10   C49   S    
O35   P15   D    
H20   N10   S    
C79   H92   S    
C56   H87   S    
C43   C52   A    
C102  H1    S    
O7    P15   S    
C54   C58   A    
C43   H37   S    
C27   H76   S    
Ba4   O11   S    
Ba1   O1    S    
C45   O48   S    
C47   H109  S    
C11   C15   A    
H136  N25   S    
C9    H84   S    
Ba2   P9    S    
C47   O3    S    
C81   H112  S    
C68   H73   S    
C16   C21   A    
C3    H66   S    
C92   H123  S    
C83   P11   S    
C94   H80   S    
C46   C81   S    
C62   C79   A    
O18   P6    D    
C47   H104  S    
C2    C61   A    
C97   O26   S    
H131  N23   S    
Ba4   O39   S    
C85   O45   S    
C61   P9    S    
C82   H113  S    
C93   C98   S    
H4    N5    S    
C103  H64   S    
C91   H13   S    
C40   N17   S    
C1    H67   S    
H133  N24   S    
C3    H83   S    
C47   C82   S    
C86   C90   S    
C1    C102  S    
C101  H62   S    
C97   N27   S    
Ba2   O12   S    
O28   P5    S    
H47   N19   S    
C33   C73   S    
C90   H2    S    
C29   C33   A    
C81   N19   S    
C82   N20   S    
C28   H96   S    
C28   N7    S    
C31   C35   A    
Ba4   O8    S    
C85   H115  S    
H7    N6    S    
C98   N28   S    
H126  N12   S    
C46   H108  S    
C80   H12   S    
C81   H14   S    
Ba4   P11   S    
C4    H98   S    
C89   H94   S    
Ba3   P14   S    
C8    C72   A    
C25   N11   S    
C28   H69   S    
O22   P1    S    
C90   H105  S    
H141  N27   S    
C96   N22   S    
O42   P3    D    
H142  N28   S    
C97   N23   S    
C63   C76   A    
C25   C52   A    
C9    C13   A    
C48   H110  S    
C13   C18   A    
Ba4   P15   S    
H129  N22   S    
H8    N7    S    
C96   O25   S    
Ba2   O6    S    
C23   N9    S    
O40   P16   D    
C101  H57   S    
Ba1   O6    S    
H28   N15   S    
C63   C67   A    
Ba3   O16   S    
C89   H138  S    
H9    N7    S    
H10   N8    S    
C31   H79   S    
C18   C22   A    
H128  N12   S    
C29   H77   S    
C100  N3    S    
H140  N27   S    
C7    H101  S    
C35   C75   S    
C36   C43   A    
C20   P5    S    
H19   N10   S    
C39   H97   S    
C102  H63   S    
C10   C14   A    
C86   H117  S    
Ba3   O7    S    
C55   C73   A    
C13   C53   S    
C93   N1    S    
C59   C77   A    
H143  N28   S    
C34   C38   A    
Ba1   O36   S    
C24   N10   S    
C104  H72   S    
Ba1   Ba2   S    
C67   H71   S    
C2    C11   A    
C6    C72   A    
C57   C62   A    
C44   H38   S    
C69   C74   A    
H21   N11   S    
O47   P15   S    
C92   H24   S    
C46   O2    S    
C85   C89   S    
O17   P7    S    
C24   C51   A    
C54   C71   A    
C23   C30   A    
C97   C101  S    
H147  N3    S    
C86   H53   S    
C14   C19   A    
C32   C36   A    
C88   H119  S    
C4    C50   A    
H125  N1    S    
C70   H75   S    
C7    C22   A    
C65   P15   S    
O9    P1    S    
H27   N14   S    
O12   P9    D    
C68   C73   A    
C66   C79   A    
C80   H111  S    
O5    P13   S    
C100  H60   S    
H25   N13   S    
H23   N13   S    
C103  O28   S    
C17   H68   S    
O29   P8    S    
H5    N5    S    
Ba4   O35   S    
C60   C78   A    
C17   C103  S    
C46   H103  S    
Ba1   O31   S    
O15   P5    S    
Ba2   O32   S    
C98   H35   S    
O36   P16   S    
H137  N26   S    
O33   P14   D    
C85   H52   S    
O8    P14   S    
O37   P2    S    
C26   C29   A    
C30   C34   A    
C5    C20   A    
C8    H82   S    
O34   P11   D    
C91   H116  S    
C70   C75   A    
C50   P1    S    
O21   P7    D    
Ba1   P12   S    
O45   P13   S    
C25   C27   A    
H44   N18   S    
O30   P7    S    
H135  N25   S    
Ba3   P10   S    
C67   C71   A    
C89   H120  S    
C37   C44   A    
Ba4   O17   S    
C88   O46   S    
C28   C104  S    
C96   N26   S    
C82   H15   S    
Ba3   O23   S    
C50   C94   A    
O11   P10   S    
C90   H121  S    
