data_mof_unit_28301.cif
_audit_creation_date              2012-12-11T15:26:04-0500
_audit_creation_method            fapswitch 2.2
_symmetry_space_group_name_H-M    P1
_symmetry_Int_Tables_number       1
_space_group_crystal_system       triclinic
_cell_length_a                    24.62582
_cell_length_b                    17.135127
_cell_length_c                    15.640053
_cell_angle_alpha                 90.31506
_cell_angle_beta                  50.337612
_cell_angle_gamma                 90.502358
_cell_volume                      5080.2842737

loop_
_atom_site_label
_atom_site_type_symbol
_atom_type_description
_atom_site_fract_x
_atom_site_fract_y
_atom_site_fract_z
_atom_type_partial_charge
C1    C     C_R   0.346197 0.135935 0.772193 -0.125220
C2    C     C_2   0.359740 0.740220 0.845816 -0.222744
C3    C     C_2   0.354397 0.249305 0.868280 -0.217535
C4    C     C_2   0.639747 0.740968 0.152206 -0.218104
C5    C     C_2   0.194218 0.650683 0.018750 -0.223039
C6    C     C_2   0.852931 0.252221 0.870503 -0.215059
C7    C     C_2   0.805140 0.651528 0.981063 -0.223991
C8    C     C_2   0.195140 0.345344 0.022051 -0.223303
C9    C     C_2   0.764446 0.152389 0.963742 -0.114977
C10   C     C_2   0.307372 0.700040 0.861181 -0.106882
C11   C     C_2   0.307916 0.292914 0.873108 -0.114706
C12   C     C_R   0.648515 0.857343 0.244251 -0.123044
C13   C     C_2   0.691930 0.701478 0.136996 -0.108925
C14   C     C_2   0.264324 0.648645 0.957016 -0.107386
C15   C     C_2   0.807579 0.207020 0.873305 -0.116542
C16   C     C_2   0.735067 0.650163 0.041208 -0.109568
C17   C     C_2   0.264905 0.347255 0.964067 -0.111091
C18   C     C_R   0.616649 0.100668 0.589427 -0.136232
C19   C     C_R   0.383773 0.898305 0.410019 -0.138596
C20   C     C_R   0.410633 0.143021 0.407557 -0.133459
C21   C     C_R   0.612757 0.894547 0.592516 -0.160355
C22   C     C_R   0.087287 0.645884 0.591268 -0.132147
C23   C     C_R   0.666630 0.110953 0.201324 -0.117573
C24   C     C_R   0.911316 0.355758 0.407664 -0.134103
C25   C     C_R   0.910530 0.642827 0.407658 -0.132662
C26   C     C_R   0.116145 0.398478 0.589469 -0.138221
C27   C     C_R   0.689364 0.101969 0.405487 -0.124220
C28   C     C_R   0.310603 0.898222 0.593691 -0.143394
C29   C     C_R   0.331421 0.138904 0.592229 -0.123935
C30   C     C_R   0.687919 0.894777 0.407609 -0.136845
C31   C     C_R   0.162977 0.644099 0.406174 -0.126001
C32   C     C_R   0.832251 0.359579 0.592189 -0.126276
C33   C     C_R   0.837818 0.643459 0.593575 -0.109949
C34   C     C_R   0.351246 0.856776 0.754867 -0.123097
C35   C     C_R   0.188828 0.397178 0.405359 -0.128884
C36   C     C_R   0.577367 0.108452 0.198181 -0.164372
C37   C     C_R   0.441689 0.857661 0.756258 -0.152684
C38   C     C_R   0.439817 0.137572 0.765179 -0.149982
C39   C     C_R   0.557779 0.857664 0.243454 -0.148346
C40   C     C_R   0.077012 0.607316 0.197798 -0.156715
C41   C     C_R   0.939018 0.363536 0.766454 -0.146037
C42   C     C_R   0.922549 0.607143 0.802911 -0.163629
C43   C     C_R   0.077615 0.391864 0.197526 -0.162926
C44   C     C_R   0.379212 0.177068 0.804672 0.150574
C45   C     C_R   0.832818 0.607514 0.801698 -0.128050
C46   C     C_R   0.615367 0.814760 0.213137 0.149352
C47   C     C_R   0.647391 0.129298 0.137960 0.155611
C48   C     C_R   0.384080 0.814342 0.785802 0.150207
C49   C     C_R   0.852172 0.626137 0.865042 0.155637
C50   C     C_R   0.147575 0.371370 0.137308 0.155800
C51   C     C_R   0.147627 0.625925 0.134939 0.155150
C52   C     C_R   0.877849 0.324275 0.806926 0.149646
C53   C     C_R   0.686349 0.114265 0.495583 0.070263
C54   C     C_R   0.314021 0.884061 0.503314 0.068542
C55   C     C_R   0.356600 0.184848 0.500657 0.063629
C56   C     C_R   0.166571 0.389630 0.201218 -0.117685
C57   C     C_R   0.679927 0.877421 0.500325 0.080802
C58   C     C_R   0.138213 0.690367 0.497610 0.061833
C59   C     C_R   0.857893 0.313029 0.500694 0.063693
C60   C     C_R   0.859008 0.684549 0.501446 0.053356
C61   C     C_R   0.185450 0.383665 0.495511 0.065900
C62   C     C_R   0.270390 0.295631 0.599075 0.044054
C63   C     C_R   0.796129 0.858042 0.449190 0.032618
C64   C     C_R   0.813252 0.152628 0.394435 0.037560
C65   C     C_R   0.186617 0.845837 0.603540 0.041348
C66   C     C_R   0.744346 0.712351 0.556365 0.039932
C67   C     C_R   0.167340 0.607300 0.197621 -0.126875
C68   C     C_R   0.311295 0.342319 0.394179 0.041716
C69   C     C_R   0.225777 0.801419 0.398538 0.039168
C70   C     C_R   0.772346 0.200474 0.599152 0.043698
C71   C     C_R   0.701008 0.761668 0.556387 -0.274484
C72   C     C_R   0.352491 0.290517 0.398512 -0.254587
C73   C     C_R   0.270482 0.848248 0.402745 -0.256931
C74   C     C_R   0.729840 0.149860 0.595003 -0.260836
C75   C     C_R   0.228075 0.345510 0.594928 -0.255130
C76   C     C_R   0.839964 0.808980 0.450881 -0.271702
C77   C     C_R   0.854866 0.205008 0.398630 -0.259056
C78   C     C_R   0.845257 0.364663 0.773876 -0.124909
C79   C     C_R   0.143040 0.797270 0.598917 -0.255321
C80   C     C_R   0.726913 0.833234 0.502723 0.112058
C81   C     C_R   0.327656 0.259230 0.500368 0.114816
C82   C     C_R   0.255418 0.862498 0.504376 0.111972
C83   C     C_R   0.745102 0.134668 0.493733 0.112342
C84   C     C_R   0.243553 0.360863 0.493593 0.111531
C85   C     C_R   0.813596 0.737090 0.504882 0.113129
C86   C     C_R   0.829768 0.237185 0.500431 0.115448
C87   C     C_R   0.166875 0.766262 0.497297 0.115046
C88   C     C_2   0.694703 0.155072 0.022773 -0.224600
H1    H     H_    0.293887 0.145712 0.800581 0.086907
H2    H     H_    0.404648 0.902855 0.325027 0.084993
H3    H     H_    0.441209 0.158504 0.321324 0.093185
H4    H     H_    0.591654 0.894104 0.677980 0.095915
H5    H     H_    0.057167 0.661859 0.677284 0.093889
H6    H     H_    0.942100 0.339870 0.321494 0.094147
H7    H     H_    0.935074 0.656024 0.322350 0.099418
H8    H     H_    0.095638 0.403137 0.674272 0.084921
H9    H     H_    0.734915 0.098472 0.318984 0.105298
H10   H     H_    0.264688 0.903122 0.679716 0.108550
H11   H     H_    0.284148 0.146538 0.676245 0.100385
H12   H     H_    0.695841 0.842846 0.231236 0.088696
H13   H     H_    0.736129 0.893914 0.322205 0.093305
H14   H     H_    0.203972 0.656630 0.319699 0.110515
H15   H     H_    0.785282 0.351036 0.676257 0.100668
H16   H     H_    0.795013 0.657308 0.679512 0.098952
H17   H     H_    0.234286 0.400196 0.318758 0.106112
H18   H     H_    0.549143 0.104922 0.166528 0.091735
H19   H     H_    0.478238 0.841746 0.769316 0.096155
H20   H     H_    0.477091 0.152285 0.777661 0.098285
H21   H     H_    0.520710 0.841606 0.231040 0.099132
H22   H     H_    0.047782 0.604087 0.167857 0.091154
H23   H     H_    0.718903 0.111329 0.176260 0.080712
H24   H     H_    0.976144 0.349419 0.779071 0.097334
H25   H     H_    0.951227 0.603887 0.833741 0.092023
H26   H     H_    0.049616 0.395238 0.165555 0.091665
H27   H     H_    0.378734 0.723907 0.889718 0.126718
H28   H     H_    0.672119 0.184823 0.990751 0.126457
H29   H     H_    0.621012 0.724401 0.107733 0.128335
H30   H     H_    0.370058 0.263585 0.917683 0.128013
H31   H     H_    0.867993 0.238972 0.920760 0.128618
H32   H     H_    0.170539 0.678499 0.987308 0.127442
H33   H     H_    0.172538 0.315994 0.989238 0.125460
H34   H     H_    0.304093 0.841646 0.767089 0.089348
H35   H     H_    0.828579 0.679180 0.013534 0.128609
H36   H     H_    0.202309 0.259238 0.758364 0.085376
H37   H     H_    0.253942 0.335595 0.735013 0.108831
H38   H     H_    0.864914 0.922981 0.311678 0.094514
H39   H     H_    0.837667 0.964775 0.431338 0.117388
H40   H     H_    0.886352 0.090620 0.256624 0.101171
H41   H     H_    0.852834 0.166809 0.235787 0.093662
H42   H     H_    0.147192 0.827400 0.761393 0.091551
H43   H     H_    0.115285 0.907016 0.743458 0.106104
H44   H     H_    0.703958 0.607008 0.562906 0.110846
H45   H     H_    0.780000 0.604631 0.829098 0.079875
H46   H     H_    0.674396 0.642160 0.687249 0.093182
H47   H     H_    0.349941 0.326559 0.236156 0.092711
H48   H     H_    0.385203 0.403088 0.254880 0.105615
H49   H     H_    0.292606 0.765382 0.238837 0.089846
H50   H     H_    0.242473 0.842750 0.262879 0.112771
H51   H     H_    0.755038 0.161452 0.735622 0.107750
H52   H     H_    0.704203 0.237323 0.758081 0.085136
H53   H     H_    0.647662 0.742748 0.594813 0.133049
H54   H     H_    0.401448 0.271543 0.320902 0.118208
H55   H     H_    0.318933 0.868528 0.325103 0.117403
H56   H     H_    0.218718 0.389664 0.176588 0.079198
H57   H     H_    0.682284 0.128096 0.672635 0.118334
H58   H     H_    0.180780 0.367198 0.672592 0.117500
H59   H     H_    0.893990 0.826218 0.410001 0.132079
H60   H     H_    0.904093 0.224031 0.321077 0.119224
H61   H     H_    0.093120 0.779478 0.676366 0.118475
H62   H     H_    0.287521 0.716271 0.818641 0.127988
H63   H     H_    0.787874 0.123445 0.994675 0.127332
H64   H     H_    0.711388 0.717834 0.180351 0.127883
H65   H     H_    0.292077 0.277856 0.824566 0.135690
H66   H     H_    0.792267 0.221373 0.824165 0.136696
H67   H     H_    0.220387 0.604175 0.169131 0.077657
H68   H     H_    0.288715 0.621547 0.987521 0.123743
H69   H     H_    0.288340 0.375960 0.995695 0.125218
H70   H     H_    0.710908 0.623158 0.009751 0.125063
H71   H     H_    0.792635 0.354761 0.803059 0.086371
H72   H     H_    0.596081 0.095450 0.674184 0.084158
N1    N     N_R   0.388930 0.078160 0.705470 -0.044694
N2    N     N_R   0.419500 0.922160 0.443350 -0.037296
N3    N     N_R   0.419500 0.077840 0.443350 -0.038470
N4    N     N_R   0.580500 0.922160 0.556650 -0.034580
N5    N     N_R   0.080500 0.577840 0.556650 -0.039370
N6    N     N_R   0.919500 0.422160 0.443350 -0.040164
N7    N     N_R   0.919500 0.577840 0.443350 -0.041132
N8    N     N_R   0.080500 0.422160 0.556650 -0.038072
N9    N     N_R   0.626210 0.077590 0.443410 -0.041403
N10   N     N_R   0.373790 0.922410 0.556590 -0.040978
N11   N     N_R   0.373790 0.077590 0.556590 -0.041068
N12   N     N_R   0.611070 0.921840 0.294530 -0.046004
N13   N     N_R   0.626210 0.922410 0.443410 -0.038704
N14   N     N_R   0.126210 0.577590 0.443410 -0.043698
N15   N     N_R   0.873790 0.422410 0.556590 -0.042947
N16   N     N_R   0.873790 0.577590 0.556590 -0.043841
N17   N     N_R   0.126210 0.422410 0.443410 -0.042110
N18   N     N_R   0.554800 0.077270 0.294580 -0.039532
N19   N     N_R   0.445200 0.922730 0.705420 -0.041980
N20   N     N_R   0.445200 0.077270 0.705420 -0.042016
N21   N     N_R   0.554800 0.922730 0.294580 -0.041652
N22   N     N_R   0.054800 0.577270 0.294580 -0.037992
N23   N     N_R   0.611070 0.078160 0.294530 -0.045051
N24   N     N_R   0.945200 0.422730 0.705420 -0.040546
N25   N     N_R   0.945200 0.577270 0.705420 -0.038936
N26   N     N_R   0.054800 0.422730 0.294580 -0.038533
N27   N     N_3   0.253686 0.281688 0.703593 -0.234776
N28   N     N_3   0.821005 0.932360 0.394880 -0.217115
N29   N     N_3   0.839928 0.120648 0.289479 -0.231520
N30   N     N_3   0.160994 0.874979 0.709239 -0.232512
N31   N     N_3   0.719155 0.635895 0.603823 -0.216219
N32   N     N_3   0.338149 0.373248 0.288812 -0.232815
N33   N     N_3   0.241831 0.788612 0.294037 -0.225967
N34   N     N_R   0.388930 0.921840 0.705470 -0.046657
N35   N     N_3   0.755423 0.215142 0.703756 -0.234804
N36   N     N_R   0.888930 0.578160 0.705470 -0.043687
N37   N     N_R   0.111070 0.421840 0.294530 -0.043998
N38   N     N_R   0.111070 0.578160 0.294530 -0.043357
N39   N     N_R   0.888930 0.421840 0.705470 -0.043385
N40   N     N_R   0.580500 0.077840 0.556650 -0.037050
Ni1   Ni    Ni4+2 0.382710 0.000000 0.629850 0.209454
Ni2   Ni    Ni4+2 0.617290 1.000000 0.370150 0.208145
Ni3   Ni    Ni4+2 0.882710 0.500000 0.629850 0.209470
Ni4   Ni    Ni4+2 0.117290 0.500000 0.370150 0.205806
Ni5   Ni    Ni4+2 0.513020 0.000000 0.629850 0.208740
Ni6   Ni    Ni4+2 0.486980 1.000000 0.370150 0.209335
Ni7   Ni    Ni4+2 0.013020 0.500000 0.629850 0.209249
Ni8   Ni    Ni4+2 0.986980 0.500000 0.370150 0.210276

loop_
_geom_bond_atom_site_label_1
_geom_bond_atom_site_label_2
_ccdc_geom_bond_type
C35   N17   A    
N19   Ni5   S    
C88   H28   S    
N40   Ni5   S    
C65   C79   A    
C33   H16   S    
C64   C77   A    
N25   Ni7   S    
C74   H57   S    
N22   N38   A    
C74   C83   A    
C67   N38   A    
C58   C87   S    
C66   C85   A    
C79   C87   A    
C64   N29   S    
N38   Ni4   S    
C12   N12   A    
C4    C46   S    
C25   N7    A    
C38   C44   A    
C26   N8    A    
N6    N15   A    
N24   Ni7   S    
H48   N32   S    
C31   C58   A    
N1    Ni1   S    
C26   C61   A    
C37   H19   S    
N4    Ni5   S    
C43   H26   S    
C8    H33   S    
H43   N30   S    
C63   C76   A    
C68   N32   S    
N8    N17   A    
C30   C57   A    
N37   Ni4   S    
C67   H67   S    
H40   N29   S    
C4    C13   D    
C33   N16   A    
C15   H66   S    
C1    C44   A    
C18   C53   A    
N9    Ni2   S    
C22   N5    A    
N12   N21   A    
C27   H9    S    
C76   H59   S    
C70   N35   S    
N10   Ni1   S    
C41   H24   S    
H41   N29   S    
C70   C74   A    
C41   N24   A    
C69   C73   A    
C4    H29   S    
C25   C60   A    
C55   C81   S    
C17   H69   S    
C27   N9    A    
C30   N13   A    
N18   N23   A    
C69   C87   A    
N7    N16   A    
C79   H61   S    
C34   N34   A    
C45   N36   A    
C6    C15   D    
C1    N1    A    
C34   H34   S    
C21   N4    A    
N2    Ni6   S    
N39   Ni3   S    
C57   C80   S    
N6    Ni8   S    
C20   C55   A    
C52   C78   A    
C69   N33   S    
C71   C80   A    
C20   H3    S    
H51   N35   S    
C40   N22   A    
C63   C80   A    
C75   H58   S    
C26   H8    S    
C37   N19   A    
C32   N15   A    
H49   N33   S    
C3    C44   S    
C32   H15   S    
C38   N20   A    
C29   H11   S    
C5    H32   S    
C16   H70   S    
C68   C84   A    
C31   H14   S    
C36   N18   A    
C7    C49   S    
C12   C46   A    
C53   C83   S    
C10   C14   S    
C28   C54   A    
C40   H22   S    
C29   C55   A    
C43   N26   A    
C2    C48   S    
N5    N14   A    
N34   Ni1   S    
C36   H18   S    
C50   C56   A    
N13   Ni2   S    
N36   Ni3   S    
C19   N2    A    
H46   N31   S    
N11   Ni1   S    
C24   N6    A    
C64   C83   A    
C21   C57   A    
C35   H17   S    
C3    H30   S    
C24   H6    S    
C2    H27   S    
C42   H25   S    
C66   C71   A    
N2    N10   A    
C45   C49   A    
C68   C72   A    
N24   N39   A    
C66   N31   S    
N14   Ni4   S    
H39   N28   S    
C5    C14   D    
N17   Ni4   S    
N4    N13   A    
N26   N37   A    
C51   C67   A    
C29   N11   A    
C37   C48   A    
N12   Ni2   S    
N5    Ni7   S    
H44   N31   S    
N16   Ni3   S    
C23   N23   A    
C39   N21   A    
C39   C46   A    
N19   N34   A    
C19   C54   A    
C28   N10   A    
C7    C16   D    
C62   C81   A    
C77   C86   A    
C25   H7    S    
C33   C60   A    
N9    N40   A    
C18   N40   A    
C22   H5    S    
C36   C47   A    
C34   C48   A    
C78   N39   A    
N25   N36   A    
C77   H60   S    
N20   Ni5   S    
C70   C86   A    
C8    C50   S    
C73   C82   A    
C54   C82   S    
N3    N11   A    
C42   N25   A    
C56   N37   A    
C73   H55   S    
H50   N33   S    
C28   H10   S    
C11   C17   S    
C1    H1    S    
C41   C52   A    
C14   H68   S    
C6    H31   S    
N23   Ni2   S    
C72   C81   A    
C13   H64   S    
C7    H35   S    
C61   C84   S    
C22   C58   A    
H36   N27   S    
C60   C85   S    
C27   C53   A    
C43   C50   A    
N26   Ni8   S    
C40   C51   A    
C23   H23   S    
N3    Ni6   S    
C45   H45   S    
C8    C17   D    
C71   H53   S    
H37   N27   S    
C47   C88   S    
C23   C47   A    
H38   N28   S    
N21   Ni6   S    
C9    C15   S    
C59   C86   S    
N15   Ni3   S    
C9    C88   D    
C19   H2    S    
C72   H54   S    
C10   H62   S    
N7    Ni8   S    
N8    Ni7   S    
C20   N3    A    
C65   C82   A    
C35   C61   A    
C24   C59   A    
N18   Ni6   S    
C30   H13   S    
N22   Ni8   S    
C38   H20   S    
C75   C84   A    
H52   N35   S    
H47   N32   S    
C12   H12   S    
C3    C11   D    
C11   H65   S    
C42   C49   A    
C56   H56   S    
H42   N30   S    
C78   H71   S    
C39   H21   S    
C65   N30   S    
C9    H63   S    
C63   N28   S    
C13   C16   S    
C5    C51   S    
C32   C59   A    
C6    C52   S    
N1    N20   A    
C76   C85   A    
C21   H4    S    
C62   C75   A    
C18   H72   S    
C62   N27   S    
C31   N14   A    
C2    C10   D    
