data_mof_unit_54602.cif
_audit_creation_date              2012-12-10T16:59:21-0500
_audit_creation_method            fapswitch 2.2
_symmetry_space_group_name_H-M    P1
_symmetry_Int_Tables_number       1
_space_group_crystal_system       triclinic
_cell_length_a                    7.776154
_cell_length_b                    8.544957
_cell_length_c                    27.695437
_cell_angle_alpha                 91.620003
_cell_angle_beta                  86.360458
_cell_angle_gamma                 93.01111
_cell_volume                      1833.45461941

loop_
_atom_site_label
_atom_site_type_symbol
_atom_type_description
_atom_site_fract_x
_atom_site_fract_y
_atom_site_fract_z
_atom_type_partial_charge
C1    C     C_R   0.545188 0.794483 0.498919 0.941204
C2    C     C_R   0.503038 0.653664 0.127754 -0.024959
C3    C     C_R   0.509838 0.491459 0.646538 -0.161845
C4    C     C_R   0.490162 0.508546 0.353462 -0.161849
C5    C     C_R   0.531619 0.645217 0.025413 0.047381
C6    C     C_R   0.468385 0.354800 0.974587 0.047381
C7    C     C_R   0.450682 0.361053 0.025863 0.047514
C8    C     C_R   0.549321 0.638963 0.974137 0.047514
C9    C     C_R   0.483715 0.505970 0.050929 0.073175
C10   C     C_R   0.516289 0.494047 0.949071 0.073175
C11   C     C_R   0.559358 0.786701 0.052358 -0.225827
C12   C     C_R   0.454812 0.205516 0.501081 0.941209
C13   C     C_R   0.440645 0.213316 0.947643 -0.225828
C14   C     C_R   0.545786 0.790328 0.102468 -0.141450
C15   C     C_R   0.454217 0.209688 0.897532 -0.141451
C16   C     C_R   0.502645 0.498386 0.593929 0.878629
C17   C     C_R   0.497355 0.501614 0.406071 0.878622
C18   C     C_R   0.600210 0.772987 0.946756 -0.226172
C19   C     C_R   0.399794 0.227029 0.053244 -0.226173
C20   C     C_2   0.569382 0.957568 0.499043 -0.386765
C21   C     C_2   0.430618 0.042432 0.500957 -0.386761
C22   C     C_R   0.582087 0.618741 0.821251 0.518557
C23   C     C_R   0.530406 0.488487 0.897770 -0.049967
C24   C     C_R   0.417915 0.381276 0.178749 0.518558
C25   C     C_R   0.504598 0.344859 0.821663 0.512964
C26   C     C_R   0.495404 0.655158 0.178337 0.512966
C27   C     C_R   0.371478 0.469302 0.727091 -0.200934
C28   C     C_R   0.628522 0.530716 0.272910 -0.200929
C29   C     C_R   0.358029 0.472263 0.677168 0.499507
C30   C     C_R   0.641971 0.527748 0.322832 0.499508
C31   C     C_R   0.671923 0.500505 0.666568 -0.290071
C32   C     C_R   0.328078 0.499499 0.333432 -0.290066
C33   C     C_R   0.683507 0.494474 0.716240 -0.099939
C34   C     C_R   0.469597 0.511529 0.102230 -0.049967
C35   C     C_R   0.316493 0.505535 0.283760 -0.099930
C36   C     C_R   0.533366 0.479701 0.746409 0.252208
C37   C     C_R   0.466634 0.520315 0.253591 0.252198
C38   C     C_3   0.951382 0.243178 0.439854 0.226121
C39   C     C_3   0.061319 0.150443 0.403018 -0.875471
C40   C     C_3   0.048618 0.756822 0.560146 0.226123
C41   C     C_3   0.938682 0.849556 0.596982 -0.875468
C42   C     C_3   0.863985 0.693216 0.343779 -0.269352
C43   C     C_3   0.135991 0.306801 0.656234 -0.269342
C44   C     C_R   0.576352 0.625373 0.871814 -0.026616
C45   C     C_R   0.423650 0.374643 0.128186 -0.026616
C46   C     C_R   0.612620 0.766068 0.896657 -0.141537
C47   C     C_R   0.387383 0.233949 0.103343 -0.141537
C48   C     C_R   0.496964 0.346352 0.872246 -0.024959
H1    H     H_    0.790147 0.513575 0.643902 0.228815
H2    H     H_    0.429521 0.098763 0.878650 0.193935
H3    H     H_    0.592226 0.898002 0.036149 0.140216
H4    H     H_    0.407778 0.102014 0.963852 0.140217
H5    H     H_    0.632186 0.886229 0.962605 0.141824
H6    H     H_    0.367818 0.113787 0.037395 0.141825
H7    H     H_    0.700953 0.007144 0.498005 0.161597
H8    H     H_    0.299047 0.992856 0.501994 0.161597
H9    H     H_    0.824890 0.257178 0.424635 0.186003
H10   H     H_    0.935124 0.174967 0.473637 0.112535
H11   H     H_    0.191104 0.136817 0.416475 0.257167
H12   H     H_    0.209854 0.486424 0.356097 0.228815
H13   H     H_    0.998641 0.032351 0.396903 0.202395
H14   H     H_    0.075602 0.211981 0.368102 0.273843
H15   H     H_    0.064875 0.825033 0.526363 0.112533
H16   H     H_    0.175110 0.742823 0.575364 0.186004
H17   H     H_    0.924402 0.788019 0.631898 0.273843
H18   H     H_    0.001359 0.967649 0.603097 0.202398
H19   H     H_    0.808895 0.863180 0.583526 0.257167
H20   H     H_    0.773278 0.765421 0.366494 0.152878
H21   H     H_    0.887172 0.742782 0.307080 0.169457
H22   H     H_    0.988880 0.699961 0.361161 0.193704
H23   H     H_    0.808826 0.502750 0.731374 0.166804
H24   H     H_    0.112768 0.257277 0.692937 0.169456
H25   H     H_    0.226704 0.234560 0.633532 0.152873
H26   H     H_    0.011112 0.300048 0.638844 0.193700
H27   H     H_    0.191175 0.497258 0.268626 0.166810
H28   H     H_    0.650295 0.872398 0.877434 0.192999
H29   H     H_    0.349708 0.127619 0.122566 0.192999
H30   H     H_    0.744224 0.540235 0.249013 0.152436
H31   H     H_    0.255776 0.459788 0.750988 0.152428
H32   H     H_    0.570482 0.901253 0.121350 0.193935
N1    N     N_R   0.543841 0.480368 0.797517 -0.347428
N2    N     N_R   0.456160 0.519648 0.202483 -0.347428
N3    N     N_2   0.950320 0.457960 0.486880 0.159268
N4    N     N_2   0.049680 0.542040 0.513120 0.159268
O1    O     O_R   0.389250 0.738570 0.503220 -0.663851
O2    O     O_2   0.378031 0.250164 0.204065 -0.534817
O3    O     O_2   0.528405 0.790257 0.203308 -0.540829
O4    O     O_2   0.471596 0.209760 0.796692 -0.540830
O5    O     O_3   0.035102 0.389722 0.448682 -0.520339
O6    O     O_3   0.964898 0.610278 0.551318 -0.520338
O7    O     O_3   0.803713 0.534832 0.341096 -0.597875
O8    O     O_3   0.196287 0.465179 0.658904 -0.597875
O9    O     O_R   0.610750 0.261430 0.496780 -0.663851
O10   O     O_R   0.678390 0.711630 0.494810 -0.606915
O11   O     O_R   0.321610 0.288370 0.505190 -0.606911
O12   O     O_R   0.355440 0.513440 0.575450 -0.588260
O13   O     O_R   0.644560 0.486560 0.424550 -0.588266
O14   O     O_R   0.644590 0.486500 0.567040 -0.583122
O15   O     O_R   0.355410 0.513500 0.432960 -0.583121
O16   O     O_2   0.621971 0.749852 0.795934 -0.534817
Zn1   Zn    Zn3+2 0.306940 0.517990 0.505620 1.021202
Zn2   Zn    Zn3+2 0.693060 0.482010 0.494380 1.021198

loop_
_geom_bond_atom_site_label_1
_geom_bond_atom_site_label_2
_ccdc_geom_bond_type
C43   H25   S    
C42   H20   S    
C43   H24   S    
N3    Zn2   S    
C27   C29   A    
C46   H28   S    
C41   H19   S    
C38   O5    S    
C35   H27   S    
C40   H15   S    
C24   C45   A    
C35   C37   A    
C5    C11   A    
C27   H31   S    
C38   C39   S    
C11   C14   A    
C19   C47   A    
C38   H9    S    
C42   H22   S    
C33   C36   A    
C42   O7    S    
C15   H2    S    
C3    C29   A    
C24   N2    A    
C18   H5    S    
C38   H10   S    
C22   C44   A    
C1    O10   A    
C31   C33   A    
C12   O11   A    
C14   H32   S    
C28   H30   S    
O13   Zn2   S    
C2    C34   A    
C43   H26   S    
C2    C14   A    
C26   N2    A    
O12   Zn1   S    
C25   N1    A    
N4    Zn1   S    
N4    O6    S    
C15   C48   A    
C31   H1    S    
C20   H7    S    
C39   H13   S    
C18   C46   A    
C44   C46   A    
C6    C7    A    
C45   C47   A    
C1    O1    A    
N3    O5    S    
C16   O12   A    
C22   O16   S    
C32   C35   A    
C26   O3    S    
C41   H17   S    
O14   Zn2   S    
C12   C21   S    
C25   O4    S    
C8    C18   A    
C23   C44   A    
C22   N1    A    
C5    C9    A    
C5    C8    A    
C13   H4    S    
N3    N4    D    
C36   N1    S    
C39   H11   S    
C2    C26   A    
C34   C45   A    
C3    C31   A    
C17   O15   A    
C25   C48   A    
C4    C32   A    
C4    C17   S    
C19   H6    S    
C40   C41   S    
O15   Zn1   S    
C7    C19   A    
C13   C15   A    
C9    C34   A    
C10   C23   A    
C12   O9    A    
C47   H29   S    
O1    Zn1   S    
C7    C9    A    
C39   H14   S    
C1    C20   S    
C23   C48   A    
C30   O7    S    
O9    Zn2   S    
C6    C10   A    
C21   H8    S    
C41   H18   S    
C27   C36   A    
C43   O8    S    
C40   H16   S    
C28   C30   A    
C6    C13   A    
C16   O14   A    
C24   O2    S    
C28   C37   A    
C42   H21   S    
C37   N2    S    
C11   H3    S    
C33   H23   S    
C20   C21   D    
O10   Zn2   S    
C8    C10   A    
C32   H12   S    
C40   O6    S    
C17   O13   A    
C29   O8    S    
C4    C30   A    
C3    C16   S    
O11   Zn1   S    
