data_mof_unit_64080.cif
_audit_creation_date              2012-12-10T20:49:12-0500
_audit_creation_method            fapswitch 2.2
_symmetry_space_group_name_H-M    P1
_symmetry_Int_Tables_number       1
_space_group_crystal_system       triclinic
_cell_length_a                    19.168463
_cell_length_b                    19.147062
_cell_length_c                    19.453497
_cell_angle_alpha                 89.838016
_cell_angle_beta                  95.059054
_cell_angle_gamma                 85.278412
_cell_volume                      7087.50248301

loop_
_atom_site_label
_atom_site_type_symbol
_atom_type_description
_atom_site_fract_x
_atom_site_fract_y
_atom_site_fract_z
_atom_type_partial_charge
C1    C     C_R   0.491878 0.689310 0.508011 0.899343
C2    C     C_2   0.478077 0.522576 0.016943 0.408836
C3    C     C_2   0.525397 0.480749 0.985271 0.461591
C4    C     C_R   0.507135 0.310711 0.492702 0.878711
C5    C     C_R   0.514597 0.486236 0.764398 -0.243307
C6    C     C_R   0.511418 0.233548 0.491972 -0.118651
C7    C     C_R   0.495785 0.197725 0.550959 -0.328772
C8    C     C_R   0.499563 0.124792 0.553225 0.414635
C9    C     C_R   0.517404 0.086165 0.494489 0.201098
C10   C     C_R   0.534857 0.121709 0.436326 -0.311121
C11   C     C_R   0.531823 0.195340 0.434154 0.446638
C12   C     C_R   0.478619 0.520153 0.092948 -0.067980
C13   C     C_R   0.469986 0.878429 0.453209 0.340632
C14   C     C_R   0.475153 0.805593 0.451570 -0.297984
C15   C     C_R   0.476053 0.912933 0.516906 0.161338
C16   C     C_R   0.689696 0.493026 0.506676 0.810031
C17   C     C_R   0.486406 0.766095 0.512781 -0.191270
C18   C     C_R   0.490370 0.800230 0.577207 0.244651
C19   C     C_R   0.485003 0.874469 0.579025 0.363087
C20   C     C_R   0.232743 0.514483 0.492566 -0.277770
C21   C     C_R   0.203738 0.495922 0.553126 -0.212325
C22   C     C_R   0.131644 0.504972 0.558586 0.435588
C23   C     C_R   0.484031 0.581229 0.132397 0.434456
C24   C     C_R   0.086739 0.531202 0.500999 0.041102
C25   C     C_R   0.115070 0.550214 0.440208 0.331211
C26   C     C_R   0.187898 0.541451 0.435350 0.316951
C27   C     C_R   0.874678 0.550230 0.520747 -0.192660
C28   C     C_R   0.309883 0.507814 0.492236 0.916954
C29   C     C_R   0.801532 0.554492 0.517502 0.450952
C30   C     C_R   0.913907 0.485907 0.511116 0.151829
C31   C     C_R   0.766384 0.492497 0.507577 -0.182274
C32   C     C_R   0.805551 0.428396 0.499188 -0.278242
C33   C     C_R   0.878664 0.424955 0.501198 0.415898
C34   C     C_R   0.486697 0.576661 0.204028 -0.293206
C35   C     C_R   0.508981 0.491216 0.688600 0.940534
C36   C     C_R   0.491226 0.508317 0.311788 0.887027
C37   C     C_R   0.486180 0.511561 0.236810 -0.100911
C38   C     C_R   0.480304 0.450302 0.198037 0.479511
C39   C     C_R   0.475300 0.455345 0.125899 -0.258775
C40   C     C_R   0.460058 0.470473 0.870335 -0.216664
C41   C     C_R   0.454707 0.474928 0.798904 0.375500
C42   C     C_R   0.579984 0.492684 0.803170 0.237222
C43   C     C_R   0.583636 0.492293 0.876110 0.426817
C44   C     C_R   0.523266 0.480717 0.909039 -0.094137
Cl1   Cl    Cl    0.453906 0.925272 0.374618 -0.490129
Cl2   Cl    Cl    0.497153 0.750266 0.654704 -0.502407
Cl3   Cl    Cl    0.485881 0.084893 0.632157 -0.437900
Cl4   Cl    Cl    0.370469 0.469272 0.755670 -0.499317
Cl5   Cl    Cl    0.057965 0.583306 0.369213 -0.402668
Cl6   Cl    Cl    0.220968 0.561262 0.356112 -0.427991
Cl7   Cl    Cl    0.925391 0.343400 0.489928 -0.462857
Cl8   Cl    Cl    0.658156 0.495538 0.761103 -0.515555
Cl9   Cl    Cl    0.491874 0.663531 0.094409 -0.460652
H1    H     H_    0.470859 0.779602 0.402132 0.224543
H2    H     H_    0.473947 0.349378 0.196650 0.353446
H3    H     H_    0.679219 0.522113 0.888613 0.400677
H4    H     H_    0.559926 0.195991 0.340390 0.354344
H5    H     H_    0.499621 0.879770 0.679825 0.401041
H6    H     H_    0.719685 0.620568 0.497468 0.338331
H7    H     H_    0.058466 0.508453 0.622360 0.363398
H8    H     H_    0.601777 0.407273 0.993193 0.375735
H9    H     H_    0.395347 0.588547 0.008952 0.376529
H10   H     H_    0.549631 0.091664 0.391983 0.199661
H11   H     H_    0.482061 0.226597 0.596358 0.226938
H12   H     H_    0.900533 0.598098 0.529025 0.214656
H13   H     H_    0.779236 0.380661 0.491696 0.217657
H14   H     H_    0.237581 0.476253 0.597757 0.244940
H15   H     H_    0.413903 0.460708 0.896148 0.218265
H16   H     H_    0.491427 0.623690 0.234395 0.202123
H17   H     H_    0.469656 0.408638 0.095242 0.173352
N1    N     N_2   0.520306 0.011970 0.492057 -0.092682
N2    N     N_2   0.471688 0.986878 0.519841 -0.023933
N3    N     N_2   0.013049 0.538427 0.502873 -0.128902
N4    N     N_2   0.988220 0.480931 0.509987 -0.074713
O1    O     O_3   0.500000 0.500000 0.500000 -0.546514
O2    O     O_R   0.546320 0.532340 0.658770 -0.569102
O3    O     O_R   0.450550 0.549430 0.344370 -0.635413
O4    O     O_R   0.467400 0.453980 0.652500 -0.607947
O5    O     O_R   0.535730 0.464240 0.344360 -0.587931
O6    O     O_3   0.478199 0.386850 0.231497 -0.713024
O7    O     O_3   0.644432 0.503646 0.916927 -0.686406
O8    O     O_3   0.546890 0.230576 0.375886 -0.692197
O9    O     O_3   0.488670 0.911835 0.639803 -0.639847
O10   O     O_3   0.767041 0.620256 0.522258 -0.694527
O11   O     O_3   0.107746 0.488881 0.621199 -0.676879
O12   O     O_R   0.656240 0.454400 0.463600 -0.635874
O13   O     O_3   0.576791 0.439334 0.024525 -0.728962
O14   O     O_3   0.430037 0.568050 0.978183 -0.718439
O15   O     O_R   0.340160 0.549180 0.454800 -0.584856
O16   O     O_R   0.536860 0.652450 0.548350 -0.587978
O17   O     O_R   0.466740 0.343960 0.533260 -0.650045
O18   O     O_R   0.451210 0.659450 0.463610 -0.643080
O19   O     O_R   0.545190 0.344140 0.454780 -0.570515
O20   O     O_R   0.656710 0.532590 0.548340 -0.604771
O21   O     O_R   0.346890 0.463830 0.533270 -0.629742
Zn1   Zn    Zn3+2 0.558280 0.441710 0.441700 1.053899
Zn2   Zn    Zn3+2 0.558950 0.553420 0.562770 1.083087
Zn3   Zn    Zn3+2 0.446190 0.441460 0.553820 1.046622
Zn4   Zn    Zn3+2 0.436580 0.563410 0.441710 1.048414

loop_
_geom_bond_atom_site_label_1
_geom_bond_atom_site_label_2
_ccdc_geom_bond_type
C5    C42   A    
C1    O16   A    
C27   C29   A    
C34   C37   A    
N3    N4    D    
C10   H10   S    
C2    C12   S    
O21   Zn3   S    
C7    C8    A    
C16   C31   S    
C15   C19   A    
C15   N2    S    
C12   C23   A    
C20   C26   A    
O15   Zn4   S    
C28   O21   A    
C36   C37   S    
C36   O3    A    
C26   Cl6   S    
C38   C39   A    
C30   N4    S    
C24   N3    S    
O1    Zn2   S    
C18   C19   A    
C22   O11   S    
H8    O13   S    
C41   Cl4   S    
C8    C9    A    
O4    Zn3   S    
C2    O14   S    
C28   O15   A    
C9    C10   A    
O16   Zn2   S    
C4    O17   A    
C13   C14   A    
C21   H14   S    
C27   C30   A    
C16   O12   A    
C14   C17   A    
C19   O9    S    
C18   Cl2   S    
O1    Zn1   S    
C23   Cl9   S    
C11   O8    S    
C3    C44   S    
C35   O2    A    
C3    O13   S    
H3    O7    S    
C24   C25   A    
C29   O10   S    
C4    C6    S    
C6    C11   A    
C20   C28   S    
O20   Zn2   S    
C25   C26   A    
H9    O14   S    
O1    Zn3   S    
C43   C44   A    
C37   C38   A    
C27   H12   S    
C31   C32   A    
C23   C34   A    
O1    Zn4   S    
C17   C18   A    
H6    O10   S    
C34   H16   S    
O12   Zn1   S    
C40   C41   A    
C14   H1    S    
O19   Zn1   S    
C13   C15   A    
C43   O7    S    
C22   C24   A    
C33   Cl7   S    
C42   C43   A    
C32   H13   S    
C5    C41   A    
C30   C33   A    
C16   O20   A    
C9    N1    S    
C36   O5    A    
H7    O11   S    
C6    C7    A    
C1    O18   A    
C35   O4    A    
C1    C17   S    
C32   C33   A    
C12   C39   A    
C2    C3    D    
O2    Zn2   S    
C8    Cl3   S    
O5    Zn1   S    
C29   C31   A    
H5    O9    S    
C13   Cl1   S    
H2    O6    S    
C38   O6    S    
C5    C35   S    
C39   H17   S    
O3    Zn4   S    
O17   Zn3   S    
C25   Cl5   S    
C7    H11   S    
C10   C11   A    
C4    O19   A    
C40   C44   A    
N1    N2    D    
C20   C21   A    
C40   H15   S    
H4    O8    S    
C21   C22   A    
O18   Zn4   S    
C42   Cl8   S    
