data_mof_unit_27821.cif
_audit_creation_date              2012-12-10T19:12:20-0500
_audit_creation_method            fapswitch 2.2
_symmetry_space_group_name_H-M    P1
_symmetry_Int_Tables_number       1
_space_group_crystal_system       triclinic
_cell_length_a                    7.843458
_cell_length_b                    9.076071
_cell_length_c                    16.925753
_cell_angle_alpha                 89.746469
_cell_angle_beta                  91.297402
_cell_angle_gamma                 89.166472
_cell_volume                      1204.45682595

loop_
_atom_site_label
_atom_site_type_symbol
_atom_type_description
_atom_site_fract_x
_atom_site_fract_y
_atom_site_fract_z
_atom_type_partial_charge
C1    C     C_R   0.500737 0.220263 0.500177 0.859878
C2    C     C_R   0.495551 0.360654 0.141103 0.270398
C3    C     C_R   0.507653 0.451495 0.902070 0.100800
C4    C     C_R   0.383459 0.461724 0.101883 0.079710
C5    C     C_R   0.665063 0.442035 0.863604 0.309659
C6    C     C_R   0.304265 0.576236 0.144682 0.252409
C7    C     C_R   0.664965 0.423174 0.780814 0.266181
C8    C     C_R   0.359759 0.604090 0.223068 0.258579
C9    C     C_1   0.501087 0.065438 0.501023 -0.061856
C10   C     C_1   0.499060 0.934552 0.501634 -0.059208
C11   C     C_R   0.499361 0.779679 0.501707 0.900797
C12   C     C_R   0.517383 0.492957 0.651466 0.952723
C13   C     C_R   0.482880 0.501457 0.348367 0.951343
C14   C     C_R   0.518845 0.473655 0.737896 -0.345764
C15   C     C_R   0.475918 0.504924 0.261115 -0.349120
C16   C     C_R   0.370253 0.502783 0.780863 0.291778
C17   C     C_R   0.558137 0.392933 0.217624 0.227372
C18   C     C_R   0.361106 0.431947 0.854725 0.320947
Cu1   Cu    Cu3+1 0.669080 0.500010 0.500000 1.160834
Cu2   Cu    Cu3+1 0.330920 0.499990 0.500000 1.126224
H1    H     H_    0.984158 0.388070 0.310663 0.364051
H2    H     H_    0.327122 0.884503 0.713871 0.390962
H3    H     H_    0.348370 0.032237 0.038320 0.413733
H4    H     H_    0.442957 0.034379 0.861202 0.403760
H5    H     H_    0.013362 0.349822 0.998944 0.418842
H6    H     H_    0.911839 0.813740 0.127479 0.408004
H7    H     H_    0.917302 0.089151 0.780115 0.403441
H8    H     H_    0.249376 0.997733 0.234823 0.395539
N1    N     N_1   0.076820 0.499970 0.500010 -0.002317
N2    N     N_1   0.923180 0.500030 0.499990 0.005570
N3    N     N_2   0.506857 0.453580 0.986208 -0.084390
N4    N     N_2   0.364340 0.458100 0.017820 -0.092135
O1    O     O_R   0.642760 0.288400 0.500000 -0.548764
O2    O     O_2   0.847233 0.233174 0.189817 -0.170246
O3    O     O_3   0.880293 0.441427 0.291218 -0.466603
O4    O     O_2   0.107128 0.654129 0.714913 -0.206638
O5    O     O_2   0.214702 0.738822 0.843819 -0.204179
O6    O     O_3   0.394573 0.791927 0.720294 -0.560878
O7    O     O_2   0.649446 0.175918 0.039076 -0.148683
O8    O     O_2   0.564481 0.069875 0.164763 -0.189281
O9    O     O_3   0.328363 0.131951 0.060140 -0.458537
O10   O     O_2   0.176928 0.204694 0.907762 -0.180450
O11   O     O_2   0.239398 0.208503 0.766633 -0.260195
O12   O     O_R   0.357240 0.711600 0.500000 -0.557932
O13   O     O_3   0.482407 0.137183 0.866140 -0.483729
O14   O     O_2   0.998634 0.494556 0.861936 -0.199085
O15   O     O_2   0.827921 0.615253 0.962699 -0.200851
O16   O     O_3   0.895589 0.334551 0.979027 -0.377140
O17   O     O_2   0.142250 0.709808 0.022632 -0.186689
O18   O     O_2   0.986225 0.530315 0.101156 -0.234893
O19   O     O_3   0.018837 0.788453 0.157031 -0.396220
O20   O     O_2   0.722412 0.210683 0.674629 -0.319532
O21   O     O_2   0.956727 0.379033 0.703164 -0.183624
O22   O     O_3   0.885214 0.180192 0.808577 -0.387463
O23   O     O_R   0.357190 0.288380 0.500000 -0.598063
O24   O     O_2   0.147415 0.759122 0.314603 -0.218090
O25   O     O_2   0.452002 0.813171 0.327491 -0.307931
O26   O     O_3   0.290826 0.911975 0.204322 -0.406208
O27   O     O_R   0.642810 0.711620 0.500000 -0.576038
O28   O     O_R   0.658410 0.498660 0.613920 -0.544045
O29   O     O_R   0.341590 0.501340 0.386080 -0.588362
O30   O     O_R   0.372840 0.498650 0.613930 -0.549707
O31   O     O_R   0.627160 0.501350 0.386070 -0.515742
O32   O     O_2   0.713312 0.201351 0.318358 -0.273075
S1    S     S_3+6 0.752342 0.310098 0.254265 0.109754
S2    S     S_3+6 0.264296 0.674561 0.765776 0.077484
S3    S     S_3+6 0.516454 0.179942 0.101282 0.134640
S4    S     S_3+6 0.307458 0.242686 0.848119 0.087001
S5    S     S_3+6 0.853924 0.475678 0.916947 0.172677
S6    S     S_3+6 0.111146 0.653655 0.104635 0.143176
S7    S     S_3+6 0.811306 0.297662 0.738331 0.127319
S8    S     S_3+6 0.310538 0.774015 0.270490 0.108079

loop_
_geom_bond_atom_site_label_1
_geom_bond_atom_site_label_2
_ccdc_geom_bond_type
C2    C4    A    
C6    S6    S    
N1    N2    T    
H1    O3    S    
O19   S6    S    
H8    O26   S    
Cu1   O28   S    
C7    C14   A    
C12   O30   A    
C9    C10   T    
C17   S1    S    
N3    N4    D    
H3    O9    S    
O16   S5    S    
Cu2   N1    S    
C13   O31   A    
O5    S2    D    
C3    C5    A    
O13   S4    S    
C13   C15   S    
O18   S6    D    
H7    O22   S    
C13   O29   A    
C11   O12   A    
O9    S3    S    
O20   S7    D    
H6    O19   S    
O32   S1    D    
C2    C17   A    
C3    N3    S    
H5    O16   S    
O26   S8    S    
C4    N4    S    
Cu2   O23   S    
C11   O27   A    
H4    O13   S    
O2    S1    D    
C16   C18   A    
Cu2   O12   S    
C12   C14   S    
C1    O23   A    
C8    C15   A    
O4    S2    D    
O17   S6    D    
O10   S4    D    
O25   S8    D    
Cu2   O30   S    
C14   C16   A    
C8    S8    S    
C4    C6    A    
C16   S2    S    
C10   C11   S    
O3    S1    S    
C18   S4    S    
H2    O6    S    
O6    S2    S    
C7    S7    S    
C1    C9    S    
C3    C18   A    
C5    C7    A    
C2    S3    S    
Cu1   O1    S    
Cu2   O29   S    
C15   C17   A    
C1    O1    A    
O15   S5    D    
O14   S5    D    
C6    C8    A    
Cu1   O27   S    
Cu1   N2    S    
O7    S3    D    
C5    S5    S    
C12   O28   A    
O22   S7    S    
Cu1   Cu2   S    
Cu1   O31   S    
O11   S4    D    
O24   S8    D    
O8    S3    D    
O21   S7    D    
