data_mof_unit_46437.cif
_audit_creation_date              2012-12-10T18:05:15-0500
_audit_creation_method            fapswitch 2.2
_symmetry_space_group_name_H-M    P1
_symmetry_Int_Tables_number       1
_space_group_crystal_system       triclinic
_cell_length_a                    9.586833
_cell_length_b                    10.814588
_cell_length_c                    16.988597
_cell_angle_alpha                 87.646261
_cell_angle_beta                  93.453061
_cell_angle_gamma                 89.122672
_cell_volume                      1756.37739878

loop_
_atom_site_label
_atom_site_type_symbol
_atom_type_description
_atom_site_fract_x
_atom_site_fract_y
_atom_site_fract_z
_atom_type_partial_charge
C1    C     C_R   0.500757 0.262274 0.500652 0.778443
C2    C     C_R   0.499481 0.737717 0.500021 0.778996
C3    C     C_R   0.381989 0.936345 0.522743 -0.183468
C4    C     C_R   0.620462 0.063535 0.480836 -0.191956
C5    C     C_R   0.499698 0.871654 0.500531 -0.012645
C6    C     C_R   0.501606 0.128292 0.501594 -0.015942
C7    C     C_R   0.083554 0.423774 0.550691 -0.064241
C8    C     C_R   0.916286 0.574052 0.448057 -0.059018
C9    C     C_R   0.935872 0.424187 0.552593 0.261289
C10   C     C_R   0.064170 0.578326 0.448833 0.260064
C11   C     C_R   0.516323 0.493934 0.650836 0.802344
C12   C     C_R   0.483608 0.506706 0.349147 0.800572
C13   C     C_R   0.518770 0.476668 0.736681 -0.046405
C14   C     C_R   0.480710 0.525976 0.263333 -0.055005
C15   C     C_R   0.416148 0.402720 0.769374 -0.249858
C16   C     C_R   0.587034 0.595830 0.230889 -0.248977
C17   C     C_R   0.403404 0.393684 0.850871 0.145935
C18   C     C_R   0.597426 0.607851 0.149315 0.146597
C19   C     C_R   0.493095 0.462242 0.900395 0.354984
C20   C     C_R   0.501823 0.545975 0.099395 0.356929
C21   C     C_R   0.600724 0.531909 0.867419 -0.198109
C22   C     C_R   0.390445 0.481120 0.132074 -0.198683
C23   C     C_R   0.613374 0.538675 0.786006 -0.249901
C24   C     C_R   0.379656 0.472048 0.213657 -0.250616
C25   C     C_R   0.382501 0.064296 0.522802 -0.184993
C26   C     C_R   0.619333 0.935605 0.480000 -0.183761
Cu1   Cu    Cu3+1 0.640660 0.500020 0.500000 0.928259
Cu2   Cu    Cu3+1 0.359340 0.499980 0.500000 0.929152
H1    H     H_    0.663121 0.640538 0.269531 0.141901
H2    H     H_    0.344482 0.352837 0.730908 0.139762
H3    H     H_    0.673442 0.582974 0.904368 0.161022
H4    H     H_    0.313209 0.435821 0.094641 0.159407
H5    H     H_    0.692646 0.596433 0.761496 0.153959
H6    H     H_    0.296196 0.419035 0.237931 0.158728
H7    H     H_    0.290726 0.888163 0.541212 0.150251
H8    H     H_    0.713264 0.111614 0.464234 0.149863
H9    H     H_    0.147456 0.362695 0.590633 0.133451
H10   H     H_    0.851997 0.632107 0.406524 0.136097
N1    N     N_2   0.471174 0.459960 0.982355 -0.266594
N2    N     N_2   0.522358 0.549128 0.017333 -0.267802
N3    N     N_R   0.852070 0.500030 0.499980 -0.194055
N4    N     N_R   0.147930 0.499970 0.500020 -0.194487
O1    O     O_R   0.618740 0.319660 0.500000 -0.605571
O2    O     O_R   0.381260 0.680340 0.500000 -0.587545
O3    O     O_R   0.381170 0.319630 0.500010 -0.584827
O4    O     O_R   0.618830 0.680370 0.499990 -0.584960
O5    O     O_R   0.631780 0.498870 0.613920 -0.579675
O6    O     O_R   0.368220 0.501130 0.386080 -0.599973
O7    O     O_R   0.394210 0.498840 0.613930 -0.579353
O8    O     O_R   0.605790 0.501160 0.386070 -0.580107
C27   C     C_3   0.715015 0.682116 0.116652 -0.411115
C28   C     C_3   0.660831 0.805471 0.078830 -0.816301
H11   H     H_    0.749659 0.858952 0.056989 0.238067
H12   H     H_    0.609033 0.860465 0.122947 0.250384
H13   H     H_    0.585205 0.790562 0.028161 0.261916
H14   H     H_    0.795444 0.701628 0.164253 0.194246
H15   H     H_    0.768307 0.628189 0.072553 0.208542
C29   C     C_3   0.289625 0.314931 0.883742 -0.409802
C30   C     C_3   0.350220 0.195274 0.923712 -0.814661
H16   H     H_    0.406585 0.141323 0.880876 0.249735
H17   H     H_    0.423371 0.215310 0.974579 0.262577
H18   H     H_    0.264186 0.138301 0.945684 0.238111
H19   H     H_    0.231815 0.367745 0.926551 0.208967
H20   H     H_    0.211894 0.290199 0.835957 0.194267
H21   H     H_    0.290360 0.112906 0.540195 0.142913
H22   H     H_    0.711593 0.886989 0.462768 0.146131
C31   C     C_3   0.880014 0.336996 0.614803 -0.377030
C32   C     C_3   0.915060 0.381359 0.697910 -0.855482
H23   H     H_    0.879385 0.478761 0.702430 0.268156
H24   H     H_    0.861994 0.322511 0.741685 0.246662
H25   H     H_    0.029416 0.375112 0.712756 0.230421
H26   H     H_    0.767698 0.322863 0.608204 0.258597
H27   H     H_    0.927828 0.243497 0.609891 0.159688
C33   C     C_3   0.120349 0.672998 0.390979 -0.371157
C34   C     C_3   0.074853 0.805001 0.408296 -0.892097
H28   H     H_    0.091198 0.821231 0.472198 0.258501
H29   H     H_    0.136890 0.872702 0.374787 0.252430
H30   H     H_    0.962789 0.821700 0.390098 0.235318
H31   H     H_    0.233672 0.672713 0.389967 0.263653
H32   H     H_    0.080736 0.652096 0.330198 0.168886

loop_
_geom_bond_atom_site_label_1
_geom_bond_atom_site_label_2
_ccdc_geom_bond_type
C4    H8    S    
C10   N4    A    
C11   C13   S    
C11   O5    A    
C12   O6    A    
C2    O4    A    
C21   H3    S    
C22   H4    S    
C19   C21   A    
C27   H14   S    
C20   N2    S    
C6    C25   A    
C13   C23   A    
C15   C17   A    
C31   H26   S    
C7    N4    A    
C14   C24   A    
C1    O1    A    
C2    O2    A    
C32   H23   S    
C23   H5    S    
C31   H27   S    
C14   C16   A    
Cu1   O8    S    
C17   C29   S    
C30   H16   S    
C33   H32   S    
C8    H10   S    
C31   C32   S    
C28   H12   S    
C18   C27   S    
C29   H20   S    
Cu2   O3    S    
C30   H17   S    
C33   C34   S    
C27   C28   S    
C26   H22   S    
C3    C25   A    
C25   H21   S    
C8    N3    A    
C4    C6    A    
N1    N2    D    
C16   H1    S    
Cu2   O2    S    
C24   H6    S    
C1    C6    S    
C34   H28   S    
C9    C31   S    
C11   O7    A    
Cu2   O7    S    
Cu1   N3    S    
C12   O8    A    
C3    H7    S    
C7    H9    S    
C16   C18   A    
C34   H29   S    
C19   N1    S    
C27   H15   S    
Cu1   O4    S    
C8    C10   A    
C12   C14   S    
C33   H31   S    
C13   C15   A    
C22   C24   A    
C2    C5    S    
C28   H11   S    
C15   H2    S    
Cu1   O5    S    
C29   H19   S    
C7    C9    A    
Cu2   O6    S    
C30   H18   S    
C20   C22   A    
C3    C5    A    
C4    C26   A    
C28   H13   S    
C9    N3    A    
C21   C23   A    
C29   C30   S    
C10   C33   S    
C1    O3    A    
C32   H25   S    
Cu2   N4    S    
C17   C19   A    
C18   C20   A    
C34   H30   S    
C5    C26   A    
Cu1   O1    S    
C32   H24   S    
Cu1   Cu2   S    
