data_mof_unit_54649.cif
_audit_creation_date              2012-12-10T19:52:21-0500
_audit_creation_method            fapswitch 2.2
_symmetry_space_group_name_H-M    P1
_symmetry_Int_Tables_number       1
_space_group_crystal_system       triclinic
_cell_length_a                    15.107288
_cell_length_b                    14.287148
_cell_length_c                    10.697282
_cell_angle_alpha                 89.894705
_cell_angle_beta                  92.535445
_cell_angle_gamma                 89.510738
_cell_volume                      2306.55190487

loop_
_atom_site_label
_atom_site_type_symbol
_atom_type_description
_atom_site_fract_x
_atom_site_fract_y
_atom_site_fract_z
_atom_type_partial_charge
C1    C     C_R   0.327820 0.500530 0.503133 0.842011
C2    C     C_R   0.904801 0.581795 0.487129 -0.219623
C3    C     C_R   0.813420 0.414089 0.442619 -0.014566
C4    C     C_R   0.813595 0.584992 0.470404 -0.013931
C5    C     C_R   0.766460 0.499380 0.464069 -0.160507
C6    C     C_R   0.950868 0.497414 0.476725 0.114252
C7    C     C_R   0.466666 0.105686 0.397405 -0.349469
C8    C     C_R   0.451076 0.896147 0.412038 -0.293393
C9    C     C_R   0.495182 0.500472 0.257598 0.846052
C10   C     C_R   0.461508 0.204041 0.402007 0.336886
C11   C     C_R   0.451040 0.797248 0.410075 0.329937
C12   C     C_3   0.578388 0.497793 0.929994 -0.381726
C13   C     C_R   0.541603 0.203545 0.596903 0.354616
C14   C     C_R   0.549332 0.794527 0.591074 0.344640
C15   C     C_R   0.540717 0.104937 0.599109 -0.353843
C16   C     C_R   0.552772 0.893582 0.588759 -0.287641
C17   C     C_R   0.504012 0.053173 0.498358 0.115040
C18   C     C_R   0.502992 0.946557 0.499654 0.058879
C19   C     C_R   0.671378 0.499658 0.487801 0.856428
C20   C     C_R   0.486748 0.500924 0.739811 0.817836
C21   C     C_3   0.456819 0.600158 0.071994 -0.345027
C22   C     C_3   0.420389 0.429412 0.070638 -0.461645
C23   C     C_R   0.092353 0.572738 0.436630 -0.251708
C24   C     C_3   0.434484 0.596568 0.929573 0.016328
C25   C     C_3   0.424431 0.421088 0.926796 0.047051
C26   C     C_3   0.580093 0.480765 0.070756 -0.461918
C27   C     C_3   0.488030 0.502485 0.120638 0.093121
C28   C     C_3   0.481221 0.504432 0.876894 0.051367
C29   C     C_R   0.770470 0.325565 0.399367 0.134987
C30   C     C_R   0.796242 0.238550 0.452063 -0.201396
C31   C     C_R   0.755386 0.156111 0.410266 -0.126429
C32   C     C_R   0.690229 0.159377 0.313512 -0.114857
C33   C     C_R   0.666501 0.244880 0.257561 -0.138545
C34   C     C_R   0.093605 0.423596 0.544340 -0.210937
C35   C     C_R   0.707213 0.327289 0.299420 -0.070118
C36   C     C_R   0.772660 0.678466 0.443185 0.151993
C37   C     C_R   0.722123 0.692929 0.330948 -0.082333
C38   C     C_R   0.688269 0.781774 0.300199 -0.142482
C39   C     C_R   0.706310 0.857440 0.379492 -0.111038
C40   C     C_R   0.757217 0.844152 0.490477 -0.142297
C41   C     C_R   0.790084 0.755085 0.522620 -0.187837
C42   C     C_3   0.321920 0.252146 0.306186 -0.780784
C43   C     C_3   0.338749 0.799117 0.230895 -0.919653
C44   C     C_3   0.675309 0.256791 0.706125 -0.797296
C45   C     C_R   0.183035 0.578929 0.454470 0.184577
C46   C     C_3   0.640972 0.789943 0.792366 -0.843838
C47   C     C_3   0.429198 0.771386 0.929896 -0.832797
C48   C     C_3   0.395880 0.252908 0.898443 -0.836341
C49   C     C_3   0.228168 0.730668 0.526300 -0.754069
C50   C     C_3   0.193829 0.259436 0.633100 -0.834017
C51   C     C_R   0.186123 0.423721 0.553446 0.175930
C52   C     C_R   0.231320 0.501777 0.505887 -0.157051
C53   C     C_R   0.047193 0.497051 0.484428 0.049952
C54   C     C_R   0.905528 0.414957 0.449699 -0.224767
H1    H     H_    0.510912 0.650589 0.094029 0.209909
H2    H     H_    0.355938 0.428889 0.884669 0.102223
H3    H     H_    0.632036 0.525017 0.117335 0.154000
H4    H     H_    0.597402 0.406273 0.089145 0.172759
H5    H     H_    0.613103 0.564327 0.910483 0.192892
H6    H     H_    0.615871 0.440495 0.884961 0.174048
H7    H     H_    0.057162 0.629559 0.388576 0.136482
H8    H     H_    0.057090 0.367654 0.586002 0.149369
H9    H     H_    0.942358 0.351565 0.430229 0.134912
H10   H     H_    0.940185 0.646602 0.502889 0.132147
H11   H     H_    0.846058 0.234832 0.527923 0.126521
H12   H     H_    0.435410 0.361123 0.114539 0.210637
H13   H     H_    0.774019 0.089749 0.453214 0.122853
H14   H     H_    0.658352 0.095689 0.281540 0.119002
H15   H     H_    0.616529 0.247227 0.181917 0.107452
H16   H     H_    0.689454 0.393196 0.255642 0.092588
H17   H     H_    0.709330 0.635374 0.267157 0.098599
H18   H     H_    0.648687 0.792084 0.214352 0.123550
H19   H     H_    0.680385 0.926272 0.355381 0.124625
H20   H     H_    0.770772 0.902857 0.551994 0.120231
H21   H     H_    0.829277 0.745904 0.609063 0.125475
H22   H     H_    0.437309 0.227945 0.216729 0.185038
H23   H     H_    0.440271 0.072690 0.313431 0.136203
H24   H     H_    0.292965 0.299963 0.233060 0.226934
H25   H     H_    0.300633 0.276352 0.398603 0.290160
H26   H     H_    0.296121 0.180497 0.288678 0.215500
H27   H     H_    0.379907 0.683817 0.337130 0.297837
H28   H     H_    0.288876 0.836938 0.285376 0.250588
H29   H     H_    0.302774 0.749141 0.168202 0.236919
H30   H     H_    0.374205 0.849018 0.171705 0.257369
H31   H     H_    0.561666 0.219450 0.783779 0.208955
H32   H     H_    0.698750 0.290358 0.794992 0.217525
H33   H     H_    0.697024 0.300582 0.629057 0.285108
H34   H     H_    0.408970 0.933566 0.345680 0.159520
H35   H     H_    0.706055 0.185991 0.700940 0.217901
H36   H     H_    0.631904 0.685929 0.657954 0.278045
H37   H     H_    0.699793 0.828117 0.761091 0.226510
H38   H     H_    0.663637 0.737347 0.863604 0.244416
H39   H     H_    0.594776 0.838942 0.837292 0.255051
H40   H     H_    0.422191 0.688639 0.779998 0.261292
H41   H     H_    0.433060 0.831374 0.864073 0.235045
H42   H     H_    0.475711 0.786407 0.010195 0.253445
H43   H     H_    0.360025 0.767523 0.960374 0.236250
H44   H     H_    0.518848 0.312693 0.938127 0.231932
H45   H     H_    0.568577 0.070902 0.682018 0.133768
H46   H     H_    0.425723 0.187926 0.861638 0.229395
H47   H     H_    0.335359 0.269246 0.840161 0.254208
H48   H     H_    0.377086 0.239379 0.995880 0.231892
H49   H     H_    0.197871 0.694656 0.342512 0.218513
H50   H     H_    0.160268 0.753155 0.549673 0.220159
H51   H     H_    0.265864 0.793319 0.499540 0.236317
H52   H     H_    0.262244 0.698963 0.610478 0.245820
H53   H     H_    0.277078 0.371054 0.688380 0.220144
H54   H     H_    0.245953 0.206778 0.658869 0.246162
H55   H     H_    0.159606 0.236284 0.544550 0.248049
H56   H     H_    0.596708 0.928566 0.654630 0.150955
H57   H     H_    0.146418 0.262991 0.709414 0.233289
H58   H     H_    0.396703 0.622872 0.120070 0.161482
H59   H     H_    0.352296 0.449800 0.096442 0.145087
H60   H     H_    0.361328 0.587228 0.917680 0.088298
N1    N     N_R   0.499980 0.252470 0.500000 -0.110010
N2    N     N_2   0.234498 0.349715 0.616343 -0.284570
N3    N     N_R   0.499980 0.747530 0.500000 -0.169059
N4    N     N_2   0.417464 0.252412 0.301758 -0.273189
N5    N     N_2   0.401220 0.748829 0.313783 -0.286002
N6    N     N_2   0.579881 0.250752 0.702375 -0.249621
N7    N     N_2   0.596995 0.742735 0.687446 -0.259391
N8    N     N_2   0.453538 0.685406 0.867404 -0.239504
N9    N     N_2   0.458597 0.329145 0.894250 -0.258597
N10   N     N_2   0.224144 0.664528 0.423743 -0.293185
O1    O     O_R   0.369070 0.579480 0.500010 -0.629047
O2    O     O_R   0.369070 0.420520 0.500010 -0.599244
O3    O     O_R   0.499990 0.579480 0.314790 -0.647254
O4    O     O_R   0.499990 0.420520 0.314790 -0.603896
O5    O     O_R   0.630940 0.579480 0.499990 -0.632526
O6    O     O_R   0.630940 0.420520 0.499990 -0.603724
O7    O     O_R   0.500020 0.579480 0.685200 -0.633461
O8    O     O_R   0.500020 0.420520 0.685200 -0.561577
Zn1   Zn    Zn3+2 0.500010 0.606140 0.500000 0.926243
Zn2   Zn    Zn3+2 0.500010 0.393860 0.500000 0.988258

loop_
_geom_bond_atom_site_label_1
_geom_bond_atom_site_label_2
_ccdc_geom_bond_type
C19   O5    A    
C7    C10   A    
C4    C36   S    
C24   H60   S    
C23   C45   A    
C43   H29   S    
C25   H2    S    
C11   N5    S    
C13   N6    S    
C49   H50   S    
C16   H56   S    
C2    C6    A    
C25   C28   S    
C31   H13   S    
C26   C27   S    
C9    O3    A    
C12   C28   S    
C36   C37   A    
C1    O1    A    
C30   C31   A    
C3    C54   A    
C46   H38   S    
C54   H9    S    
C44   N6    S    
C34   H8    S    
C3    C29   S    
C22   H12   S    
C12   H5    S    
C22   H59   S    
C35   H16   S    
C7    C17   A    
C22   C25   S    
C47   H42   S    
C46   N7    S    
C44   H33   S    
C33   H15   S    
C7    H23   S    
C19   O6    A    
C21   C27   S    
N3    Zn1   S    
C42   H25   S    
C14   N7    S    
C50   H54   S    
C43   H30   S    
C36   C41   A    
O6    Zn2   S    
C48   N9    S    
C44   H32   S    
H49   N10   S    
C1    C52   S    
C2    H10   S    
C23   C53   A    
C45   N10   S    
H44   N9    S    
C48   H46   S    
C38   H18   S    
C9    O4    A    
C51   C52   A    
C24   C28   S    
C1    O2    A    
C39   C40   A    
C21   H1    S    
C42   N4    S    
C47   N8    S    
C49   H51   S    
C46   H37   S    
C20   C28   S    
C45   C52   A    
O7    Zn1   S    
C49   N10   S    
C50   H55   S    
H22   N4    S    
C12   C26   S    
C8    H34   S    
C20   O8    A    
H31   N6    S    
C2    C4    A    
C37   C38   A    
C10   N4    S    
O4    Zn2   S    
C41   H21   S    
C25   N9    S    
C31   C32   A    
C14   N3    A    
C48   H48   S    
C24   N8    S    
C17   C18   S    
C34   C51   A    
C26   H4    S    
C13   N1    A    
O5    Zn1   S    
H40   N8    S    
C16   C18   A    
C40   C41   A    
C6    C54   A    
C22   C27   S    
C37   H17   S    
H36   N7    S    
C14   C16   A    
C20   O7    A    
C11   N3    A    
C21   H58   S    
C9    C27   S    
O1    Zn1   S    
C15   C17   A    
H27   N5    S    
O3    Zn1   S    
C15   H45   S    
C4    C5    A    
C3    C5    A    
C42   H24   S    
C49   H52   S    
C5    C19   S    
N1    Zn2   S    
C29   C35   A    
C51   N2    S    
C47   H43   S    
C32   H14   S    
C32   C33   A    
C13   C15   A    
C38   C39   A    
C46   H39   S    
C8    C11   A    
C48   H47   S    
C50   H57   S    
C33   C35   A    
C40   H20   S    
C50   N2    S    
C39   H19   S    
C26   H3    S    
C8    C18   A    
H53   N2    S    
C30   H11   S    
C10   N1    A    
C29   C30   A    
C12   H6    S    
C23   H7    S    
O2    Zn2   S    
C34   C53   A    
O8    Zn2   S    
C21   C24   S    
C42   H26   S    
C43   H28   S    
C47   H41   S    
C6    C53   S    
C44   H35   S    
C43   N5    S    
