data_mof_unit_22132.cif
_audit_creation_date              2012-12-10T19:00:44-0500
_audit_creation_method            fapswitch 2.2
_symmetry_space_group_name_H-M    P1
_symmetry_Int_Tables_number       1
_space_group_crystal_system       triclinic
_cell_length_a                    15.057033
_cell_length_b                    10.815403
_cell_length_c                    9.567478
_cell_angle_alpha                 89.960456
_cell_angle_beta                  89.89733
_cell_angle_gamma                 90.053011
_cell_volume                      1558.03996692

loop_
_atom_site_label
_atom_site_type_symbol
_atom_type_description
_atom_site_fract_x
_atom_site_fract_y
_atom_site_fract_z
_atom_type_partial_charge
C1    C     C_R   0.498533 0.262392 0.500031 0.802633
C2    C     C_R   0.907046 0.555200 0.385084 0.055143
C3    C     C_R   0.953266 0.399227 0.725935 -0.200787
C4    C     C_R   0.045778 0.401139 0.727406 -0.208194
C5    C     C_R   0.092829 0.451937 0.614700 0.114436
C6    C     C_R   0.046635 0.502142 0.499508 0.061811
C7    C     C_R   0.093679 0.551806 0.384945 0.091061
C8    C     C_R   0.047719 0.602562 0.271595 -0.253682
C9    C     C_R   0.954936 0.605220 0.270899 -0.020663
C10   C     C_R   0.185413 0.452940 0.614876 -0.247583
C11   C     C_R   0.232055 0.500974 0.500230 -0.066360
C12   C     C_R   0.328773 0.500172 0.500112 0.811694
C13   C     C_R   0.186246 0.549785 0.385488 -0.234733
C14   C     C_R   0.492472 0.063551 0.625680 0.105618
C15   C     C_R   0.490074 0.129223 0.500161 -0.092879
C16   C     C_R   0.475383 0.064449 0.374933 -0.209861
C17   C     C_R   0.475440 0.935570 0.374952 -0.200421
C18   C     C_R   0.490177 0.870715 0.500182 -0.118410
C19   C     C_R   0.492452 0.936178 0.625848 0.096175
C20   C     C_3   0.557712 0.929833 0.743314 -0.222767
C21   C     C_3   0.557243 0.070658 0.743712 -0.498253
C22   C     C_R   0.576439 0.480072 0.073323 0.248039
C23   C     C_R   0.498585 0.737592 0.499971 0.797229
C24   C     C_R   0.423155 0.513122 0.074255 -0.059177
C25   C     C_R   0.423138 0.512898 0.926079 -0.057464
C26   C     C_R   0.576537 0.480926 0.925982 0.235881
C27   C     C_3   0.657693 0.559958 0.921000 -0.453748
C28   C     C_3   0.658392 0.557121 0.078906 -0.473912
C29   C     C_R   0.671252 0.500363 0.499959 0.806444
C30   C     C_R   0.814073 0.556415 0.389119 -0.247988
C31   C     C_R   0.768041 0.501284 0.499974 -0.066371
C32   C     C_R   0.814372 0.447401 0.610843 -0.243141
C33   C     C_R   0.906812 0.449582 0.612603 0.123486
C34   C     C_R   0.953466 0.502415 0.498961 0.048785
Cu1   Cu    Cu3+1 0.500000 0.499980 0.640670 0.946386
Cu2   Cu    Cu3+1 0.500000 0.500020 0.359330 0.946845
H1    H     H_    0.468025 0.887409 0.276455 0.188538
H2    H     H_    0.622419 0.888151 0.712932 0.146108
H3    H     H_    0.527189 0.113433 0.838386 0.199799
H4    H     H_    0.621862 0.111658 0.711335 0.188185
H5    H     H_    0.360877 0.525352 0.872170 0.141610
H6    H     H_    0.715552 0.511331 0.875185 0.193798
H7    H     H_    0.644680 0.653346 0.876920 0.215895
H8    H     H_    0.715439 0.503738 0.120654 0.194472
H9    H     H_    0.778473 0.402283 0.694784 0.135665
H10   H     H_    0.647187 0.649171 0.127579 0.221070
H11   H     H_    0.917998 0.358931 0.813712 0.144875
H12   H     H_    0.080539 0.362286 0.816242 0.144739
H13   H     H_    0.221185 0.414477 0.703059 0.144629
H14   H     H_    0.222704 0.587836 0.297525 0.143577
H15   H     H_    0.084239 0.640377 0.183477 0.149690
H16   H     H_    0.467957 0.112663 0.276385 0.170089
N1    N     N_R   0.500570 0.500930 0.147930 -0.183853
N2    N     N_R   0.500570 0.500890 0.852020 -0.184703
O1    O     O_R   0.500000 0.319640 0.618810 -0.577645
O2    O     O_R   0.500010 0.319680 0.381230 -0.583323
O3    O     O_R   0.370250 0.499950 0.618800 -0.594735
O4    O     O_R   0.370260 0.499990 0.381220 -0.595800
O5    O     O_R   0.499990 0.680320 0.618770 -0.574071
O6    O     O_R   0.500000 0.680360 0.381190 -0.576356
O7    O     O_R   0.629740 0.500010 0.618780 -0.588238
O8    O     O_R   0.629750 0.500050 0.381200 -0.585332
H17   H     H_    0.776964 0.602033 0.307585 0.153063
C35   C     C_1   0.518407 0.875087 0.869966 0.301882
N3    N     N_1   0.487606 0.831820 0.969559 -0.313713
H18   H     H_    0.360906 0.525833 0.128406 0.138117
C36   C     C_1   0.910918 0.657765 0.150499 0.217051
N4    N     N_1   0.875707 0.699716 0.054059 -0.290355

loop_
_geom_bond_atom_site_label_1
_geom_bond_atom_site_label_2
_ccdc_geom_bond_type
C20   C35   S    
C7    C13   A    
C16   H16   S    
C11   C12   S    
C9    C36   S    
C24   C25   A    
C27   H6    S    
C6    C7    A    
C1    C15   S    
C20   H2    S    
C32   H9    S    
C31   C32   A    
C19   C20   S    
C21   H3    S    
C24   H18   S    
Cu1   O3    S    
C12   O4    A    
C32   C33   A    
C2    C34   A    
C17   C18   A    
C1    O1    A    
C5    C10   A    
C29   C31   S    
C17   H1    S    
C30   H17   S    
C25   N2    A    
Cu1   N2    S    
C23   O5    A    
C5    C6    A    
C11   C13   A    
C8    H15   S    
C28   H10   S    
C26   C27   S    
C30   C31   A    
C21   H4    S    
Cu1   Cu2   S    
Cu2   O8    S    
C12   O3    A    
C26   N2    A    
C14   C21   S    
C3    H11   S    
C13   H14   S    
C1    O2    A    
C33   C34   A    
C22   N1    A    
Cu2   O4    S    
C22   C26   A    
C23   O6    A    
Cu1   O5    S    
C29   O7    A    
C6    C34   A    
C10   C11   A    
C3    C33   A    
Cu1   O1    S    
C36   N4    T    
C27   H7    S    
C7    C8    A    
C2    C9    A    
C2    C30   A    
C20   C21   S    
Cu1   O7    S    
C18   C19   A    
C4    H12   S    
Cu2   O2    S    
C25   H5    S    
C27   C28   S    
C14   C15   A    
C16   C17   A    
C22   C28   S    
Cu2   N1    S    
C24   N1    A    
C29   O8    A    
C10   H13   S    
C4    C5    A    
C14   C19   A    
C28   H8    S    
C15   C16   A    
C3    C4    A    
C18   C23   S    
C8    C9    A    
Cu2   O6    S    
C35   N3    T    
