data_mof_unit_48973.cif
_audit_creation_date              2012-12-10T17:50:48-0500
_audit_creation_method            fapswitch 2.2
_symmetry_space_group_name_H-M    P1
_symmetry_Int_Tables_number       1
_space_group_crystal_system       triclinic
_cell_length_a                    14.604074
_cell_length_b                    14.591656
_cell_length_c                    15.862317
_cell_angle_alpha                 76.734143
_cell_angle_beta                  102.387238
_cell_angle_gamma                 115.569117
_cell_volume                      2942.03393969

loop_
_atom_site_label
_atom_site_type_symbol
_atom_type_description
_atom_site_fract_x
_atom_site_fract_y
_atom_site_fract_z
_atom_type_partial_charge
C1    C     C_R   0.879522 0.311231 0.518837 0.798832
C2    C     C_R   0.354484 0.931114 0.529153 0.021202
C3    C     C_R   0.668877 0.007198 0.610860 -0.041140
C4    C     C_R   0.318158 0.008524 0.489207 0.010500
C5    C     C_R   0.527641 0.062101 0.550517 -0.111970
C6    C     C_R   0.457403 0.959025 0.569788 -0.132643
C7    C     C_R   0.493333 0.887450 0.627684 0.303218
C8    C     C_R   0.488710 0.140186 0.520580 0.281087
C9    C     C_R   0.599050 0.910342 0.645015 0.383394
C10   C     C_R   0.383900 0.112835 0.488842 0.389165
C11   C     C_R   0.713607 0.662596 0.344425 0.300332
C12   C     C_R   0.120368 0.689073 0.485519 0.827667
C13   C     C_R   0.298634 0.361326 0.670190 0.311382
C14   C     C_R   0.795404 0.631702 0.371669 0.010963
C15   C     C_R   0.209356 0.377562 0.633727 0.025535
C16   C     C_R   0.999372 0.500115 0.660017 0.811901
C17   C     C_R   0.000639 0.499972 0.339958 0.828454
C18   C     C_R   0.717268 0.518841 0.492640 0.023113
C19   C     C_R   0.286084 0.486452 0.511120 0.010528
C20   C     C_R   0.636940 0.553675 0.474826 -0.115682
C21   C     C_R   0.382275 0.481349 0.546627 -0.114836
C22   C     C_R   0.630453 0.620601 0.394789 0.058593
C23   C     C_R   0.774550 0.030838 0.626747 -0.125214
C24   C     C_R   0.387322 0.412260 0.625698 0.052314
C25   C     C_R   0.559720 0.517827 0.531542 0.018707
C26   C     C_R   0.471218 0.539160 0.502626 -0.003328
C27   C     C_R   0.477167 0.621633 0.433061 0.073579
C28   C     C_R   0.570916 0.468145 0.618944 0.098427
C29   C     C_R   0.543595 0.646610 0.370479 0.174804
C30   C     C_R   0.482068 0.401298 0.659276 0.176319
C31   C     C_3   0.924756 0.413244 0.031850 -0.195065
C32   C     C_3   0.074838 0.588185 0.967684 -0.193146
C33   C     C_3   0.907980 0.495160 0.955576 -0.202395
C34   C     C_R   0.215886 0.980444 0.449936 -0.219817
C35   C     C_3   0.091598 0.506280 0.043951 -0.196051
C36   C     C_1   0.998261 0.500771 0.749334 -0.175909
C37   C     C_1   0.001740 0.499749 0.250516 -0.175808
C38   C     C_3   0.015286 0.420196 0.991517 0.211145
C39   C     C_3   0.984308 0.581248 0.008043 0.209817
C40   C     C_3   0.998692 0.501160 0.916553 0.107843
C41   C     C_3   0.000895 0.500245 0.082994 0.107299
C42   C     C_1   0.998031 0.501175 0.824740 -0.064808
C43   C     C_1   0.001756 0.499820 0.174950 -0.065157
C44   C     C_R   0.810559 0.202868 0.545501 -0.167476
C45   C     C_R   0.845449 0.129110 0.598993 0.374047
C46   C     C_R   0.187388 0.799815 0.482915 -0.101639
C47   C     C_3   0.433891 0.698712 0.437889 -0.432078
C48   C     C_3   0.516691 0.808084 0.438221 -0.792654
C49   C     C_3   0.675550 0.506279 0.675336 -0.433626
C50   C     C_3   0.673820 0.551932 0.752487 -0.807769
C51   C     C_3   0.966871 0.673031 0.020382 -0.420078
C52   C     C_3   0.954485 0.740162 0.933302 -0.797259
C53   C     C_3   0.032899 0.328417 0.979442 -0.417515
C54   C     C_3   0.047098 0.262568 0.066843 -0.807083
C55   C     C_3   0.513901 0.692843 0.277614 -0.332336
C56   C     C_R   0.149798 0.876804 0.447021 0.393000
C57   C     C_3   0.487520 0.619270 0.212721 -0.788107
C58   C     C_3   0.491349 0.319299 0.736401 -0.332470
C59   C     C_3   0.429162 0.209829 0.715434 -0.719920
C60   C     C_R   0.705092 0.175533 0.523550 -0.264813
C61   C     C_R   0.289466 0.828161 0.520930 -0.306701
C62   C     C_R   0.633674 0.082965 0.562690 0.021872
Cu1   Cu    Cu3+1 0.081740 0.475690 0.522610 0.951321
Cu2   Cu    Cu3+1 0.918260 0.524310 0.477390 0.964287
H1    H     H_    0.833099 0.491167 0.918321 0.142494
H2    H     H_    0.679225 0.228252 0.475920 0.221559
H3    H     H_    0.803379 0.974941 0.665342 0.209235
H4    H     H_    0.187029 0.039125 0.420335 0.188920
H5    H     H_    0.781142 0.758143 0.246106 0.321527
H6    H     H_    0.232810 0.272407 0.771847 0.321232
H7    H     H_    0.550160 0.838819 0.376052 0.244856
H8    H     H_    0.482515 0.859795 0.446085 0.243739
H9    H     H_    0.578601 0.809314 0.493235 0.266495
H10   H     H_    0.371514 0.698194 0.383644 0.189336
H11   H     H_    0.401384 0.679284 0.499897 0.228674
H12   H     H_    0.166442 0.510164 0.081263 0.143001
H13   H     H_    0.642325 0.611711 0.729084 0.272162
H14   H     H_    0.627616 0.492189 0.801535 0.238154
H15   H     H_    0.753103 0.588311 0.785353 0.237280
H16   H     H_    0.704274 0.444517 0.698487 0.190547
H17   H     H_    0.733924 0.570422 0.637921 0.227750
H18   H     H_    0.024364 0.770549 0.900830 0.250877
H19   H     H_    0.887431 0.695173 0.889680 0.249388
H20   H     H_    0.942152 0.806057 0.944680 0.249404
H21   H     H_    0.896875 0.644490 0.052370 0.208309
H22   H     H_    0.033203 0.719760 0.063656 0.205375
H23   H     H_    0.275542 0.529907 0.447754 0.138054
H24   H     H_    0.114638 0.308537 0.109605 0.252508
H25   H     H_    0.977854 0.232152 0.100180 0.251704
H26   H     H_    0.059629 0.196676 0.055717 0.246144
H27   H     H_    0.966070 0.280809 0.937099 0.203656
H28   H     H_    0.102227 0.356922 0.946546 0.208849
H29   H     H_    0.579348 0.772285 0.708066 0.370031
H30   H     H_    0.398171 0.256231 0.457289 0.373613
H31   H     H_    0.035925 0.912831 0.386148 0.321046
H32   H     H_    0.974801 0.212505 0.655425 0.315256
H33   H     H_    0.370684 0.812998 0.684080 0.336833
H34   H     H_    0.718759 0.458475 0.546293 0.149790
H35   H     H_    0.599892 0.244616 0.581340 0.322845
H36   H     H_    0.553312 0.601471 0.210268 0.278154
H37   H     H_    0.422154 0.546191 0.231503 0.234661
H38   H     H_    0.465059 0.654703 0.146297 0.236550
H39   H     H_    0.444279 0.707189 0.272614 0.181410
H40   H     H_    0.573170 0.769422 0.256845 0.251417
H41   H     H_    0.352380 0.199175 0.678965 0.283812
H42   H     H_    0.470531 0.191243 0.675558 0.234513
H43   H     H_    0.419585 0.154183 0.777130 0.231275
H44   H     H_    0.570983 0.325619 0.755739 0.176087
H45   H     H_    0.143814 0.343326 0.668953 0.117872
H46   H     H_    0.470966 0.329697 0.795890 0.242596
H47   H     H_    0.860262 0.664977 0.335496 0.149167
H48   H     H_    0.863873 0.341356 0.059337 0.143450
H49   H     H_    0.135735 0.660040 0.940171 0.144925
H50   H     H_    0.318236 0.768731 0.542692 0.216066
N1    N     N_R   0.795440 0.560790 0.443380 -0.198496
N2    N     N_R   0.204560 0.439210 0.556620 -0.192243
O1    O     O_R   0.977900 0.338120 0.529810 -0.555387
O2    O     O_3   0.300931 0.302013 0.751465 -0.755714
O3    O     O_3   0.636445 0.840131 0.696227 -0.746541
O4    O     O_3   0.343400 0.186191 0.457004 -0.741188
O5    O     O_3   0.049578 0.849940 0.407645 -0.727687
O6    O     O_3   0.947317 0.150390 0.627093 -0.717130
O7    O     O_3   0.428737 0.799830 0.674905 -0.755920
O8    O     O_3   0.548231 0.242096 0.528917 -0.774570
O9    O     O_R   0.022100 0.661880 0.470190 -0.515730
O10   O     O_R   0.839850 0.379180 0.491620 -0.579951
O11   O     O_R   0.160150 0.620820 0.508380 -0.598171
O12   O     O_R   0.069010 0.479460 0.640020 -0.586228
O13   O     O_R   0.930990 0.520540 0.359980 -0.581251
O14   O     O_R   0.930960 0.520530 0.601820 -0.583177
O15   O     O_R   0.069040 0.479470 0.398180 -0.574517
O16   O     O_3   0.718375 0.738207 0.272788 -0.754847

loop_
_geom_bond_atom_site_label_1
_geom_bond_atom_site_label_2
_ccdc_geom_bond_type
C39   C51   S    
C21   C26   A    
C34   C56   A    
C23   C45   A    
C22   C29   A    
C17   O15   A    
C15   H45   S    
C36   C42   T    
C50   H15   S    
C51   H21   S    
C13   O2    S    
C33   H1    S    
C39   C41   S    
C12   O11   A    
C53   C54   S    
C25   C28   A    
C57   H38   S    
C26   C27   A    
C33   C39   S    
C19   C21   A    
H6    O2    S    
C54   H26   S    
C19   H23   S    
C5    C6    A    
Cu1   O1    S    
C11   C14   A    
C27   C29   A    
C20   C25   A    
C23   H3    S    
C14   N1    A    
C55   H39   S    
C60   C62   A    
C32   C39   S    
C49   H17   S    
C52   H20   S    
C3    C23   A    
H30   O4    S    
C53   H27   S    
C31   H48   S    
C31   C33   S    
Cu1   O15   S    
C32   H49   S    
C16   O14   A    
C58   H44   S    
Cu1   O12   S    
C2    C61   A    
H31   O5    S    
C40   C42   S    
C60   H2    S    
Cu2   N1    S    
C11   O16   S    
H29   O3    S    
C41   C43   S    
C2    C6    A    
C48   H8    S    
C50   H14   S    
C51   H22   S    
C14   H47   S    
C4    C34   A    
C35   H12   S    
C59   H42   S    
C46   C61   A    
C17   O13   A    
C51   C52   S    
C33   C40   S    
C32   C35   S    
C35   C38   S    
C1    O10   A    
C54   H25   S    
C12   C46   S    
C34   H4    S    
C8    O8    S    
C17   C37   S    
C12   O9    A    
C29   C55   S    
C25   C26   A    
C57   H36   S    
C55   H40   S    
C59   H43   S    
C13   C24   A    
C37   C43   T    
C52   H19   S    
C2    C4    A    
C3    C9    A    
C28   C49   S    
C1    C44   S    
C47   C48   S    
C53   H28   S    
C59   H41   S    
C52   H18   S    
C16   O12   A    
Cu1   N2    S    
Cu2   O14   S    
Cu2   O9    S    
Cu2   O10   S    
C55   C57   S    
C9    O3    S    
C48   H7    S    
C4    C10   A    
C50   H13   S    
C44   C45   A    
C3    C62   A    
C27   C47   S    
C7    C9    A    
C31   C41   S    
C58   H46   S    
C48   H9    S    
C47   H10   S    
C20   C22   A    
C18   N1    A    
C5    C8    A    
C49   H16   S    
C6    C7    A    
C45   O6    S    
C57   H37   S    
C11   C22   A    
C31   C38   S    
H32   O6    S    
C56   O5    S    
C13   C15   A    
C58   C59   S    
C47   H11   S    
H33   O7    S    
C16   C36   S    
C54   H24   S    
C38   C53   S    
C38   C40   S    
C19   N2    A    
C44   C60   A    
H5    O16   S    
C30   C58   S    
C28   C30   A    
C5    C62   A    
C18   C20   A    
C32   C40   S    
C35   C41   S    
C24   C30   A    
C10   O4    S    
Cu1   Cu2   S    
Cu2   O13   S    
C8    C10   A    
C49   C50   S    
C21   C24   A    
C46   C56   A    
C61   H50   S    
C15   N2    A    
C18   H34   S    
C1    O1    A    
Cu1   O11   S    
C7    O7    S    
H35   O8    S    
