data_mof_unit_52088.cif
_audit_creation_date              2012-10-26T21:01:01-0400
_audit_creation_method            fapswitch 2.2
_symmetry_space_group_name_H-M    P1
_symmetry_Int_Tables_number       1
_space_group_crystal_system       triclinic
_cell_length_a                    10.90982
_cell_length_b                    10.823648
_cell_length_c                    9.54905
_cell_angle_alpha                 90.207381
_cell_angle_beta                  89.515822
_cell_angle_gamma                 90.389065
_cell_volume                      1127.51710036

loop_
_atom_site_label
_atom_site_type_symbol
_atom_type_description
_atom_site_fract_x
_atom_site_fract_y
_atom_site_fract_z
_atom_type_partial_charge
C1    C     C_R   0.497428 0.262427 0.499779 0.561657
C2    C     C_R   0.422211 0.426111 0.075365 -0.009860
C3    C     C_R   0.419892 0.427273 0.925411 0.369567
C4    C     C_R   0.265390 0.504099 0.500684 0.558005
C5    C     C_R   0.571422 0.581961 0.926112 0.160651
C6    C     C_3   0.707725 0.592510 0.919911 -0.266660
C7    C     C_3   0.706990 0.593770 0.078507 -0.273256
C8    C     C_R   0.497837 0.737678 0.500219 0.563699
C9    C     C_R   0.734475 0.493172 0.499348 0.536460
C10   C     C_2   0.933739 0.520960 0.395663 -0.172681
C11   C     C_2   0.864778 0.466224 0.495883 0.047456
C12   C     C_R   0.484914 0.129476 0.499719 0.000074
C13   C     C_2   0.067070 0.511559 0.387730 -0.118333
C14   C     C_2   0.133592 0.515650 0.504439 -0.071606
C15   C     C_R   0.487355 0.064692 0.625465 -0.041083
C16   C     C_3   0.221469 0.362808 0.891222 -0.109297
C17   C     C_2   0.910116 0.365049 0.587609 0.537998
C18   C     C_2   0.513535 0.883064 0.879496 0.610046
C19   C     C_3   0.765276 0.931646 0.623239 -0.126092
C20   C     C_R   0.465598 0.063780 0.374434 -0.146155
C21   C     C_R   0.465747 0.934838 0.374903 -0.158210
C22   C     C_R   0.485454 0.870688 0.500592 -0.000531
C23   C     C_R   0.487862 0.937412 0.626092 0.053533
C24   C     C_3   0.573514 0.934682 0.749102 0.312452
C25   C     C_3   0.571567 0.076924 0.747721 -0.224345
C26   C     C_R   0.570860 0.582506 0.073360 0.167337
Cu1   Cu    Cu3+1 0.499990 0.499980 0.640670 1.065510
Cu2   Cu    Cu3+1 0.500010 0.500020 0.359330 0.946442
H1    H     H_    0.891553 0.581184 0.319385 0.114877
H2    H     H_    0.456179 0.111346 0.275537 0.155252
H3    H     H_    0.456269 0.886132 0.276268 0.175235
H4    H     H_    0.523358 0.119279 0.838951 0.153694
H5    H     H_    0.162838 0.320272 0.809596 0.167936
H6    H     H_    0.196087 0.462247 0.898450 0.112181
H7    H     H_    0.200621 0.314682 0.991211 0.103188
H8    H     H_    0.022304 0.218935 0.609825 0.330176
H9    H     H_    0.369858 0.793163 0.967430 0.322191
H10   H     H_    0.716167 0.972019 0.533176 0.120144
H11   H     H_    0.828633 0.861191 0.579931 0.142412
H12   H     H_    0.658331 0.125401 0.720422 0.145788
H13   H     H_    0.822386 0.002955 0.675856 0.146234
H14   H     H_    0.363878 0.362976 0.133250 0.123694
H15   H     H_    0.752081 0.508842 0.875699 0.187743
H16   H     H_    0.739380 0.681203 0.873767 0.197263
H17   H     H_    0.751329 0.510890 0.123444 0.154551
H18   H     H_    0.737099 0.683592 0.123861 0.155566
H19   H     H_    0.110341 0.508455 0.284908 0.141567
H20   H     H_    0.089997 0.527934 0.606264 0.111282
N1    N     N_R   0.500780 0.500930 0.147930 -0.268840
N2    N     N_R   0.500780 0.500890 0.852020 -0.221074
O1    O     O_R   0.500000 0.319640 0.618810 -0.451495
O2    O     O_2   0.864337 0.348806 0.703450 -0.552639
O3    O     O_R   0.000966 0.284646 0.538837 -0.701451
O4    O     O_2   0.566011 0.892846 0.991672 -0.544478
O5    O     O_R   0.399167 0.824163 0.872751 -0.706569
O6    O     O_3   0.686918 0.873319 0.721959 -0.577727
O7    O     O_R   0.500010 0.319680 0.381230 -0.516125
O8    O     O_R   0.321940 0.499980 0.618760 -0.466809
O9    O     O_R   0.321950 0.500020 0.381180 -0.516629
O10   O     O_R   0.499990 0.680320 0.618770 -0.456805
O11   O     O_R   0.500000 0.680360 0.381190 -0.512473
O12   O     O_R   0.678050 0.499980 0.618820 -0.482812
O13   O     O_R   0.678060 0.500020 0.381240 -0.518771
O14   O     O_3   0.345319 0.346432 0.851763 -0.539054

loop_
_geom_bond_atom_site_label_1
_geom_bond_atom_site_label_2
_ccdc_geom_bond_type
C19   O6    S    
C8    C22   S    
C23   C24   S    
Cu2   O13   S    
C6    C7    S    
C19   H10   S    
C1    O7    A    
C16   H5    S    
C24   O6    S    
C1    O1    A    
Cu2   N1    S    
Cu1   O12   S    
C12   C15   A    
C8    O11   A    
Cu1   O10   S    
Cu2   O11   S    
C12   C20   A    
C25   H4    S    
C15   C23   A    
C2    C3    A    
C25   H12   S    
C20   H2    S    
C3    O14   S    
C24   C25   S    
C21   H3    S    
C10   H1    S    
C1    C12   S    
C19   H11   S    
C18   O5    S    
C2    H14   S    
C18   C24   S    
C7    H17   S    
C17   O2    D    
C2    N1    A    
C3    N2    A    
Cu1   O1    S    
C5    C26   A    
C6    H15   S    
C9    C11   S    
C16   H7    S    
C4    C14   S    
C5    C6    S    
C5    N2    A    
C15   C25   S    
C10   C11   D    
C18   O4    D    
C9    O12   A    
H9    O5    S    
C7    H18   S    
C17   O3    S    
C20   C21   A    
C4    O9    A    
Cu1   N2    S    
Cu2   O9    S    
C4    O8    A    
Cu1   Cu2   S    
C13   H19   S    
C14   H20   S    
C22   C23   A    
C11   C17   S    
C6    H16   S    
H8    O3    S    
C16   O14   S    
C13   C14   D    
C16   H6    S    
C21   C22   A    
C9    O13   A    
C7    C26   S    
Cu1   O8    S    
C8    O10   A    
Cu2   O7    S    
C19   H13   S    
C10   C13   S    
C26   N1    A    
