data_mof_unit_7282.cif
_audit_creation_date              2012-12-11T14:08:27-0500
_audit_creation_method            fapswitch 2.2
_symmetry_space_group_name_H-M    P1
_symmetry_Int_Tables_number       1
_space_group_crystal_system       triclinic
_cell_length_a                    28.362115
_cell_length_b                    7.15054
_cell_length_c                    17.431786
_cell_angle_alpha                 89.96001
_cell_angle_beta                  102.931749
_cell_angle_gamma                 89.717273
_cell_volume                      3445.53252566

loop_
_atom_site_label
_atom_site_type_symbol
_atom_type_description
_atom_site_fract_x
_atom_site_fract_y
_atom_site_fract_z
_atom_type_partial_charge
O1    O     O_R   0.000700 0.436510 0.857920 -0.541395
O2    O     O_R   0.999300 0.563490 0.142080 -0.541395
O3    O     O_R   0.999300 0.936510 0.642080 -0.541512
O4    O     O_R   0.000700 0.063490 0.357920 -0.541512
O5    O     O_R   0.930080 0.766380 0.721890 -0.539267
O6    O     O_R   0.069920 0.233620 0.278110 -0.539265
O7    O     O_R   0.069920 0.266380 0.778110 -0.538716
O8    O     O_R   0.930080 0.733620 0.221890 -0.538716
C1    C     C_R   0.910379 0.598923 0.707553 0.713592
C2    C     C_R   0.089621 0.401077 0.292446 0.713591
C3    C     C_R   0.089659 0.097933 0.792236 0.713020
C4    C     C_R   0.910341 0.902067 0.207764 0.713018
O9    O     O_R   0.996180 0.766230 0.862310 -0.542262
O10   O     O_R   0.003820 0.233770 0.137690 -0.542262
O11   O     O_R   0.003820 0.266230 0.637690 -0.542432
O12   O     O_R   0.996180 0.733770 0.362310 -0.542431
O13   O     O_R   0.065870 0.936460 0.783500 -0.537550
O14   O     O_R   0.934130 0.063540 0.216500 -0.537550
O15   O     O_R   0.934130 0.436460 0.716500 -0.537363
O16   O     O_R   0.065870 0.563540 0.283500 -0.537364
C5    C     C_R   0.997973 0.595609 0.894081 0.759435
C6    C     C_R   0.002027 0.404391 0.105919 0.759435
C7    C     C_R   0.001991 0.095677 0.605901 0.759152
C8    C     C_R   0.998008 0.904323 0.394099 0.759152
O17   O     O_3   0.022790 0.603020 0.723980 -0.379650
O18   O     O_3   0.977210 0.396980 0.276020 -0.379650
O19   O     O_3   0.977210 0.103020 0.776020 -0.379444
O20   O     O_3   0.022790 0.896980 0.223980 -0.379443
V1    V     V_3+5 0.995770 0.877900 0.754830 1.382481
V2    V     V_3+5 0.004230 0.122100 0.245170 1.382484
V3    V     V_3+5 0.004230 0.377900 0.745170 1.382669
V4    V     V_3+5 0.995770 0.622100 0.254830 1.382670
C9    C     C_2   0.006911 0.079566 0.522708 -0.036920
C10   C     C_2   0.993088 0.920434 0.477291 -0.036921
C11   C     C_2   0.992858 0.579439 0.977147 -0.036359
C12   C     C_2   0.007142 0.420560 0.022853 -0.036359
C13   C     C_R   0.682038 0.105106 0.052281 0.579259
C14   C     C_R   0.317962 0.894891 0.947724 0.579261
C15   C     C_R   0.316626 0.559219 0.462785 0.581173
C16   C     C_R   0.683374 0.440771 0.537201 0.581171
O21   O     O_2   0.710794 0.207583 0.016689 -0.534353
O22   O     O_2   0.289207 0.792395 0.983309 -0.534358
O23   O     O_2   0.287121 0.635745 0.505248 -0.525362
O24   O     O_2   0.712880 0.364229 0.494743 -0.525364
N1    N     N_R   0.702259 0.983136 0.111305 -0.550462
N2    N     N_R   0.297741 0.016870 0.888703 -0.550461
N3    N     N_R   0.297161 0.472631 0.392944 -0.552981
N4    N     N_R   0.702839 0.527369 0.607040 -0.552981
C17   C     C_R   0.673664 0.880986 0.149447 0.577823
C18   C     C_R   0.326336 0.119041 0.850568 0.577821
C19   C     C_R   0.326213 0.392174 0.349036 0.578413
C20   C     C_R   0.673787 0.607841 0.650944 0.578416
C21   C     C_R   0.782966 0.099015 0.173796 -0.135429
C22   C     C_R   0.217034 0.900988 0.826209 -0.135428
C23   C     C_R   0.217056 0.591589 0.328240 -0.137829
C24   C     C_R   0.782944 0.408406 0.671744 -0.137828
C25   C     C_R   0.832972 0.077637 0.197000 -0.246222
C26   C     C_R   0.167028 0.922365 0.803003 -0.246224
C27   C     C_R   0.167107 0.572696 0.304180 -0.244794
C28   C     C_R   0.832892 0.427300 0.695809 -0.244796
C29   C     C_R   0.827170 0.764170 0.140364 0.111131
C30   C     C_R   0.172828 0.235829 0.859641 0.111131
C31   C     C_R   0.172415 0.257998 0.360201 0.110700
C32   C     C_R   0.827585 0.742009 0.639798 0.110700
C33   C     C_R   0.776168 0.791011 0.113367 0.150935
C34   C     C_R   0.223831 0.208988 0.886641 0.150928
C35   C     C_R   0.223475 0.280823 0.386756 0.159308
C36   C     C_R   0.776526 0.719179 0.613235 0.159302
C37   C     C_R   0.754212 0.957863 0.132375 0.354465
C38   C     C_R   0.245788 0.042139 0.867633 0.354461
C39   C     C_R   0.245448 0.448273 0.369425 0.359271
C40   C     C_R   0.754552 0.551724 0.630561 0.359270
C41   C     C_R   0.601547 0.004815 0.060748 -0.053620
C42   C     C_R   0.398453 0.995212 0.939267 -0.053620
C43   C     C_R   0.397761 0.485136 0.446869 -0.046938
C44   C     C_R   0.602240 0.514874 0.553111 -0.046939
C45   C     C_R   0.631329 0.121968 0.027653 -0.069008
C46   C     C_R   0.368671 0.878042 0.972357 -0.069006
C47   C     C_R   0.367208 0.564229 0.491566 -0.076462
C48   C     C_R   0.632793 0.435768 0.508418 -0.076460
C49   C     C_R   0.609952 0.260094 0.974224 -0.131028
C50   C     C_R   0.390050 0.739918 0.025788 -0.131025
C51   C     C_R   0.387308 0.629849 0.567127 -0.131548
C52   C     C_R   0.612694 0.370143 0.432858 -0.131547
C53   C     C_R   0.622918 0.888095 0.124202 -0.025731
C54   C     C_R   0.377081 0.111940 0.875816 -0.025732
C55   C     C_R   0.376872 0.394965 0.375603 -0.022672
C56   C     C_R   0.623128 0.605054 0.624375 -0.022673
C57   C     C_R   0.856143 0.912250 0.181422 -0.088126
C58   C     C_R   0.143856 0.087750 0.818581 -0.088125
C59   C     C_R   0.143730 0.408305 0.319268 -0.088942
C60   C     C_R   0.856270 0.591696 0.680728 -0.088944
H1    H     H_    0.632525 0.363869 0.954796 0.172353
H2    H     H_    0.367478 0.636135 0.045214 0.172355
H3    H     H_    0.363686 0.675212 0.604662 0.179135
H4    H     H_    0.636315 0.324772 0.395325 0.179136
C61   C     C_R   0.478712 0.119679 0.936507 0.047679
C62   C     C_R   0.521288 0.880365 0.063515 0.047683
C63   C     C_R   0.520840 0.589266 0.572264 0.051414
C64   C     C_R   0.479161 0.410753 0.427713 0.051416
C65   C     C_R   0.470840 0.864597 0.028768 0.016276
C66   C     C_R   0.529160 0.135438 0.971252 0.016289
C67   C     C_R   0.530533 0.430191 0.450628 0.016809
C68   C     C_R   0.469468 0.569821 0.549351 0.016807
C69   C     C_R   0.449520 0.994273 0.968933 0.026157
C70   C     C_R   0.550480 0.005763 0.031085 0.026162
C71   C     C_R   0.550962 0.508697 0.525661 0.029384
C72   C     C_R   0.449039 0.491317 0.474317 0.029384
C73   C     C_R   0.456799 0.213336 0.866008 -0.188204
C74   C     C_R   0.543200 0.786722 0.134017 -0.188212
C75   C     C_R   0.543331 0.700581 0.636967 -0.187014
C76   C     C_R   0.456669 0.299449 0.363006 -0.187018
C77   C     C_R   0.406869 0.214518 0.837686 -0.141574
C78   C     C_R   0.593129 0.785538 0.162338 -0.141573
C79   C     C_R   0.593247 0.701949 0.664504 -0.143183
C80   C     C_R   0.406753 0.298082 0.335470 -0.143187
O25   O     O_2   0.305705 0.229821 0.789431 -0.521091
O26   O     O_2   0.694295 0.770220 0.210588 -0.521090
O27   O     O_2   0.693908 0.693638 0.719273 -0.519800
O28   O     O_2   0.306092 0.306387 0.280704 -0.519800
C81   C     C_R   0.559523 0.279480 0.951732 0.144789
C82   C     C_R   0.440479 0.720547 0.048286 0.144788
C83   C     C_R   0.437139 0.617245 0.599094 0.151379
C84   C     C_R   0.562864 0.382759 0.400887 0.151377
H5    H     H_    0.146351 0.809131 0.770857 0.150966
H6    H     H_    0.853650 0.190872 0.229143 0.150966
H7    H     H_    0.853374 0.312632 0.727886 0.150425
H8    H     H_    0.146625 0.687362 0.272102 0.150424
H9    H     H_    0.233691 0.773327 0.811493 0.144584
H10   H     H_    0.766310 0.226679 0.188510 0.144577
H11   H     H_    0.766059 0.281033 0.685491 0.138473
H12   H     H_    0.233940 0.718959 0.314490 0.138475
H13   H     H_    0.391732 0.295020 0.785250 0.163001
H14   H     H_    0.608266 0.705046 0.214778 0.163000
H15   H     H_    0.608380 0.784535 0.716155 0.168346
H16   H     H_    0.391620 0.215504 0.283817 0.168345
H17   H     H_    0.477840 0.282945 0.830300 0.146786
H18   H     H_    0.522158 0.717124 0.169729 0.146783
H19   H     H_    0.523031 0.794003 0.665851 0.147842
H20   H     H_    0.476969 0.206031 0.334119 0.147844
C85   C     C_3   0.030795 0.245830 0.492581 -0.742675
H21   H     H_    0.046758 0.345835 0.539768 0.200712
H22   H     H_    0.061333 0.198208 0.467579 0.196664
H23   H     H_    0.003870 0.325115 0.448279 0.232068
C86   C     C_3   0.969204 0.754173 0.507418 -0.742678
H24   H     H_    0.953239 0.654170 0.460231 0.200712
H25   H     H_    0.996128 0.674885 0.551720 0.232068
H26   H     H_    0.938666 0.801796 0.532421 0.196665
C87   C     C_3   0.968123 0.744963 0.006730 -0.744727
H27   H     H_    0.951768 0.844253 0.959160 0.200786
H28   H     H_    0.937774 0.696408 0.031789 0.196386
H29   H     H_    0.994615 0.825171 0.050899 0.232432
C88   C     C_3   0.031877 0.255035 0.993270 -0.744727
H30   H     H_    0.048232 0.155745 0.040839 0.200786
H31   H     H_    0.005384 0.174828 0.949101 0.232433
H32   H     H_    0.062226 0.303590 0.968211 0.196385
C89   C     C_3   0.850412 0.579816 0.125581 -0.721804
H33   H     H_    0.825568 0.477920 0.090111 0.211841
H34   H     H_    0.879401 0.604908 0.093707 0.191658
H35   H     H_    0.865451 0.509284 0.182524 0.215562
C90   C     C_3   0.149587 0.420185 0.874421 -0.721802
H36   H     H_    0.174430 0.522081 0.909891 0.211840
H37   H     H_    0.134549 0.490715 0.817477 0.215562
H38   H     H_    0.120597 0.395095 0.906293 0.191658
C91   C     C_3   0.148805 0.075707 0.375507 -0.720632
H39   H     H_    0.173251 0.973966 0.412516 0.210245
H40   H     H_    0.119458 0.103882 0.406370 0.191908
H41   H     H_    0.134172 0.004056 0.318856 0.214778
C92   C     C_3   0.851195 0.924310 0.624504 -0.720627
H42   H     H_    0.826749 0.026070 0.587507 0.210240
H43   H     H_    0.865831 0.995937 0.681160 0.214778
H44   H     H_    0.880541 0.896153 0.593635 0.191911
C93   C     C_3   0.745292 0.643976 0.063510 -0.660555
H45   H     H_    0.744964 0.515304 0.098966 0.230049
H46   H     H_    0.707264 0.688157 0.040645 0.200840
H47   H     H_    0.759854 0.612594 0.010853 0.218165
C94   C     C_3   0.254705 0.356019 0.936503 -0.660542
H48   H     H_    0.255036 0.484690 0.901048 0.230064
H49   H     H_    0.240141 0.387401 0.989157 0.218162
H50   H     H_    0.292733 0.311834 0.959372 0.200841
C95   C     C_3   0.254460 0.128349 0.433905 -0.679663
H51   H     H_    0.252456 0.999350 0.398040 0.211638
H52   H     H_    0.293185 0.165079 0.452919 0.203884
H53   H     H_    0.241740 0.099446 0.488494 0.220677
C96   C     C_3   0.745542 0.871654 0.566086 -0.679639
H54   H     H_    0.747537 0.000636 0.601960 0.211638
H55   H     H_    0.758269 0.900591 0.511506 0.220677
H56   H     H_    0.706818 0.834906 0.547054 0.203881
C97   C     C_3   0.541386 0.470249 0.920349 -0.801473
H57   H     H_    0.564745 0.581213 0.953472 0.217797
H58   H     H_    0.542696 0.482906 0.857382 0.209553
H59   H     H_    0.504564 0.501133 0.928891 0.227086
C98   C     C_3   0.458618 0.529783 0.079680 -0.801437
H60   H     H_    0.435264 0.418796 0.046554 0.217789
H61   H     H_    0.495443 0.498911 0.071148 0.227084
H62   H     H_    0.457302 0.517138 0.142648 0.209546
C99   C     C_3   0.451515 0.620455 0.688127 -0.804948
H63   H     H_    0.423582 0.550200 0.713408 0.210291
H64   H     H_    0.485336 0.540580 0.711220 0.213481
H65   H     H_    0.454443 0.766790 0.709864 0.214572
C100  C     C_3   0.548490 0.379554 0.311854 -0.804956
H66   H     H_    0.576424 0.449808 0.286576 0.210294
H67   H     H_    0.545561 0.233221 0.290115 0.214577
H68   H     H_    0.514670 0.459434 0.288760 0.213476

loop_
_geom_bond_atom_site_label_1
_geom_bond_atom_site_label_2
_ccdc_geom_bond_type
O17   V3    S    
O1    C5    A    
C89   H33   S    
C62   C74   A    
C23   C27   A    
O19   V1    S    
C18   O25   S    
O13   V1    S    
C100  H66   S    
C76   H20   S    
O3    C7    A    
C11   C12   D    
C76   C80   A    
C48   C52   A    
O4    V2    S    
C21   C37   A    
C90   H38   S    
C86   H24   S    
C41   C70   A    
C75   H19   S    
C68   C83   A    
C95   H51   S    
C99   H65   S    
O7    C3    A    
C91   H39   S    
C25   C57   A    
C54   C77   A    
C50   H2    S    
C32   C36   A    
O2    V4    S    
C53   C78   A    
O10   V2    S    
C14   O22   S    
N4    C20   A    
C87   H28   S    
O16   V4    S    
O4    C8    A    
C10   C86   S    
C96   H55   S    
C30   C90   S    
O1    V3    S    
C49   H1    S    
C73   H17   S    
C52   H4    S    
C32   C92   S    
O3    V1    S    
C35   C95   S    
C86   H25   S    
C1    O15   A    
C2    O16   A    
C24   C40   A    
O2    C6    A    
C16   C48   A    
O14   V2    S    
C75   C79   A    
N1    C17   A    
C88   H31   S    
C66   C81   A    
C44   C56   A    
C61   C66   A    
C98   H60   S    
C73   C77   A    
C61   C69   A    
C98   H62   S    
O11   C7    A    
C63   C68   A    
O15   V3    S    
C43   C72   A    
C89   H34   S    
C77   H13   S    
C100  H67   S    
C97   H57   S    
N4    C40   S    
C67   C84   A    
C1    C60   S    
C90   H37   S    
C29   C57   A    
C12   C88   S    
C19   O28   S    
O5    V1    S    
C28   C60   A    
C65   C69   A    
C34   C94   S    
C31   C35   A    
C64   C72   A    
O7    V3    S    
C30   C34   A    
N1    C37   S    
O8    V4    S    
C92   H42   S    
C17   C53   A    
C4    C57   S    
C20   C56   A    
C95   H52   S    
C19   C55   A    
C25   H6    S    
C21   C25   A    
O18   V4    S    
C96   H56   S    
N3    C19   A    
C14   C46   A    
C7    C9    S    
C27   H8    S    
C93   H45   S    
C13   C45   A    
C99   H64   S    
C64   C67   A    
C8    C10   S    
C24   C28   A    
C49   C81   A    
C36   C40   A    
C15   C47   A    
C97   H59   S    
N2    C38   S    
O5    C1    A    
C29   C89   S    
C61   C73   A    
C46   C50   A    
C17   O26   S    
C22   C38   A    
C45   C49   A    
O8    C4    A    
C94   H50   S    
C63   C75   A    
C98   H61   S    
C9    C10   D    
C78   H14   S    
O9    C5    A    
C27   C59   A    
C51   H3    S    
C42   C54   A    
C88   H32   S    
C26   C58   A    
N3    C39   S    
C55   C80   A    
C93   H46   S    
C94   H48   S    
C5    C11   S    
C87   H29   S    
C74   H18   S    
C43   C55   A    
C91   H41   S    
O6    V2    S    
C36   C96   S    
C64   C76   A    
C44   C71   A    
C22   C26   A    
C100  H68   S    
C85   H23   S    
C52   C84   A    
C32   C60   A    
C82   C98   S    
C13   N1    A    
C68   C72   A    
C86   H26   S    
C63   C71   A    
C15   N3    A    
C92   H43   S    
C93   H47   S    
O9    V1    S    
C16   N4    A    
C22   H9    S    
C74   C78   A    
C3    O13   A    
C95   H53   S    
C33   C93   S    
C83   C99   S    
C28   H7    S    
C4    O14   A    
C44   C48   A    
C2    C59   S    
C15   O23   S    
O11   V3    S    
C80   H16   S    
C89   H35   S    
O12   V4    S    
C62   C65   A    
C6    C12   S    
N2    C18   A    
C65   C82   A    
C62   C70   A    
C84   C100  S    
C9    C85   S    
O10   C6    A    
C56   C79   A    
C85   H22   S    
C41   C53   A    
C90   H36   S    
C87   H27   S    
C42   C69   A    
C47   C51   A    
C3    C58   S    
C96   H54   S    
C34   C38   A    
C79   H15   S    
C33   C37   A    
C30   C58   A    
O20   V2    S    
C92   H44   S    
C94   H49   S    
C66   C70   A    
C35   C39   A    
C13   O21   S    
C99   H63   S    
O12   C8    A    
C14   N2    A    
C24   H11   S    
O6    C2    A    
C18   C54   A    
C31   C91   S    
C20   O27   S    
C29   C33   A    
C16   O24   S    
C26   H5    S    
C91   H40   S    
C23   H12   S    
C42   C46   A    
C31   C59   A    
C41   C45   A    
C67   C71   A    
C21   H10   S    
C11   C87   S    
C51   C83   A    
C88   H30   S    
C85   H21   S    
C43   C47   A    
C50   C82   A    
C23   C39   A    
C81   C97   S    
C97   H58   S    
