data_mof_unit_54852.cif
_audit_creation_date              2012-12-10T16:37:39-0500
_audit_creation_method            fapswitch 2.2
_symmetry_space_group_name_H-M    P1
_symmetry_Int_Tables_number       1
_space_group_crystal_system       triclinic
_cell_length_a                    10.812411
_cell_length_b                    10.858698
_cell_length_c                    15.558053
_cell_angle_alpha                 96.777906
_cell_angle_beta                  74.601911
_cell_angle_gamma                 98.589623
_cell_volume                      1735.43526417

loop_
_atom_site_label
_atom_site_type_symbol
_atom_type_description
_atom_site_fract_x
_atom_site_fract_y
_atom_site_fract_z
_atom_type_partial_charge
C1    C     C_R   0.158099 0.478890 0.520063 0.489318
C2    C     C_R   0.517366 0.498970 0.120072 0.200461
C3    C     C_R   0.617095 0.310943 0.118509 0.216218
C4    C     C_R   0.842336 0.521750 0.480098 0.507704
C5    C     C_R   0.431823 0.587893 0.838553 -0.003322
C6    C     C_2   0.980149 0.531287 0.472886 -0.122132
C7    C     C_2   0.022110 0.471433 0.527666 -0.098266
C8    C     C_2   0.534926 0.966080 0.468235 0.236290
C9    C     C_2   0.455675 0.036537 0.528363 0.112319
C10   C     C_R   0.468036 0.168084 0.520592 0.555691
C11   C     C_R   0.528528 0.833491 0.479625 0.519761
C12   C     C_R   0.454640 0.759800 0.950323 0.069118
C13   C     C_R   0.555544 0.444135 0.258887 0.561287
C14   C     C_R   0.444324 0.553541 0.742074 0.541823
C15   C     C_R   0.593490 0.269594 0.035518 -0.124936
C16   C     C_R   0.571417 0.422008 0.162966 0.036401
C17   C     C_R   0.417320 0.713460 0.872129 0.259564
C18   C     C_3   0.800300 0.282148 0.156680 0.005476
C19   C     C_3   0.890502 0.223916 0.073369 -0.275212
C20   C     C_3   0.032147 0.270356 0.069317 -0.483645
C21   C     C_3   0.606205 0.978084 0.315554 0.028048
C22   C     C_3   0.732765 0.947245 0.250022 -0.232837
C23   C     C_R   0.493146 0.680942 0.999370 -0.141284
C24   C     C_3   0.711803 0.894134 0.159018 -0.481173
C25   C     C_3   0.324268 0.554197 0.210881 0.020191
C26   C     C_3   0.233962 0.590304 0.159491 -0.277261
C27   C     C_3   0.092621 0.569645 0.211876 -0.481141
C28   C     C_3   0.264233 0.833833 0.862960 0.026148
C29   C     C_3   0.157035 0.741407 0.835302 -0.258866
C30   C     C_3   0.023964 0.782519 0.878697 -0.489181
C31   C     C_R   0.486411 0.551154 0.975859 -0.018341
C32   C     C_R   0.456329 0.503736 0.893708 -0.040520
C33   C     C_R   0.516714 0.468135 0.029200 0.023887
C34   C     C_R   0.540538 0.345821 0.991780 -0.068292
C35   C     C_R   0.504771 0.298677 0.913512 -0.111201
C36   C     C_R   0.453841 0.373804 0.868744 0.117843
F1    F     F_    0.366215 0.989759 0.600121 -0.175909
F2    F     F_    0.461165 0.883997 0.976098 -0.184023
F3    F     F_    0.398431 0.317092 0.803223 -0.171150
H1    H     H_    0.956773 0.414790 0.577965 0.128969
H2    H     H_    0.050981 0.372866 0.063907 0.149200
H3    H     H_    0.094789 0.223920 0.009608 0.155556
H4    H     H_    0.057378 0.248258 0.130039 0.148494
H5    H     H_    0.570373 0.054332 0.290741 0.188062
H6    H     H_    0.532022 0.894325 0.316644 0.123051
H7    H     H_    0.803493 0.033079 0.241602 0.167152
H8    H     H_    0.774065 0.877412 0.277449 0.195439
H9    H     H_    0.648201 0.803754 0.165819 0.186824
H10   H     H_    0.806084 0.877599 0.112076 0.130922
H11   H     H_    0.667068 0.960410 0.130887 0.182447
H12   H     H_    0.510633 0.201445 0.889086 0.135703
H13   H     H_    0.300866 0.600905 0.279739 0.146583
H14   H     H_    0.304843 0.451495 0.218163 0.136502
H15   H     H_    0.259574 0.690386 0.145946 0.181869
H16   H     H_    0.245348 0.532676 0.094667 0.160516
H17   H     H_    0.075731 0.635373 0.272896 0.158904
H18   H     H_    0.065881 0.472027 0.231115 0.146975
H19   H     H_    0.029649 0.587406 0.169867 0.144744
H20   H     H_    0.262215 0.926462 0.840055 0.163882
H21   H     H_    0.244164 0.847227 0.937341 0.123994
H22   H     H_    0.173481 0.734966 0.761377 0.208469
H23   H     H_    0.616381 0.177786 0.005489 0.142267
H24   H     H_    0.159047 0.647258 0.855829 0.154178
H25   H     H_    0.004136 0.787002 0.952752 0.140981
H26   H     H_    0.948631 0.714153 0.857110 0.160111
H27   H     H_    0.018580 0.875801 0.858252 0.154717
H28   H     H_    0.531434 0.724347 0.054346 0.180736
H29   H     H_    0.047840 0.587178 0.423166 0.087810
H30   H     H_    0.823456 0.256150 0.217053 0.152025
H31   H     H_    0.819114 0.386336 0.158875 0.123640
H32   H     H_    0.875073 0.120566 0.074219 0.168011
H33   H     H_    0.868032 0.248280 0.012252 0.163620
O1    O     O_3   0.500000 0.500000 0.500000 -0.451579
O2    O     O_R   0.463530 0.379110 0.309170 -0.540420
O3    O     O_R   0.388210 0.611730 0.699360 -0.509878
O4    O     O_R   0.624720 0.532760 0.292120 -0.546454
O5    O     O_R   0.523540 0.476390 0.699360 -0.525437
O6    O     O_3   0.669821 0.234217 0.160500 -0.586120
O7    O     O_3   0.630231 0.021133 0.399924 -0.587847
O8    O     O_3   0.455085 0.596881 0.169920 -0.607142
O9    O     O_3   0.387536 0.795872 0.821154 -0.529447
O10   O     O_R   0.537910 0.240570 0.564270 -0.519837
O11   O     O_R   0.438950 0.782540 0.540270 -0.534963
O12   O     O_R   0.222350 0.398740 0.468260 -0.540290
O13   O     O_R   0.800790 0.578160 0.427210 -0.546015
O14   O     O_R   0.212140 0.566330 0.564260 -0.545403
O15   O     O_R   0.764730 0.456770 0.540270 -0.535443
O16   O     O_R   0.412790 0.208310 0.468260 -0.546849
O17   O     O_R   0.610350 0.768590 0.427210 -0.533035
Zn1   Zn    Zn3+2 0.580150 0.419820 0.574680 0.971509
Zn2   Zn    Zn3+2 0.401380 0.373730 0.437510 0.943452
Zn3   Zn    Zn3+2 0.631680 0.593260 0.413140 0.936271
Zn4   Zn    Zn3+2 0.386790 0.613180 0.574670 0.953718

loop_
_geom_bond_atom_site_label_1
_geom_bond_atom_site_label_2
_ccdc_geom_bond_type
C18   H31   S    
C29   H24   S    
C30   H25   S    
C25   O8    S    
C19   H32   S    
C35   C36   A    
O1    Zn4   S    
C26   H16   S    
C20   H2    S    
C4    O15   A    
C1    O12   A    
C12   C23   A    
C10   O16   A    
C26   C27   S    
C32   C36   A    
C28   C29   S    
C25   H14   S    
O1    Zn1   S    
C18   C19   S    
C5    C17   A    
O11   Zn4   S    
C24   H10   S    
C34   C35   A    
C14   O5    A    
C23   H28   S    
C19   C20   S    
C8    C9    D    
C12   C17   A    
C8    O7    S    
C7    H1    S    
C31   C33   A    
O12   Zn2   S    
C2    C16   A    
C9    C10   S    
C15   C34   A    
C5    C32   A    
C18   H30   S    
C6    H29   S    
C22   H8    S    
C21   C22   S    
C19   H33   S    
C26   H15   S    
O13   Zn3   S    
C21   H6    S    
C28   H21   S    
C24   H11   S    
C29   H22   S    
O5    Zn1   S    
C24   H9    S    
O1    Zn2   S    
C4    C6    S    
C27   H18   S    
C27   H17   S    
C4    O13   A    
C11   O11   A    
C25   C26   S    
C10   O10   A    
C23   C31   A    
O2    Zn2   S    
C29   C30   S    
O14   Zn4   S    
C21   H5    S    
C11   O17   A    
C31   C32   A    
C13   O4    A    
C18   O6    S    
C21   O7    S    
C9    F1    S    
C33   C34   A    
O17   Zn3   S    
C5    C14   S    
C30   H27   S    
O4    Zn3   S    
C2    C33   A    
C22   H7    S    
C35   H12   S    
C22   C24   S    
O15   Zn1   S    
C20   H4    S    
C3    C15   A    
O3    Zn4   S    
C28   H20   S    
C1    O14   A    
C28   O9    S    
C1    C7    S    
C36   F3    S    
O1    Zn3   S    
C27   H19   S    
C20   H3    S    
C6    C7    D    
O10   Zn1   S    
C14   O3    A    
C25   H13   S    
O16   Zn2   S    
C8    C11   S    
C15   H23   S    
C17   O9    S    
C12   F2    S    
C30   H26   S    
C2    O8    S    
C13   O2    A    
C13   C16   S    
C3    O6    S    
C3    C16   A    
