data_mof_unit_29984.cif
_audit_creation_date              2012-12-11T14:21:07-0500
_audit_creation_method            fapswitch 2.2
_symmetry_space_group_name_H-M    P1
_symmetry_Int_Tables_number       1
_space_group_crystal_system       triclinic
_cell_length_a                    21.966759
_cell_length_b                    7.200805
_cell_length_c                    14.930459
_cell_angle_alpha                 90.332458
_cell_angle_beta                  107.081485
_cell_angle_gamma                 90.07912
_cell_volume                      2257.44731544

loop_
_atom_site_label
_atom_site_type_symbol
_atom_type_description
_atom_site_fract_x
_atom_site_fract_y
_atom_site_fract_z
_atom_type_partial_charge
O1    O     O_R   0.584770 0.505770 0.002090 -0.542582
O2    O     O_R   0.415230 0.005770 0.997910 -0.541312
O3    O     O_R   0.467060 0.173340 0.861950 -0.532970
O4    O     O_R   0.532940 0.673340 0.138050 -0.533759
C1    C     C_R   0.455398 0.343720 0.825869 0.667969
C2    C     C_R   0.544562 0.844922 0.174049 0.667708
O5    O     O_R   0.587510 0.175890 0.993210 -0.539503
O6    O     O_R   0.412490 0.675890 0.006790 -0.540846
O7    O     O_R   0.536540 0.008150 0.130100 -0.533641
O8    O     O_R   0.463460 0.508150 0.869900 -0.534088
C3    C     C_R   0.612824 0.345286 0.996789 0.746469
C4    C     C_R   0.387176 0.845126 0.003128 0.745968
O9    O     O_3   0.483140 0.340040 0.044760 -0.373503
O10   O     O_3   0.516860 0.840040 0.955240 -0.373569
V1    V     V_3+5 0.503130 0.064190 0.991700 1.489410
V2    V     V_3+5 0.496870 0.564190 0.008300 1.481472
C5    C     C_2   0.216271 0.723216 0.012893 0.410647
C6    C     C_2   0.783114 0.223676 0.984499 0.401794
C7    C     C_2   0.180591 0.881033 0.995556 -0.288983
C8    C     C_2   0.819377 0.380830 0.004146 -0.291160
H1    H     H_    0.200287 0.008013 0.976909 0.093709
H2    H     H_    0.800160 0.507257 0.024579 0.098241
C9    C     C_2   0.283028 0.714158 0.005514 -0.208541
C10   C     C_2   0.716410 0.214384 0.992103 -0.203571
C11   C     C_2   0.320820 0.861939 0.007212 -0.309379
C12   C     C_2   0.679185 0.362245 0.992645 -0.312571
H3    H     H_    0.302422 0.576747 0.001445 0.146399
H4    H     H_    0.696561 0.076832 0.994339 0.147734
H5    H     H_    0.303744 0.001092 0.013560 0.138755
H6    H     H_    0.696675 0.501537 0.987864 0.136926
C13   C     C_R   0.926657 0.881936 0.724198 -0.047571
C14   C     C_R   0.073228 0.391753 0.276183 -0.049668
C15   C     C_R   0.571167 0.855154 0.276074 -0.135890
C16   C     C_R   0.428874 0.349204 0.723707 -0.137373
C17   C     C_R   0.936620 0.828906 0.569731 -0.073289
C18   C     C_R   0.065110 0.453112 0.431068 -0.074585
C19   C     C_R   0.964570 0.849431 0.665729 -0.146598
C20   C     C_R   0.036691 0.438153 0.334966 -0.147058
C21   C     C_R   0.860599 0.892838 0.687012 -0.174225
C22   C     C_R   0.138566 0.361565 0.313392 -0.168270
C23   C     C_R   0.830386 0.867567 0.589849 0.052686
C24   C     C_R   0.169583 0.383499 0.410624 0.053133
C25   C     C_R   0.869885 0.837235 0.530675 0.038126
C26   C     C_R   0.131285 0.427855 0.469969 0.037210
C27   C     C_R   0.762527 0.870530 0.550135 -0.007696
C28   C     C_R   0.237195 0.365970 0.450141 -0.007387
C29   C     C_R   0.735153 0.851337 0.451252 0.012869
C30   C     C_R   0.265284 0.385680 0.548900 0.012961
C31   C     C_R   0.776365 0.821493 0.395545 -0.196819
C32   C     C_R   0.225176 0.428805 0.604753 -0.196938
C33   C     C_R   0.842103 0.813966 0.433891 0.367694
C34   C     C_R   0.159799 0.449634 0.566685 0.367285
C35   C     C_R   0.721165 0.888472 0.606438 -0.191482
C36   C     C_R   0.277735 0.333374 0.393733 -0.189403
C37   C     C_R   0.655380 0.890911 0.568331 0.398929
C38   C     C_R   0.343307 0.317766 0.431575 0.398819
C39   C     C_R   0.627730 0.877614 0.471004 -0.045608
C40   C     C_R   0.371495 0.331528 0.528778 -0.044833
C41   C     C_R   0.667333 0.859351 0.411320 0.058039
C42   C     C_R   0.332758 0.364288 0.588610 0.058095
C43   C     C_R   0.560983 0.882122 0.432310 -0.068462
C44   C     C_R   0.437897 0.311981 0.567239 -0.068721
C45   C     C_R   0.532250 0.870169 0.335921 0.380086
C46   C     C_R   0.467006 0.320744 0.663599 0.380511
C47   C     C_R   0.637391 0.851039 0.313509 -0.220206
C48   C     C_R   0.363074 0.371275 0.686401 -0.219603
H7    H     H_    0.663952 0.843812 0.263411 0.116178
H8    H     H_    0.336915 0.387363 0.736636 0.117021
H9    H     H_    0.967874 0.804618 0.526807 0.188957
H10   H     H_    0.034817 0.488551 0.474087 0.189986
H11   H     H_    0.015833 0.839316 0.694509 0.157632
H12   H     H_    0.986130 0.464185 0.306246 0.163193
H13   H     H_    0.834634 0.920329 0.736563 0.113338
H14   H     H_    0.163574 0.325995 0.263603 0.108023
H15   H     H_    0.759193 0.799138 0.321085 0.159434
H16   H     H_    0.243078 0.451880 0.679099 0.159773
H17   H     H_    0.738133 0.897643 0.681582 0.158496
H18   H     H_    0.260339 0.321808 0.318703 0.157169
H19   H     H_    0.530010 0.895142 0.476529 0.204911
H20   H     H_    0.468263 0.288270 0.522893 0.204793
O11   O     O_R   0.036450 0.233070 0.130130 -0.542222
O12   O     O_R   0.963550 0.733070 0.869870 -0.540601
O13   O     O_R   0.912470 0.560570 0.006790 -0.547355
O14   O     O_R   0.087530 0.060570 0.993210 -0.549056
C49   C     C_R   0.886686 0.391119 0.001815 0.755459
C50   C     C_R   0.113288 0.891257 0.998028 0.752854
O15   O     O_R   0.032920 0.562940 0.138050 -0.536135
O16   O     O_R   0.967080 0.062940 0.861950 -0.537010
O17   O     O_R   0.084790 0.730500 0.002090 -0.500195
O18   O     O_R   0.915210 0.230500 0.997910 -0.502281
C51   C     C_R   0.044850 0.395168 0.174574 0.694041
C52   C     C_R   0.955224 0.893691 0.825527 0.693922
O19   O     O_3   0.016820 0.396170 0.955260 -0.371953
O20   O     O_3   0.983180 0.896170 0.044740 -0.372718
V3    V     V_3+5 0.996880 0.672090 0.008300 1.545960
V4    V     V_3+5 0.003120 0.172090 0.991700 1.537987
O21   O     O_3   0.189799 0.563031 0.036567 -0.625697
H21   H     H_    0.221938 0.462554 0.049044 0.283275
O22   O     O_3   0.808913 0.064534 0.958110 -0.627973
H22   H     H_    0.776373 0.964507 0.944136 0.284187
Cl1   Cl    Cl    0.887865 0.773512 0.356182 -0.687770
Cl2   Cl    Cl    0.115518 0.506092 0.644586 -0.682271
O23   O     O_3   0.466462 0.874747 0.304201 -0.596921
H23   H     H_    0.451698 0.864711 0.235076 0.291571
O24   O     O_3   0.532389 0.299706 0.695125 -0.595382
H24   H     H_    0.547854 0.318822 0.763759 0.292400
Cl3   Cl    Cl    0.609441 0.911292 0.647217 -0.615526
Cl4   Cl    Cl    0.388248 0.279093 0.352573 -0.617475

loop_
_geom_bond_atom_site_label_1
_geom_bond_atom_site_label_2
_ccdc_geom_bond_type
C40   C44   A    
C48   H8    S    
O16   V4    S    
O4    V2    S    
O15   C51   A    
O1    C3    A    
C7    C50   S    
O2    C4    A    
C16   C48   A    
C2    O7    A    
O21   H21   S    
C15   C47   A    
C46   O24   S    
C29   C31   A    
O5    C3    A    
C34   Cl2   S    
C5    C9    S    
C6    C10   S    
C44   H20   S    
C7    H1    S    
O14   C50   A    
C24   C28   A    
C39   C41   A    
C14   C51   S    
C40   C42   A    
O12   C52   A    
O14   V4    S    
C27   C29   A    
C43   C45   A    
C38   Cl4   S    
C44   C46   A    
O16   C52   A    
C22   H14   S    
C31   C33   A    
O15   V3    S    
C32   C34   A    
C31   H15   S    
C9    H3    S    
C17   C25   A    
O6    C4    A    
C26   C34   A    
C30   C32   A    
C42   C48   A    
O6    V2    S    
C8    C49   S    
C23   C25   A    
C24   C26   A    
C18   H10   S    
C30   C42   A    
C20   H12   S    
C35   C37   A    
C11   H5    S    
C36   C38   A    
C21   C23   A    
O11   V4    S    
C3    C12   S    
C47   H7    S    
C27   C35   A    
C13   C19   A    
C37   Cl3   S    
O17   V3    S    
C35   H17   S    
C32   H16   S    
O22   H22   S    
C15   C45   A    
O13   V3    S    
C1    C16   S    
C28   C36   A    
C16   C46   A    
O1    V2    S    
C39   C43   A    
O2    V1    S    
C45   O23   S    
O13   C49   A    
C8    H2    S    
C12   H6    S    
O19   V4    S    
C14   C20   A    
C37   C39   A    
C18   C26   A    
O4    C2    A    
C6    O22   S    
C18   C20   A    
C14   C22   A    
O3    V1    S    
O12   V3    S    
C17   C19   A    
C10   H4    S    
C10   C12   D    
C22   C24   A    
O3    C1    A    
C50   O17   A    
C49   O18   A    
O18   V4    S    
C33   Cl1   S    
O24   H24   S    
C2    C15   S    
C4    C11   S    
C19   H11   S    
O7    V1    S    
C1    O8    A    
O8    V2    S    
C41   C47   A    
C25   C33   A    
C43   H19   S    
O5    V1    S    
C5    C7    D    
C38   C40   A    
C6    C8    D    
C21   H13   S    
O20   V3    S    
C29   C41   A    
O11   C51   A    
C28   C30   A    
C9    C11   D    
C17   H9    S    
C13   C52   S    
O9    V2    S    
O23   H23   S    
C13   C21   A    
C23   C27   A    
O10   V1    S    
C5    O21   S    
C36   H18   S    
