data_mof_unit_57588.cif
_audit_creation_date              2012-12-11T14:44:08-0500
_audit_creation_method            fapswitch 2.2
_symmetry_space_group_name_H-M    P1
_symmetry_Int_Tables_number       1
_space_group_crystal_system       triclinic
_cell_length_a                    18.90457
_cell_length_b                    11.028033
_cell_length_c                    18.766731
_cell_angle_alpha                 90.482151
_cell_angle_beta                  90.110924
_cell_angle_gamma                 90.300821
_cell_volume                      3912.29211772

loop_
_atom_site_label
_atom_site_type_symbol
_atom_type_description
_atom_site_fract_x
_atom_site_fract_y
_atom_site_fract_z
_atom_type_partial_charge
C1    C     C_R   0.731125 0.380900 0.147349 0.555912
C2    C     C_R   0.941066 0.975054 0.048571 -0.091043
C3    C     C_R   0.981311 0.767061 0.041742 0.004340
C4    C     C_R   0.516561 0.057287 0.031496 -0.103078
C5    C     C_R   0.514890 0.064075 0.958920 -0.095263
C6    C     C_R   0.016561 0.557287 0.031496 -0.103076
C7    C     C_R   0.014891 0.564075 0.958919 -0.095261
C8    C     C_R   0.466203 0.494648 0.979934 -0.081921
C9    C     C_R   0.441065 0.475051 0.048572 -0.091045
C10   C     C_R   0.681206 0.914497 0.029667 0.368135
C11   C     C_R   0.326265 0.943698 0.974850 0.381905
C12   C     C_R   0.181207 0.414497 0.029667 0.368137
C13   C     C_R   0.826265 0.443698 0.974850 0.381905
C14   C     C_R   0.685542 0.889506 0.956747 0.065278
C15   C     C_R   0.317552 0.912678 0.046622 0.066883
C16   C     C_R   0.185543 0.389505 0.956748 0.065278
C17   C     C_R   0.267759 0.382263 0.852040 0.560593
C18   C     C_R   0.817552 0.412679 0.046622 0.066883
C19   C     C_R   0.740691 0.942182 0.916968 -0.025914
C20   C     C_R   0.252820 0.939285 0.080819 -0.032657
C21   C     C_R   0.240691 0.442182 0.916969 -0.025915
C22   C     C_R   0.752819 0.439285 0.080819 -0.032657
C23   C     C_R   0.777653 0.042011 0.946525 0.055044
C24   C     C_R   0.202135 0.010894 0.044529 0.086188
C25   C     C_R   0.277652 0.542011 0.946525 0.055044
C26   C     C_R   0.702135 0.510894 0.044529 0.086189
C27   C     C_R   0.772310 0.067046 0.019195 -0.197395
C28   C     C_R   0.231125 0.880900 0.147349 0.555912
C29   C     C_R   0.209773 0.030524 0.973048 -0.168797
C30   C     C_R   0.272309 0.567047 0.019195 -0.197395
C31   C     C_R   0.709773 0.530525 0.973048 -0.168796
C32   C     C_R   0.728245 0.997024 0.062423 -0.018342
C33   C     C_R   0.269966 0.995209 0.936627 -0.018373
C34   C     C_R   0.228246 0.497024 0.062423 -0.018342
C35   C     C_R   0.769966 0.495210 0.936627 -0.018374
C36   C     C_R   0.482177 0.062186 0.457237 -0.161864
C37   C     C_R   0.477589 0.059198 0.529842 -0.160194
C38   C     C_R   0.982184 0.562186 0.457240 -0.161867
C39   C     C_R   0.767759 0.882263 0.852039 0.560593
C40   C     C_R   0.977596 0.559199 0.529844 -0.160198
C41   C     C_R   0.487378 0.164878 0.570866 0.013088
C42   C     C_R   0.498407 0.170335 0.422815 0.014856
C43   C     C_R   0.987381 0.664878 0.570868 0.013089
C44   C     C_R   0.998411 0.670334 0.422817 0.014856
C45   C     C_R   0.531636 0.154003 0.146581 0.553943
C46   C     C_R   0.468854 0.157198 0.853269 0.558774
C47   C     C_R   0.031636 0.654003 0.146581 0.553943
C48   C     C_R   0.968854 0.657198 0.853268 0.558775
C49   C     C_R   0.500330 0.277054 0.536969 0.091223
C50   C     C_R   0.491684 0.398466 0.938645 0.113682
C51   C     C_R   0.501137 0.280862 0.462035 0.097393
C52   C     C_R   0.000333 0.777054 0.536971 0.091226
C53   C     C_R   0.001140 0.780861 0.462037 0.097393
C54   C     C_R   0.797729 0.008161 0.470982 -0.113475
C55   C     C_R   0.208514 0.019591 0.527420 -0.104959
C56   C     C_R   0.297729 0.508162 0.470982 -0.113475
C57   C     C_R   0.708514 0.519590 0.527420 -0.104959
C58   C     C_R   0.797900 0.999595 0.543793 -0.118535
C59   C     C_R   0.208448 0.009292 0.454559 -0.114834
C60   C     C_R   0.297900 0.499596 0.543794 -0.118535
C61   C     C_R   0.449580 0.362672 0.080642 0.104843
C62   C     C_R   0.708447 0.509291 0.454559 -0.114834
C63   C     C_R   0.750926 0.920267 0.577447 0.029355
C64   C     C_R   0.251156 0.922668 0.421654 0.030531
C65   C     C_R   0.250926 0.420268 0.577448 0.029355
C66   C     C_R   0.751156 0.422668 0.421654 0.030531
C67   C     C_R   0.698512 0.859412 0.537745 -0.136730
C68   C     C_R   0.300275 0.856527 0.461781 -0.138981
C69   C     C_R   0.198512 0.359412 0.537745 -0.136731
C70   C     C_R   0.800275 0.356526 0.461781 -0.138979
C71   C     C_R   0.696753 0.871363 0.464084 -0.137567
C72   C     C_R   0.991686 0.898467 0.938645 0.113682
C73   C     C_R   0.301659 0.869308 0.535370 -0.143761
C74   C     C_R   0.196753 0.371364 0.464084 -0.137568
C75   C     C_R   0.801659 0.369307 0.535370 -0.143759
C76   C     C_R   0.747635 0.943714 0.430320 0.034187
C77   C     C_R   0.253917 0.948041 0.568548 0.038708
C78   C     C_R   0.247635 0.443715 0.430320 0.034187
C79   C     C_R   0.753917 0.448040 0.568548 0.038708
C80   C     C_R   0.726880 0.020419 0.139946 0.580042
C81   C     C_R   0.272961 0.020043 0.859983 0.585977
C82   C     C_R   0.226880 0.520419 0.139946 0.580044
C83   C     C_R   0.949580 0.862675 0.080642 0.104844
C84   C     C_R   0.772961 0.520043 0.859983 0.585977
C85   C     C_R   0.730817 0.380242 0.351499 0.551138
C86   C     C_R   0.269491 0.379586 0.648195 0.547300
C87   C     C_R   0.230817 0.880243 0.351499 0.551137
C88   C     C_R   0.769491 0.879586 0.648195 0.547300
C89   C     C_R   0.530597 0.158205 0.352539 0.565712
C90   C     C_R   0.466517 0.157019 0.645476 0.561298
C91   C     C_R   0.030598 0.658205 0.352539 0.565712
C92   C     C_R   0.966518 0.657019 0.645476 0.561298
C93   C     C_R   0.740760 0.974957 0.355843 0.567637
C94   C     C_R   0.966205 0.994651 0.979933 -0.081919
C95   C     C_R   0.259591 0.976124 0.643679 0.562159
C96   C     C_R   0.240760 0.474957 0.355843 0.567637
C97   C     C_R   0.759590 0.476123 0.643679 0.562158
C98   C     C_R   0.500072 0.171891 0.924886 0.000814
C99   C     C_R   0.502476 0.158304 0.074173 0.005629
C100  C     C_R   0.000073 0.671891 0.924885 0.000814
C101  C     C_R   0.002476 0.658304 0.074173 0.005629
C102  C     C_R   0.491446 0.279537 0.966912 -0.001515
C103  C     C_R   0.481311 0.267060 0.041743 0.004340
C104  C     C_R   0.991447 0.779537 0.966912 -0.001516
Cr1   Cr    Cr6+3 0.772000 0.169640 0.250110 1.066522
Cr2   Cr    Cr6+3 0.383330 0.010620 0.749160 1.103104
Cr3   Cr    Cr6+3 0.116670 0.510620 0.250840 1.105696
Cr4   Cr    Cr6+3 0.883330 0.510620 0.749160 1.103104
Cr5   Cr    Cr6+3 0.228000 0.169640 0.749890 1.077734
Cr6   Cr    Cr6+3 0.272000 0.669640 0.250110 1.066521
Cr7   Cr    Cr6+3 0.728000 0.669640 0.749890 1.077734
Cr8   Cr    Cr6+3 0.614960 0.323350 0.249260 1.102978
Cr9   Cr    Cr6+3 0.385040 0.323350 0.750740 1.100181
Cr10  Cr    Cr6+3 0.114960 0.823350 0.249260 1.102978
Cr11  Cr    Cr6+3 0.885040 0.823350 0.750740 1.100181
Cr12  Cr    Cr6+3 0.616670 0.010620 0.250840 1.105695
F1    F     F_    0.631135 0.857773 0.068378 -0.596954
F2    F     F_    0.388297 0.918853 0.942082 -0.599401
F3    F     F_    0.131135 0.357774 0.068378 -0.596955
F4    F     F_    0.888297 0.418855 0.942082 -0.599401
H1    H     H_    0.529335 0.970958 0.054141 0.252544
H2    H     H_    0.171114 0.062987 0.424533 0.156238
H3    H     H_    0.338265 0.549234 0.573175 0.158033
H4    H     H_    0.671113 0.562986 0.424533 0.156239
H5    H     H_    0.661146 0.799020 0.563121 0.134984
H6    H     H_    0.334472 0.790142 0.436940 0.134242
H7    H     H_    0.161146 0.299021 0.563121 0.134984
H8    H     H_    0.834472 0.290141 0.436940 0.134242
H9    H     H_    0.656001 0.824535 0.433749 0.135639
H10   H     H_    0.339123 0.817226 0.566162 0.128786
H11   H     H_    0.156001 0.324535 0.433749 0.135639
H12   H     H_    0.519507 0.981445 0.929123 0.227646
H13   H     H_    0.839122 0.317225 0.566163 0.128786
H14   H     H_    0.967249 0.085903 0.959379 0.204879
H15   H     H_    0.918209 0.049228 0.078415 0.180367
H16   H     H_    0.467246 0.585899 0.959380 0.204878
H17   H     H_    0.418209 0.549223 0.078416 0.180368
H18   H     H_    0.802435 0.141295 0.041863 0.167899
H19   H     H_    0.166544 0.071051 0.945416 0.209975
H20   H     H_    0.302433 0.641298 0.041863 0.167899
H21   H     H_    0.666544 0.571053 0.945417 0.209975
H22   H     H_    0.476843 0.977090 0.428332 0.153705
H23   H     H_    0.029335 0.470959 0.054141 0.252545
H24   H     H_    0.465147 0.972383 0.553482 0.155755
H25   H     H_    0.976851 0.477090 0.428335 0.153707
H26   H     H_    0.965155 0.472386 0.553485 0.155758
H27   H     H_    0.019508 0.481445 0.929123 0.227644
H28   H     H_    0.836244 0.068083 0.446930 0.156790
H29   H     H_    0.173085 0.084953 0.551292 0.155584
H30   H     H_    0.336243 0.568084 0.446931 0.156790
H31   H     H_    0.673084 0.584952 0.551292 0.155585
H32   H     H_    0.838266 0.049233 0.573175 0.158033
I1    I     I_    0.547369 0.448569 0.844638 -0.225183
I2    I     I_    0.108145 0.092486 0.086991 -0.169948
I3    I     I_    0.335560 0.665577 0.882589 -0.223191
I4    I     I_    0.608145 0.592485 0.086991 -0.169947
I5    I     I_    0.525509 0.438566 0.597008 -0.303625
I6    I     I_    0.498492 0.453997 0.410213 -0.315968
I7    I     I_    0.025511 0.938565 0.597009 -0.303624
I8    I     I_    0.998493 0.953995 0.410214 -0.315969
I9    I     I_    0.401404 0.339035 0.182374 -0.245222
I10   I     I_    0.047371 0.948568 0.844637 -0.225185
I11   I     I_    0.901405 0.839038 0.182374 -0.245219
I12   I     I_    0.602667 0.783991 0.909000 -0.254861
I13   I     I_    0.404299 0.828854 0.099321 -0.254051
I14   I     I_    0.102667 0.283989 0.909001 -0.254864
I15   I     I_    0.904299 0.328857 0.099323 -0.254050
I16   I     I_    0.835561 0.165577 0.882590 -0.223192
O1    O     O_R   0.787540 0.042690 0.170470 -0.490640
O2    O     O_R   0.454130 0.051100 0.669160 -0.528559
O3    O     O_R   0.045870 0.551100 0.330840 -0.523103
O4    O     O_R   0.954130 0.551100 0.669160 -0.528561
O5    O     O_R   0.681340 0.959300 0.325510 -0.500725
O6    O     O_R   0.318660 0.959300 0.674490 -0.505911
O7    O     O_R   0.181340 0.459300 0.325510 -0.500726
O8    O     O_R   0.818660 0.459300 0.674490 -0.505910
O9    O     O_3   0.667880 0.167870 0.250070 -0.310692
O10   O     O_3   0.332120 0.167870 0.749930 -0.309112
O11   O     O_3   0.167880 0.667870 0.250070 -0.310692
O12   O     O_R   0.212460 0.042690 0.829530 -0.488282
O13   O     O_3   0.832120 0.667870 0.749930 -0.309111
O14   O     O_R   0.765660 0.292160 0.175050 -0.506987
O15   O     O_R   0.234340 0.292160 0.824950 -0.499297
O16   O     O_R   0.265660 0.792160 0.175050 -0.506987
O17   O     O_R   0.734340 0.792160 0.824950 -0.499297
O18   O     O_R   0.670190 0.408980 0.168550 -0.474629
O19   O     O_R   0.329810 0.408980 0.831450 -0.476305
O20   O     O_R   0.170190 0.908980 0.168550 -0.474629
O21   O     O_R   0.829810 0.908980 0.831450 -0.476305
O22   O     O_R   0.556580 0.251450 0.175160 -0.478801
O23   O     O_R   0.287540 0.542690 0.170470 -0.490640
O24   O     O_R   0.443420 0.251450 0.824840 -0.484923
O25   O     O_R   0.056580 0.751450 0.175160 -0.478801
O26   O     O_R   0.943420 0.751450 0.824840 -0.484924
O27   O     O_R   0.545920 0.049510 0.170320 -0.487314
O28   O     O_R   0.454080 0.049510 0.829680 -0.463653
O29   O     O_R   0.045920 0.549510 0.170320 -0.487313
O30   O     O_R   0.954080 0.549510 0.829680 -0.463653
O31   O     O_R   0.681390 0.957840 0.176710 -0.404947
O32   O     O_R   0.318610 0.957840 0.823290 -0.411350
O33   O     O_R   0.181390 0.457840 0.176710 -0.404947
O34   O     O_R   0.712460 0.542690 0.829530 -0.488283
O35   O     O_R   0.818610 0.457840 0.823290 -0.411350
O36   O     O_R   0.787500 0.044280 0.330990 -0.499320
O37   O     O_R   0.212500 0.044280 0.669010 -0.495568
O38   O     O_R   0.287500 0.544280 0.330990 -0.499320
O39   O     O_R   0.712500 0.544280 0.669010 -0.495569
O40   O     O_R   0.765610 0.293630 0.323860 -0.509116
O41   O     O_R   0.234390 0.293630 0.676140 -0.509414
O42   O     O_R   0.265610 0.793630 0.323860 -0.509116
O43   O     O_R   0.734390 0.793630 0.676140 -0.509413
O44   O     O_R   0.670140 0.410570 0.329080 -0.491524
O45   O     O_R   0.556540 0.252920 0.323970 -0.459207
O46   O     O_R   0.329860 0.410570 0.670920 -0.497318
O47   O     O_R   0.170140 0.910570 0.329080 -0.491524
O48   O     O_R   0.829860 0.910570 0.670920 -0.497318
O49   O     O_R   0.443460 0.252920 0.676030 -0.461553
O50   O     O_R   0.056540 0.752920 0.323970 -0.459206
O51   O     O_R   0.943460 0.752920 0.676030 -0.461553
O52   O     O_R   0.545870 0.051100 0.330840 -0.523102

loop_
_geom_bond_atom_site_label_1
_geom_bond_atom_site_label_2
_ccdc_geom_bond_type
C3    C104  A    
C45   O27   A    
C99   C103  A    
C85   O44   A    
C95   O37   A    
C16   C21   A    
C47   C101  S    
C96   O7    A    
C55   C59   A    
C82   O23   A    
C8    H16   S    
C57   C79   A    
Cr7   O39   S    
C36   C42   A    
C86   O41   A    
Cr7   O13   S    
Cr11  O51   S    
C81   O32   A    
C62   H4    S    
C56   C78   A    
C57   C62   A    
Cr3   O3    S    
C1    O18   A    
C59   C64   A    
Cr1   O1    S    
C13   C18   A    
C61   I9    S    
Cr8   O44   S    
Cr2   O32   S    
C36   C37   A    
C37   H24   S    
C95   O6    A    
C92   O4    A    
Cr3   O33   S    
Cr4   O35   S    
C67   H5    S    
Cr8   O18   S    
C71   C76   A    
C39   O21   A    
C43   C52   A    
C67   C71   A    
C25   I3    S    
C57   H31   S    
C50   I1    S    
C84   O34   A    
C32   C80   S    
Cr9   O19   S    
C29   C33   A    
Cr6   O23   S    
C100  C104  A    
Cr10  O20   S    
C59   H2    S    
C6    C101  A    
C41   C49   A    
C93   O36   A    
C36   H22   S    
C24   C29   A    
C90   O49   A    
C83   I11   S    
Cr12  O27   S    
C9    H17   S    
Cr5   O10   S    
C40   C43   A    
C12   C16   A    
C78   C96   S    
C8    C9    A    
C49   C51   A    
C88   O43   A    
Cr11  O48   S    
C54   H28   S    
C23   C27   A    
Cr1   O14   S    
Cr12  O52   S    
C64   C87   S    
C7    H27   S    
C42   C51   A    
C48   O26   A    
Cr5   O15   S    
C52   I7    S    
C65   C86   S    
Cr9   O10   S    
C46   C98   S    
Cr6   O16   S    
C1    C22   S    
C97   O8    A    
Cr12  O9    S    
Cr4   O30   S    
Cr2   O2    S    
C49   I5    S    
C2    C83   A    
Cr6   O42   S    
C11   C15   A    
Cr9   O46   S    
Cr10  O50   S    
Cr5   O41   S    
C44   C53   A    
Cr7   O34   S    
Cr9   O49   S    
Cr11  O13   S    
C58   H32   S    
C55   H29   S    
C80   O1    A    
C5    H12   S    
C87   O47   A    
C15   C20   A    
C48   C100  S    
C66   C85   S    
C63   C67   A    
Cr7   O17   S    
C27   H18   S    
C30   H20   S    
C7    C100  A    
C62   C66   A    
C20   C24   A    
C2    C94   A    
C45   C99   S    
C16   I14   S    
Cr3   O29   S    
Cr12  O31   S    
C30   C34   A    
Cr1   O36   S    
Cr2   O28   S    
C72   C104  A    
C68   C73   A    
C98   C102  A    
C80   O31   A    
C77   C95   S    
C14   I12   S    
C17   C21   S    
C56   C60   A    
C2    H15   S    
C48   O30   A    
Cr11  O21   S    
C31   H21   S    
C92   O51   A    
C19   C23   A    
C86   O46   A    
C38   H25   S    
C38   C44   A    
C35   C84   S    
C76   C93   S    
C71   H9    S    
C63   C88   S    
C29   H19   S    
C17   O15   A    
C79   C97   S    
C96   O38   A    
C11   C33   A    
C18   I15   S    
C90   O2    A    
Cr2   O6    S    
C69   C74   A    
Cr6   O38   S    
Cr8   O45   S    
C97   O39   A    
Cr5   O37   S    
C44   C91   S    
C19   C39   S    
C54   C76   A    
Cr12  O5    S    
C84   O35   A    
Cr1   O9    S    
Cr11  O26   S    
C33   C81   S    
C60   C65   A    
C50   C102  A    
Cr4   O4    S    
C55   C77   A    
C10   C14   A    
C87   O42   A    
C9    C61   A    
C75   C79   A    
C26   I4    S    
C12   C34   A    
C64   C68   A    
C68   H6    S    
C70   C75   A    
C13   F4    S    
C52   C53   A    
Cr1   O40   S    
C89   O45   A    
C54   C58   A    
Cr10  O25   S    
C70   H8    S    
C25   C30   A    
Cr9   O24   S    
C21   C25   A    
C73   H10   S    
C53   I8    S    
C73   C77   A    
C88   O48   A    
C61   C103  A    
C27   C32   A    
C18   C22   A    
C14   C19   A    
C47   O25   A    
C15   I13   S    
C58   C63   A    
C81   O12   A    
C46   O24   A    
C4    C5    A    
C82   O33   A    
C1    O14   A    
C75   H13   S    
C24   I2    S    
C13   C35   A    
C6    C7    A    
C91   O3    A    
C20   C28   S    
C74   C78   A    
C51   I6    S    
Cr3   O11   S    
C43   C92   S    
C40   H26   S    
C42   C89   S    
C91   O50   A    
C28   O20   A    
C28   O16   A    
C72   C94   A    
C10   F1    S    
C89   O52   A    
C38   C40   A    
Cr5   O12   S    
C3    C101  A    
C66   C70   A    
Cr3   O7    S    
Cr6   O11   S    
C17   O19   A    
C65   C69   A    
Cr4   O8    S    
C93   O5    A    
C94   H14   S    
C4    H1    S    
C41   C90   S    
C8    C50   A    
C31   C35   A    
C12   F3    S    
C37   C41   A    
C102  C103  A    
Cr10  O47   S    
Cr7   O43   S    
Cr8   O22   S    
C23   I16   S    
C39   O17   A    
C10   C32   A    
C45   O22   A    
C26   C31   A    
C60   H3    S    
C3    C83   A    
C5    C98   A    
C69   H7    S    
Cr10  O11   S    
C22   C26   A    
C4    C99   A    
Cr4   O13   S    
C46   O28   A    
C72   I10   S    
C47   O29   A    
C34   C82   S    
C6    H23   S    
C74   H11   S    
C11   F2    S    
C56   H30   S    
Cr2   O10   S    
C85   O40   A    
Cr8   O9    S    
