data_mof_unit_11960.cif
_audit_creation_date              2012-12-11T14:10:38-0500
_audit_creation_method            fapswitch 2.2
_symmetry_space_group_name_H-M    P1
_symmetry_Int_Tables_number       1
_space_group_crystal_system       triclinic
_cell_length_a                    19.826121
_cell_length_b                    17.178434
_cell_length_c                    15.485951
_cell_angle_alpha                 89.999699
_cell_angle_beta                  52.285423
_cell_angle_gamma                 90.000255
_cell_volume                      4172.27551653

loop_
_atom_site_label
_atom_site_type_symbol
_atom_type_description
_atom_site_fract_x
_atom_site_fract_y
_atom_site_fract_z
_atom_type_partial_charge
C1    C     C_R   0.378003 0.198028 0.992025 0.664420
C2    C     C_R   0.621994 0.801971 0.007979 0.664400
C3    C     C_R   0.659119 0.176982 0.955615 0.742832
C4    C     C_R   0.340876 0.823021 0.044392 0.742813
C5    C     C_R   0.840878 0.676979 0.044390 0.742837
C6    C     C_R   0.159117 0.323016 0.955619 0.742850
C7    C     C_R   0.121992 0.698030 0.007981 0.664375
C8    C     C_R   0.878005 0.301971 0.992023 0.664402
C9    C     C_3   0.211778 0.194134 0.584648 -0.253680
C10   C     C_3   0.788489 0.806022 0.415187 -0.253685
C11   C     C_3   0.696295 0.245939 0.436460 -0.246739
C12   C     C_3   0.303504 0.754210 0.563645 -0.246824
C13   C     C_3   0.803428 0.745736 0.563684 -0.246871
C14   C     C_3   0.196363 0.254109 0.436426 -0.246783
C15   C     C_3   0.288402 0.694029 0.415243 -0.253668
C16   C     C_3   0.711848 0.305824 0.584601 -0.253661
C17   C     C_2   0.184404 0.747418 0.098206 -0.017939
C18   C     C_2   0.815583 0.252588 0.901811 -0.017736
C19   C     C_2   0.718262 0.689079 0.035774 -0.120019
C20   C     C_2   0.281726 0.310914 0.964244 -0.119820
C21   C     C_2   0.781734 0.189081 0.964231 -0.119881
C22   C     C_2   0.218255 0.810925 0.035785 -0.120089
C23   C     C_2   0.315577 0.247410 0.901820 -0.017672
C24   C     C_2   0.684410 0.752584 0.098197 -0.017859
C25   C     C_R   0.392457 0.802202 0.212890 0.001215
C26   C     C_R   0.607569 0.197791 0.787091 0.001105
C27   C     C_R   0.650782 0.827650 0.779131 -0.072056
C28   C     C_R   0.349203 0.172332 0.220869 -0.071924
C29   C     C_R   0.849198 0.327674 0.220869 -0.071890
C30   C     C_R   0.150788 0.672343 0.779131 -0.072016
C31   C     C_R   0.107567 0.302209 0.787095 0.001117
C32   C     C_R   0.892464 0.697800 0.212884 0.001243
C33   C     C_R   0.331027 0.912924 0.949465 -0.196267
C34   C     C_R   0.668971 0.087078 0.050539 -0.196256
C35   C     C_R   0.632316 0.888255 0.104936 -0.199742
C36   C     C_R   0.367679 0.111742 0.895069 -0.199802
C37   C     C_R   0.867682 0.388257 0.895066 -0.199793
C38   C     C_R   0.132314 0.611745 0.104939 -0.199734
C39   C     C_R   0.168969 0.412921 0.050543 -0.196246
C40   C     C_R   0.831028 0.587077 0.949462 -0.196252
C41   C     C_R   0.356481 0.079500 0.316832 -0.059849
C42   C     C_R   0.643512 0.920489 0.683164 -0.059803
C43   C     C_R   0.599877 0.106140 0.691440 -0.136984
C44   C     C_R   0.400147 0.893849 0.308544 -0.137025
C45   C     C_R   0.900154 0.606153 0.308540 -0.137039
C46   C     C_R   0.099874 0.393858 0.691443 -0.136993
C47   C     C_R   0.143515 0.579508 0.683166 -0.059812
C48   C     C_R   0.856478 0.420503 0.316830 -0.059862
C49   C     C_R   0.351243 0.188142 0.929401 -0.053931
C50   C     C_R   0.648750 0.811854 0.070608 -0.053916
C51   C     C_R   0.710761 0.149440 0.980778 -0.084927
C52   C     C_R   0.289234 0.850563 0.019231 -0.084908
C53   C     C_R   0.789236 0.649438 0.019226 -0.084915
C54   C     C_R   0.210757 0.350558 0.980784 -0.084931
C55   C     C_R   0.148746 0.688147 0.070613 -0.053901
C56   C     C_R   0.851247 0.311856 0.929396 -0.053916
C57   C     C_R   0.378172 0.818326 0.309432 0.065998
C58   C     C_R   0.621875 0.181658 0.690536 0.066058
C59   C     C_R   0.692421 0.860508 0.677081 0.049441
C60   C     C_R   0.307552 0.139461 0.322916 0.049380
C61   C     C_R   0.807544 0.360548 0.322914 0.049364
C62   C     C_R   0.192431 0.639482 0.677083 0.049420
C63   C     C_R   0.121870 0.318341 0.690542 0.066049
C64   C     C_R   0.878184 0.681678 0.309423 0.065979
C65   C     C_3   0.174074 0.150370 0.535335 -0.236817
C66   C     C_3   0.826112 0.849580 0.464746 -0.236733
C67   C     C_3   0.734087 0.202707 0.485571 -0.233317
C68   C     C_3   0.265784 0.797243 0.514310 -0.233175
C69   C     C_3   0.765733 0.702774 0.514272 -0.233100
C70   C     C_3   0.234138 0.297280 0.485600 -0.233250
C71   C     C_3   0.326050 0.650401 0.464721 -0.236790
C72   C     C_3   0.674126 0.349648 0.535353 -0.236870
C73   C     C_3   0.715099 0.775233 0.528349 0.424961
C74   C     C_3   0.284980 0.224953 0.471402 0.425030
C75   C     C_3   0.377697 0.724041 0.449062 0.437595
C76   C     C_3   0.622279 0.276139 0.551125 0.437667
C77   C     C_3   0.122292 0.223921 0.551068 0.437634
C78   C     C_3   0.877685 0.775892 0.449129 0.437555
C79   C     C_3   0.784995 0.274992 0.471335 0.425058
C80   C     C_3   0.215077 0.724830 0.528431 0.424997
C81   C     C_3   0.752256 0.818123 0.577422 0.013782
C82   C     C_3   0.247743 0.181859 0.422571 0.013814
C83   C     C_3   0.339512 0.766347 0.401342 0.019889
C84   C     C_3   0.660535 0.233638 0.598622 0.019895
C85   C     C_3   0.160531 0.266362 0.598628 0.019903
C86   C     C_3   0.839524 0.733657 0.401331 0.019901
C87   C     C_3   0.747739 0.318147 0.422567 0.013808
C88   C     C_3   0.252259 0.681870 0.577425 0.013771
H1    H     H_    0.393373 0.745031 0.183296 0.192888
H2    H     H_    0.606661 0.254965 0.816673 0.192928
H3    H     H_    0.669763 0.776721 0.800239 0.159059
H4    H     H_    0.330216 0.223262 0.199769 0.159059
H5    H     H_    0.830208 0.276744 0.199772 0.159062
H6    H     H_    0.169772 0.723273 0.800236 0.159062
H7    H     H_    0.106659 0.245036 0.816679 0.192919
H8    H     H_    0.893381 0.754970 0.183286 0.192876
H9    H     H_    0.311606 0.946819 0.909194 0.157163
H10   H     H_    0.688391 0.053183 0.090812 0.157159
H11   H     H_    0.635694 0.913864 0.166018 0.159518
H12   H     H_    0.364299 0.086133 0.833989 0.159458
H13   H     H_    0.864302 0.413866 0.833985 0.159463
H14   H     H_    0.135691 0.586136 0.166022 0.159523
H15   H     H_    0.188388 0.446814 0.090817 0.157156
H16   H     H_    0.811608 0.553183 0.909189 0.157159
H17   H     H_    0.344642 0.045436 0.383509 0.112852
H18   H     H_    0.655356 0.954555 0.616487 0.112959
H19   H     H_    0.594846 0.078263 0.632961 0.128150
H20   H     H_    0.405177 0.921726 0.367025 0.128231
H21   H     H_    0.905184 0.578277 0.367021 0.128257
H22   H     H_    0.094843 0.421735 0.632962 0.128170
H23   H     H_    0.155357 0.545442 0.616489 0.112924
H24   H     H_    0.844640 0.454567 0.383506 0.112822
H25   H     H_    0.150298 0.089518 0.552934 0.174552
H26   H     H_    0.850014 0.910388 0.447235 0.174628
H27   H     H_    0.758619 0.142057 0.466596 0.166400
H28   H     H_    0.241130 0.857851 0.533205 0.166419
H29   H     H_    0.741034 0.642181 0.533139 0.166428
H30   H     H_    0.258709 0.357917 0.466645 0.166406
H31   H     H_    0.349908 0.589578 0.447184 0.174608
H32   H     H_    0.650391 0.410513 0.552973 0.174532
H33   H     H_    0.218397 0.170364 0.645784 0.180948
H34   H     H_    0.782064 0.829927 0.353939 0.180921
H35   H     H_    0.690037 0.222668 0.374793 0.170931
H36   H     H_    0.309583 0.777612 0.625413 0.170879
H37   H     H_    0.809443 0.722287 0.625488 0.170855
H38   H     H_    0.190164 0.277419 0.374724 0.170906
H39   H     H_    0.281910 0.670170 0.354034 0.180942
H40   H     H_    0.718527 0.329555 0.645701 0.180968
H41   H     H_    0.195272 0.732560 0.156769 0.211253
H42   H     H_    0.804715 0.267445 0.843247 0.211167
H43   H     H_    0.706313 0.673334 0.978621 0.201197
H44   H     H_    0.293673 0.326657 0.021400 0.201154
H45   H     H_    0.793686 0.173333 0.021381 0.201174
H46   H     H_    0.206302 0.826674 0.978637 0.201217
H47   H     H_    0.304712 0.232556 0.843252 0.211162
H48   H     H_    0.695276 0.767439 0.156764 0.211251
N1    N     N_R   0.408680 0.130810 0.995780 -0.110569
N2    N     N_R   0.591320 0.869190 0.004220 -0.110553
N3    N     N_R   0.591320 0.130810 0.004220 -0.105693
N4    N     N_R   0.408680 0.869190 0.995780 -0.105720
N5    N     N_R   0.908680 0.630810 0.995780 -0.105718
N6    N     N_R   0.091320 0.369190 0.004220 -0.105691
N7    N     N_R   0.091320 0.630810 0.004220 -0.110556
N8    N     N_R   0.908680 0.369190 0.995780 -0.110571
N9    N     N_R   0.421410 0.867210 0.153620 -0.066518
N10   N     N_R   0.578590 0.132790 0.846380 -0.066508
N11   N     N_R   0.578590 0.867210 0.846380 -0.042292
N12   N     N_R   0.421410 0.132790 0.153620 -0.042250
N13   N     N_R   0.921410 0.367210 0.153620 -0.042238
N14   N     N_R   0.078590 0.632790 0.846380 -0.042278
N15   N     N_R   0.078590 0.367210 0.846380 -0.066511
N16   N     N_R   0.921410 0.632790 0.153620 -0.066521
N17   N     N_R   0.403840 0.921910 0.935760 -0.075801
N18   N     N_R   0.596160 0.078090 0.064240 -0.075800
N19   N     N_R   0.596160 0.921910 0.064240 -0.080881
N20   N     N_R   0.403840 0.078090 0.935760 -0.080874
N21   N     N_R   0.903840 0.421910 0.935760 -0.080877
N22   N     N_R   0.096160 0.578090 0.064240 -0.080884
N23   N     N_R   0.096160 0.421910 0.064240 -0.075801
N24   N     N_R   0.903840 0.578090 0.935760 -0.075802
N25   N     N_R   0.426250 0.076100 0.213650 -0.045433
N26   N     N_R   0.573750 0.923900 0.786350 -0.045446
N27   N     N_R   0.573750 0.076100 0.786350 -0.061363
N28   N     N_R   0.426250 0.923900 0.213650 -0.061374
N29   N     N_R   0.926250 0.576100 0.213650 -0.061376
N30   N     N_R   0.073750 0.423900 0.786350 -0.061365
N31   N     N_R   0.073750 0.576100 0.786350 -0.045443
N32   N     N_R   0.926250 0.423900 0.213650 -0.045431
Ni1   Ni    Ni4+2 0.500000 0.131570 0.000000 0.306719
Ni2   Ni    Ni4+2 0.500000 0.868430 0.000000 0.306632
Ni3   Ni    Ni4+2 1.000000 0.631570 0.000000 0.306645
Ni4   Ni    Ni4+2 1.000000 0.368430 0.000000 0.306732
Ni5   Ni    Ni4+2 0.488900 0.000000 0.862310 0.219444
Ni6   Ni    Ni4+2 0.511100 0.000000 0.137690 0.219429
Ni7   Ni    Ni4+2 0.988900 0.500000 0.862310 0.219441
Ni8   Ni    Ni4+2 0.011100 0.500000 0.137690 0.219424
F1    F     F_    0.400740 0.266709 0.010774 -0.723160
F2    F     F_    0.599256 0.733290 0.989230 -0.723235
F3    F     F_    0.665170 0.246388 0.910164 -0.737070
F4    F     F_    0.334818 0.753620 0.089858 -0.737044
F5    F     F_    0.834822 0.746381 0.089853 -0.737031
F6    F     F_    0.165164 0.253609 0.910173 -0.737059
F7    F     F_    0.099255 0.766710 0.989229 -0.723239
F8    F     F_    0.900741 0.233290 0.010774 -0.723161
Br1   Br    Br    0.597187 0.771103 0.582810 -0.491622
Br2   Br    Br    0.402971 0.229331 0.416588 -0.491822
Br3   Br    Br    0.496981 0.725770 0.387468 -0.508654
Br4   Br    Br    0.502932 0.274672 0.612998 -0.508920
Br5   Br    Br    0.002962 0.225472 0.612867 -0.508954
Br6   Br    Br    0.996948 0.774068 0.387630 -0.508691
Br7   Br    Br    0.903004 0.270535 0.416433 -0.491742
Br8   Br    Br    0.097141 0.729049 0.583004 -0.491528

loop_
_geom_bond_atom_site_label_1
_geom_bond_atom_site_label_2
_ccdc_geom_bond_type
N2    N19   A    
C68   C80   S    
C78   C86   S    
C29   H5    S    
C41   N25   A    
N2    Ni2   S    
N13   Ni4   S    
C14   C70   S    
C78   Br6   S    
C7    C55   A    
N6    N23   A    
C72   C76   S    
C75   C83   S    
C16   C72   S    
C76   C84   S    
C47   C62   A    
C7    N7    A    
N16   N29   A    
C65   C82   S    
N26   Ni5   S    
C33   C52   A    
C27   H3    S    
C12   C68   S    
C34   C51   A    
C10   C66   S    
C41   H17   S    
C6    F6    S    
N12   N25   A    
N17   Ni5   S    
N6    Ni4   S    
C35   N19   A    
C11   C76   S    
C10   C73   S    
C33   N17   A    
C23   C49   S    
C39   C54   A    
C4    N4    A    
C18   C21   D    
C13   C81   S    
N5    Ni3   S    
C47   N31   A    
C1    C49   A    
C14   C77   S    
C37   N21   A    
C26   N10   A    
C67   H27   S    
C3    F3    S    
C61   C87   S    
C43   C58   A    
C9    C85   S    
N9    Ni2   S    
C37   C56   A    
C60   C82   S    
C21   H45   S    
C38   C55   A    
N14   Ni3   S    
C11   C87   S    
C68   H28   S    
C48   N32   A    
C70   C74   S    
C9    H33   S    
C57   C83   S    
C69   C73   S    
C65   H25   S    
C6    N6    A    
C2    C50   A    
C17   C55   S    
N1    Ni1   S    
C76   Br4   S    
N11   Ni2   S    
C18   C56   S    
N4    N17   A    
C4    F4    S    
C13   H37   S    
C19   C53   S    
C44   H20   S    
C77   C85   S    
C67   C84   S    
C79   Br7   S    
C63   C85   S    
C24   C50   S    
C80   Br8   S    
C8    C56   A    
N13   N32   A    
C1    F1    S    
C20   H44   S    
C35   H11   S    
C79   C87   S    
C8    F8    S    
C11   C67   S    
C5    F5    S    
C34   N18   A    
C19   H43   S    
C66   C78   S    
C29   C61   A    
N20   Ni5   S    
C64   C86   S    
C28   N12   A    
N18   Ni6   S    
C17   H41   S    
C25   C57   A    
C31   C63   A    
C65   C77   S    
C38   N22   A    
C8    N8    A    
N10   Ni1   S    
C75   Br3   S    
N16   Ni3   S    
C3    C51   A    
C15   C83   S    
N3    N18   A    
C62   C88   S    
N21   Ni7   S    
C16   C84   S    
N15   Ni4   S    
C22   H46   S    
N1    N20   A    
N29   Ni8   S    
C2    N2    A    
C36   C49   A    
C58   C84   S    
C40   H16   S    
C31   N15   A    
N5    N24   A    
C5    N5    A    
C15   C80   S    
C32   N16   A    
C20   C23   D    
C44   C57   A    
C12   C88   S    
C72   H32   S    
C35   C50   A    
N12   Ni1   S    
N30   Ni7   S    
C67   C79   S    
C36   H12   S    
C43   H19   S    
N28   Ni6   S    
C26   C58   A    
C32   C64   A    
C28   C60   A    
C73   C81   S    
N19   Ni6   S    
C20   C54   S    
C48   H24   S    
C42   H18   S    
C4    C52   A    
C6    C54   A    
N23   Ni8   S    
C46   H22   S    
N24   Ni7   S    
C18   H42   S    
C3    N3    A    
C9    C74   S    
C14   C82   S    
N27   Ni5   S    
C21   C51   S    
C72   C87   S    
C1    N1    A    
C36   N20   A    
N7    N22   A    
C22   C52   S    
C74   C82   S    
N22   Ni8   S    
N32   Ni8   S    
C13   C78   S    
C10   C86   S    
N4    Ni2   S    
C66   H26   S    
C2    F2    S    
C32   H8    S    
C68   C83   S    
C39   N23   A    
C40   N24   A    
C25   N9    A    
C11   H35   S    
C59   C81   S    
C41   C60   A    
C10   H34   S    
N11   N26   A    
C42   C59   A    
C73   Br1   S    
C42   N26   A    
C39   H15   S    
N9    N28   A    
C23   H47   S    
C26   H2    S    
N15   N30   A    
C15   C71   S    
N10   N27   A    
N8    Ni4   S    
C45   C64   A    
C25   H1    S    
C17   C22   D    
C14   H38   S    
C71   H31   S    
C46   C63   A    
C16   C79   S    
C77   Br5   S    
C30   C62   A    
C19   C24   D    
C5    C53   A    
N7    Ni3   S    
C30   H6    S    
C27   N11   A    
C27   C59   A    
C66   C81   S    
C37   H13   S    
N25   Ni6   S    
C24   H48   S    
C48   C61   A    
C13   C69   S    
C70   H30   S    
C47   H23   S    
N14   N31   A    
C69   H29   S    
C34   H10   S    
N3    Ni1   S    
N31   Ni7   S    
C45   H21   S    
C7    F7    S    
C16   H40   S    
C38   H14   S    
C9    C65   S    
C30   N14   A    
C31   H7    S    
C46   N30   A    
C29   N13   A    
C71   C88   S    
C28   H4    S    
C80   C88   S    
C40   C53   A    
C12   C75   S    
C15   H39   S    
C44   N28   A    
C33   H9    S    
N8    N21   A    
C70   C85   S    
C45   N29   A    
C12   H36   S    
C69   C86   S    
C74   Br2   S    
C71   C75   S    
C43   N27   A    
