data_mof_unit_56590.cif
_audit_creation_date              2012-12-10T17:02:04-0500
_audit_creation_method            fapswitch 2.2
_symmetry_space_group_name_H-M    P1
_symmetry_Int_Tables_number       1
_space_group_crystal_system       triclinic
_cell_length_a                    10.901188
_cell_length_b                    11.062365
_cell_length_c                    9.905566
_cell_angle_alpha                 110.189278
_cell_angle_beta                  99.044768
_cell_angle_gamma                 91.580517
_cell_volume                      1102.88106927

loop_
_atom_site_label
_atom_site_type_symbol
_atom_type_description
_atom_site_fract_x
_atom_site_fract_y
_atom_site_fract_z
_atom_type_partial_charge
C1    C     C_R   0.490553 0.254925 0.441413 0.862881
C2    C     C_R   0.082054 0.478390 0.633627 -0.162355
C3    C     C_R   0.127757 0.457164 0.499590 -0.187499
C4    C     C_R   0.042098 0.407631 0.365788 0.345928
C5    C     C_R   0.913605 0.407371 0.364427 0.360104
C6    C     C_R   0.868219 0.453942 0.496959 -0.170218
C7    C     C_2   0.474285 0.116866 0.409192 -0.322372
C8    C     C_2   0.538719 0.063015 0.495780 0.620605
C9    C     C_2   0.528566 0.883806 0.586836 0.130943
C10   C     C_2   0.506660 0.928567 0.475470 0.433820
C11   C     C_2   0.518502 0.507231 0.083612 0.522449
C12   C     C_R   0.262070 0.485931 0.498593 0.834493
C13   C     C_2   0.524936 0.470809 0.923142 0.563360
C14   C     C_R   0.510488 0.745433 0.557882 0.806379
C15   C     C_R   0.736073 0.484460 0.497455 0.858429
C16   C     C_R   0.159740 0.501612 0.772145 0.577261
C17   C     C_R   0.113844 0.556903 0.901492 0.264551
C18   C     C_R   0.986223 0.544030 0.896906 0.276406
C19   C     C_R   0.910016 0.480092 0.762067 0.325348
C20   C     C_R   0.951721 0.472595 0.630540 -0.171585
Cu1   Cu    Cu3+1 0.521920 0.521810 0.644910 1.190823
Cu2   Cu    Cu3+1 0.478080 0.478190 0.355090 1.209174
H1    H     H_    0.403010 0.060070 0.317406 0.197153
N1    N     N_2   0.445130 0.445430 0.137370 -0.020895
N2    N     N_2   0.554930 0.554500 0.862630 -0.041644
O1    O     O_R   0.511700 0.332330 0.577400 -0.503038
O2    O     O_R   0.474680 0.295500 0.332650 -0.548229
O3    O     O_R   0.338160 0.518420 0.622400 -0.536407
O4    O     O_R   0.301140 0.481590 0.377650 -0.510309
O5    O     O_R   0.525320 0.704500 0.667350 -0.514543
O6    O     O_R   0.488300 0.667670 0.422600 -0.507829
O7    O     O_R   0.698860 0.518410 0.622350 -0.563768
O8    O     O_R   0.661840 0.481580 0.377600 -0.533989
Cl1   Cl    Cl    0.091619 0.337207 0.196008 -0.347498
Cl2   Cl    Cl    0.529032 0.304122 0.835441 -0.331377
Cl3   Cl    Cl    0.636817 0.625342 0.202567 -0.403617
Cl4   Cl    Cl    0.531468 0.714718 0.955894 -0.300409
Cl5   Cl    Cl    0.330514 0.325456 0.026265 -0.257211
F1    F     F_    0.264085 0.439901 0.784491 -0.602327
Cl6   Cl    Cl    0.217511 0.619045 0.069616 -0.364596
Cl7   Cl    Cl    0.924724 0.583222 0.059659 -0.343649
Cl8   Cl    Cl    0.800355 0.359739 0.759739 -0.325418
Cl9   Cl    Cl    0.811096 0.338970 0.193697 -0.349057
F2    F     F_    0.450790 0.849673 0.338795 -0.595540
F3    F     F_    0.638603 0.129902 0.596951 -0.541755
Cl10  Cl    Cl    0.584335 0.985894 0.769810 -0.322971

loop_
_geom_bond_atom_site_label_1
_geom_bond_atom_site_label_2
_ccdc_geom_bond_type
N1    Cl5   S    
C9    C14   S    
Cu2   O4    S    
C12   O4    A    
C6    C20   A    
Cu1   O5    S    
C19   C20   A    
C19   Cl8   S    
C14   O6    A    
Cu1   O1    S    
C2    C3    A    
C5    Cl9   S    
C9    Cl10  S    
Cu1   Cu2   S    
C11   C13   S    
C13   N2    D    
C5    C6    A    
C12   O3    A    
C7    H1    S    
C8    C10   S    
C11   Cl3   S    
Cu1   O3    S    
C14   O5    A    
C13   Cl2   S    
C4    Cl1   S    
Cu2   O2    S    
C1    O1    A    
Cu1   O7    S    
Cu2   N1    S    
Cu2   O6    S    
C16   F1    S    
C10   F2    S    
C3    C4    A    
C11   N1    D    
C7    C8    D    
C2    C16   A    
C17   C18   A    
C18   C19   A    
C9    C10   D    
C18   Cl7   S    
C1    O2    A    
Cu2   O8    S    
Cu1   N2    S    
C8    F3    S    
C16   C17   A    
C3    C12   S    
N2    Cl4   S    
C6    C15   S    
C1    C7    S    
C2    C20   A    
C15   O8    A    
C4    C5    A    
C17   Cl6   S    
C15   O7    A    
