data_mof_unit_40720.cif
_audit_creation_date              2012-12-10T17:02:56-0500
_audit_creation_method            fapswitch 2.2
_symmetry_space_group_name_H-M    P1
_symmetry_Int_Tables_number       1
_space_group_crystal_system       triclinic
_cell_length_a                    9.798874
_cell_length_b                    11.063006
_cell_length_c                    13.391173
_cell_angle_alpha                 94.218812
_cell_angle_beta                  81.511413
_cell_angle_gamma                 111.212406
_cell_volume                      1338.16792255

loop_
_atom_site_label
_atom_site_type_symbol
_atom_type_description
_atom_site_fract_x
_atom_site_fract_y
_atom_site_fract_z
_atom_type_partial_charge
C1    C     C_R   0.555032 0.745391 0.510072 0.827737
C2    C     C_R   0.435281 0.524099 0.975333 0.076396
C3    C     C_R   0.479962 0.552641 0.871205 0.045101
C4    C     C_R   0.547359 0.553860 0.039883 0.086190
C5    C     C_R   0.694284 0.634168 0.005257 0.157452
C6    C     C_R   0.729537 0.680137 0.907272 -0.248266
C7    C     C_R   0.624635 0.639251 0.840903 -0.191704
C8    C     C_R   0.519952 0.501057 0.136009 -0.201063
C9    C     C_R   0.770151 0.623817 0.167974 -0.204156
C10   C     C_R   0.377213 0.497007 0.801029 -0.107615
C11   C     C_2   0.585363 0.885227 0.515904 -0.033621
C12   C     C_R   0.423779 0.495276 0.691001 0.791290
C13   C     C_2   0.473379 0.931053 0.532822 0.196066
C14   C     C_2   0.406712 0.115873 0.500372 -0.390126
C15   C     C_2   0.505542 0.070423 0.525816 -0.165285
C16   C     C_2   0.922236 0.489455 0.491696 -0.071620
C17   C     C_2   0.076587 0.508480 0.509747 -0.066818
C18   C     C_R   0.442553 0.254641 0.495044 0.875467
C19   C     C_R   0.578265 0.513987 0.309434 0.797462
C20   C     C_R   0.804451 0.667907 0.069268 -0.197117
C21   C     C_R   0.626734 0.541719 0.202048 -0.071936
C22   C     C_R   0.227729 0.434615 0.836846 -0.223288
C23   C     C_R   0.179799 0.426570 0.939675 -0.197152
C24   C     C_R   0.280819 0.471423 0.009711 0.151032
Cu1   Cu    Cu3+1 0.362000 0.479240 0.482530 0.953402
Cu2   Cu    Cu3+1 0.638000 0.520760 0.517470 0.930302
H1    H     H_    0.854119 0.656748 0.218230 0.154511
H2    H     H_    0.298005 0.051677 0.485025 0.153174
H3    H     H_    0.124391 0.574929 0.569584 0.173945
H4    H     H_    0.873253 0.420911 0.433285 0.162244
H5    H     H_    0.107134 0.386406 0.399279 0.194179
H6    H     H_    0.894676 0.616952 0.598443 0.188738
H7    H     H_    0.839872 0.745432 0.880877 0.140826
H8    H     H_    0.916275 0.730749 0.043628 0.135168
H9    H     H_    0.416326 0.426354 0.161240 0.177040
H10   H     H_    0.146664 0.393231 0.785095 0.167745
H11   H     H_    0.062614 0.384981 0.965478 0.146708
H12   H     H_    0.657763 0.680547 0.766703 0.167159
H13   H     H_    0.614385 0.137034 0.539274 0.203204
N1    N     N_2   0.845330 0.551960 0.543750 -0.287013
N2    N     N_2   0.154690 0.448120 0.456210 -0.281425
O1    O     O_R   0.426290 0.668220 0.490680 -0.545183
O2    O     O_R   0.659360 0.703290 0.520190 -0.594097
O3    O     O_R   0.326580 0.473880 0.629020 -0.577961
O4    O     O_R   0.559660 0.508940 0.658530 -0.575367
O5    O     O_R   0.340640 0.296710 0.479810 -0.574109
O6    O     O_R   0.573710 0.331780 0.509320 -0.573908
O7    O     O_R   0.440340 0.491060 0.341470 -0.565399
O8    O     O_R   0.673420 0.526120 0.370980 -0.581186
N3    N     N_3   0.323369 0.845428 0.559962 -0.595377
H14   H     H_    0.262454 0.841217 0.501170 0.219309
H15   H     H_    0.277931 0.883080 0.624830 0.210506
N4    N     N_3   0.735985 0.972740 0.498348 -0.628331
H16   H     H_    0.782720 0.949469 0.427672 0.221786
H17   H     H_    0.793265 0.956900 0.553011 0.227091
N5    N     N_3   0.223680 0.476387 0.114209 -0.612640
H18   H     H_    0.155287 0.382546 0.135806 0.205799
H19   H     H_    0.158479 0.534165 0.121847 0.224735

loop_
_geom_bond_atom_site_label_1
_geom_bond_atom_site_label_2
_ccdc_geom_bond_type
Cu1   O1    S    
C2    C4    A    
C23   C24   A    
C6    C7    A    
C12   O4    A    
C24   N5    S    
C22   H10   S    
C14   C18   S    
C9    C20   A    
N3    H15   S    
C11   N4    S    
C6    H7    S    
C4    C8    A    
C20   H8    S    
C18   O6    A    
C13   C15   S    
C8    C21   A    
C12   O3    A    
C3    C10   A    
N4    H16   S    
C10   C22   A    
C11   C13   D    
C15   H13   S    
Cu2   N1    S    
C10   C12   S    
Cu2   O6    S    
C16   N1    D    
C18   O5    A    
Cu1   O3    S    
C19   C21   S    
C7    H12   S    
N5    H19   S    
Cu2   O2    S    
N3    H14   S    
C3    C7    A    
C2    C3    A    
H6    N1    S    
C2    C24   A    
C5    C6    A    
C17   N2    D    
N4    H17   S    
C16   H4    S    
C13   N3    S    
C9    C21   A    
C1    O1    A    
C17   H3    S    
N5    H18   S    
C9    H1    S    
Cu2   O8    S    
Cu1   N2    S    
C5    C20   A    
C19   O8    A    
C14   C15   D    
C16   C17   S    
H5    N2    S    
Cu2   O4    S    
C14   H2    S    
Cu1   Cu2   S    
C23   H11   S    
Cu1   O7    S    
Cu1   O5    S    
C1    O2    A    
C22   C23   A    
C19   O7    A    
C4    C5    A    
C8    H9    S    
C1    C11   S    
