data_mof_unit_19803.cif
_audit_creation_date              2013-03-05T16:30:42-0500
_audit_creation_method            fapswitch 2.2
_symmetry_space_group_name_H-M    P1
_symmetry_Int_Tables_number       1
_space_group_crystal_system       triclinic
_cell_length_a                    10.919011
_cell_length_b                    10.806968
_cell_length_c                    9.544129
_cell_angle_alpha                 90.275949
_cell_angle_beta                  89.281522
_cell_angle_gamma                 90.216772
_cell_volume                      1126.11119462

loop_
_atom_site_label
_atom_site_type_symbol
_atom_site_description
_atom_site_fract_x
_atom_site_fract_y
_atom_site_fract_z
_atom_type_partial_charge
O1    O     O_R   0.500000 0.319640 0.618810 -0.587141
O2    O     O_R   0.500010 0.319680 0.381230 -0.547651
C1    C     C_R   0.496489 0.262588 0.499744 0.861550
O3    O     O_R   0.321940 0.499980 0.618760 -0.597972
O4    O     O_R   0.321950 0.500020 0.381180 -0.563082
C2    C     C_R   0.265271 0.496607 0.500959 0.923725
Cu1   Cu    Cu3+1 0.499990 0.499980 0.640670 0.987637
Cu2   Cu    Cu3+1 0.500010 0.500020 0.359330 1.046669
O5    O     O_R   0.499990 0.680320 0.618770 -0.591144
O6    O     O_R   0.500000 0.680360 0.381190 -0.556483
O7    O     O_R   0.678050 0.499980 0.618820 -0.586428
O8    O     O_R   0.678060 0.500020 0.381240 -0.561305
C3    C     C_R   0.497380 0.737509 0.500259 0.903651
C4    C     C_R   0.734781 0.496677 0.498771 0.882072
C5    C     C_2   0.935755 0.452630 0.390427 0.168355
C6    C     C_2   0.867180 0.500200 0.496058 -0.300847
H1    H     H_    0.908461 0.548890 0.583089 0.165384
C7    C     C_2   0.069097 0.468032 0.388341 -0.078735
C8    C     C_2   0.133361 0.484354 0.505465 -0.286939
H2    H     H_    0.115690 0.461156 0.287358 0.191529
H3    H     H_    0.090375 0.481788 0.608423 0.143803
C9    C     C_R   0.543846 0.064935 0.606265 0.037117
C10   C     C_R   0.485571 0.129490 0.500878 -0.203100
C11   C     C_R   0.413494 0.064353 0.402729 0.257453
C12   C     C_R   0.412979 0.933693 0.403771 0.233954
C13   C     C_R   0.486079 0.870649 0.501850 -0.205006
C14   C     C_R   0.545162 0.937833 0.606147 -0.022170
C15   C     C_3   0.675970 0.935457 0.652871 0.174741
C16   C     C_3   0.673191 0.076088 0.653986 -0.443954
H4    H     H_    0.687879 0.895483 0.758639 0.116100
H5    H     H_    0.678501 0.116275 0.761174 0.194934
H6    H     H_    0.734271 0.121112 0.575022 0.225086
C17   C     C_R   0.595883 0.550235 0.072658 0.266805
N1    N     N_R   0.500780 0.500930 0.147930 -0.200112
C18   C     C_R   0.411593 0.439539 0.075338 0.008362
H7    H     H_    0.338756 0.392542 0.131760 0.183608
C19   C     C_R   0.411658 0.439417 0.926451 -0.038253
H8    H     H_    0.339005 0.392168 0.871501 0.158235
N2    N     N_R   0.500780 0.500890 0.852020 -0.200792
C20   C     C_R   0.595758 0.550378 0.925336 0.270176
C21   C     C_3   0.638628 0.681301 0.920175 -0.501111
C22   C     C_3   0.639840 0.680810 0.079162 -0.431721
H9    H     H_    0.731483 0.689723 0.871977 0.220421
H10   H     H_    0.568254 0.744297 0.877388 0.226961
H11   H     H_    0.733511 0.687916 0.122916 0.227514
H12   H     H_    0.571528 0.744795 0.126943 0.253181
I1    I     I_    0.865079 0.349764 0.217753 -0.268523
N3    N     N_R   0.338180 0.129940 0.306308 0.156075
O9    O     O_R   0.365575 0.129822 0.173300 -0.309884
O10   O     O_R   0.251642 0.202046 0.353224 -0.370413
N4    N     N_R   0.335369 0.866082 0.309988 0.153868
O11   O     O_R   0.255103 0.787887 0.359425 -0.340473
O12   O     O_R   0.349123 0.877145 0.175079 -0.298238
N5    N     N_R   0.760276 0.884284 0.547148 0.145911
O13   O     O_R   0.757393 0.920705 0.417356 -0.329864
O14   O     O_R   0.839867 0.801579 0.583423 -0.363537

loop_
_geom_bond_atom_site_label_1
_geom_bond_atom_site_label_2
_geom_bond_distance
_ccdc_geom_bond_type
O4    Cu2   1.952789 S    
N4    O12   1.300469 A    
C10   C11   1.414339 A    
C12   N4    1.435688 S    
C19   H8    1.081605 S    
C9    C16   1.493633 S    
C5    C7    1.464719 S    
C21   C22   1.517657 S    
C1    C10   1.442955 S    
C18   H7    1.081335 S    
C5    I1    2.134257 S    
Cu2   O8    1.957949 S    
C21   H10   1.111398 S    
N3    O10   1.300840 A    
C17   N1    1.363509 A    
Cu1   Cu2   2.685145 S    
C19   N2    1.369407 A    
Cu2   N1    2.017613 S    
Cu1   O7    1.952788 S    
C2    C8    1.446022 S    
C21   H9    1.111698 S    
C15   C16   1.520186 S    
C13   C14   1.392773 A    
O3    Cu1   1.957949 S    
C17   C22   1.490049 S    
Cu1   N2    2.017255 S    
C15   H4    1.109261 S    
C20   C21   1.489469 S    
C8    H3    1.084090 S    
O8    C4    1.288861 A    
O2    C1    1.291130 A    
C16   H6    1.112654 S    
C7    H2    1.086526 S    
C9    C14   1.373719 A    
O1    Cu1   1.959066 S    
C4    C6    1.445928 S    
O4    C2    1.293731 A    
O7    C4    1.296044 A    
N5    O14   1.300157 A    
C3    C13   1.444570 S    
C17   C20   1.406081 A    
O3    C2    1.290404 A    
N4    O11   1.301045 A    
C11   N3    1.433597 S    
N2    C20   1.364392 A    
C7    C8    1.337882 D    
C11   C12   1.412111 A    
C16   H5    1.111560 S    
N1    C18   1.369724 A    
C22   H12   1.111218 S    
C14   C15   1.501960 S    
Cu1   O5    1.961104 S    
O5    C3    1.292219 A    
N5    O13   1.302371 A    
N3    O9    1.300551 A    
C15   N5    1.465115 S    
C18   C19   1.420981 A    
C12   C13   1.416517 A    
C9    C10   1.389040 A    
O6    C3    1.290829 A    
Cu2   O6    1.959065 S    
O2    Cu2   1.961104 S    
C5    C6    1.349192 D    
C6    H1    1.083224 S    
O1    C1    1.291177 A    
C22   H11   1.111843 S    
