data_mof_unit_61757.cif
_audit_creation_date              2012-12-10T20:01:35-0500
_audit_creation_method            fapswitch 2.2
_symmetry_space_group_name_H-M    P1
_symmetry_Int_Tables_number       1
_space_group_crystal_system       triclinic
_cell_length_a                    14.216641
_cell_length_b                    14.943911
_cell_length_c                    16.741217
_cell_angle_alpha                 88.297883
_cell_angle_beta                  93.772775
_cell_angle_gamma                 90.141368
_cell_volume                      3547.43432957

loop_
_atom_site_label
_atom_site_type_symbol
_atom_type_description
_atom_site_fract_x
_atom_site_fract_y
_atom_site_fract_z
_atom_type_partial_charge
C1    C     C_R   0.499752 0.328050 0.499170 0.957115
C2    C     C_R   0.543672 0.908081 0.434871 0.091463
C3    C     C_R   0.494610 0.048166 0.492475 0.114829
C4    C     C_R   0.495032 0.952175 0.492146 0.115290
C5    C     C_R   0.107910 0.429187 0.535567 -0.418140
C6    C     C_R   0.890460 0.547582 0.441274 -0.424085
C7    C     C_R   0.207585 0.429090 0.534358 0.550717
C8    C     C_R   0.790248 0.545572 0.440081 0.540361
C9    C     C_R   0.202584 0.569693 0.463679 0.548939
C10   C     C_R   0.799054 0.452549 0.558716 0.563920
C11   C     C_R   0.102872 0.570275 0.463311 -0.397357
C12   C     C_R   0.500062 0.671956 0.499865 0.933186
C13   C     C_R   0.899066 0.452479 0.559261 -0.407478
C14   C     C_R   0.053540 0.500180 0.500134 0.092863
C15   C     C_R   0.946551 0.500544 0.500623 0.106681
C16   C     C_R   0.511751 0.499731 0.653793 0.933973
C17   C     C_R   0.488301 0.499799 0.347094 0.988772
C18   C     C_R   0.519589 0.490083 0.741051 -0.198859
C19   C     C_R   0.482278 0.491262 0.261664 -0.173730
C20   C     C_R   0.451198 0.440385 0.780746 0.417665
C21   C     C_R   0.517424 0.413282 0.229377 0.373461
C22   C     C_R   0.471150 0.411404 0.860098 -0.009793
C23   C     C_R   0.557689 0.182183 0.550702 0.037971
C24   C     C_R   0.512887 0.404919 0.146293 0.012727
C25   C     C_R   0.549261 0.447792 0.904083 0.196709
C26   C     C_R   0.482415 0.479161 0.096640 0.188911
C27   C     C_R   0.612805 0.503228 0.866485 -0.280747
C28   C     C_R   0.446030 0.555121 0.129894 -0.273946
C29   C     C_R   0.599241 0.524053 0.784889 0.005490
C30   C     C_R   0.444926 0.561516 0.212426 0.015769
C31   C     C_R   0.555048 0.089791 0.548689 -0.282594
C32   C     C_R   0.449445 0.905641 0.551715 -0.284258
C33   C     C_3   0.647156 0.338021 0.283295 0.111812
C34   C     C_R   0.451466 0.813012 0.554989 0.022337
C35   C     C_3   0.680070 0.257386 0.335233 -0.801164
C36   C     C_3   0.296961 0.480655 0.777579 0.150603
C37   C     C_3   0.207508 0.488977 0.723258 -0.779882
C38   C     C_3   0.231694 0.275899 0.559434 0.125051
C39   C     C_3   0.198416 0.230179 0.635101 -0.868110
C40   C     C_3   0.773882 0.601004 0.307026 0.061352
C41   C     C_3   0.697783 0.616040 0.239875 -0.819876
C42   C     C_3   0.225446 0.722177 0.437220 0.122677
C43   C     C_3   0.181024 0.768586 0.361789 -0.885545
C44   C     C_3   0.790604 0.396104 0.690500 0.124681
C45   C     C_R   0.498696 0.232260 0.495943 -0.059611
C46   C     C_3   0.837671 0.306027 0.711596 -0.915492
C47   C     C_R   0.499807 0.767896 0.497875 -0.050926
C48   C     C_R   0.438193 0.190687 0.438257 -0.005679
C49   C     C_R   0.546003 0.814473 0.437638 -0.001317
C50   C     C_R   0.435968 0.097112 0.436804 0.089978
H1    H     H_    0.064864 0.625976 0.434528 0.163094
H2    H     H_    0.674239 0.330358 0.223043 0.137355
H3    H     H_    0.648357 0.195174 0.310600 0.260057
H4    H     H_    0.758054 0.252059 0.336615 0.194898
H5    H     H_    0.659076 0.264632 0.397306 0.268944
H6    H     H_    0.324753 0.549865 0.786729 0.107017
H7    H     H_    0.277274 0.451680 0.836026 0.141158
H8    H     H_    0.179033 0.421619 0.709332 0.272605
H9    H     H_    0.153584 0.526648 0.753604 0.179477
H10   H     H_    0.222700 0.526523 0.667455 0.247711
H11   H     H_    0.293158 0.237697 0.541305 0.172909
H12   H     H_    0.939512 0.415302 0.605599 0.164104
H13   H     H_    0.176599 0.270903 0.509172 0.096736
H14   H     H_    0.135984 0.264968 0.655683 0.236216
H15   H     H_    0.179069 0.159640 0.622845 0.207012
H16   H     H_    0.255760 0.230866 0.683472 0.283949
H17   H     H_    0.814000 0.540313 0.292177 0.123265
H18   H     H_    0.820820 0.660658 0.308241 0.141403
H19   H     H_    0.649642 0.670627 0.254198 0.261904
H20   H     H_    0.730820 0.634334 0.183363 0.200926
H21   H     H_    0.657031 0.553621 0.230548 0.238988
H22   H     H_    0.290735 0.759248 0.455095 0.184595
H23   H     H_    0.670876 0.533182 0.901436 0.158646
H24   H     H_    0.178565 0.728162 0.487664 0.098879
H25   H     H_    0.115521 0.733625 0.340642 0.242727
H26   H     H_    0.163601 0.838906 0.374574 0.215174
H27   H     H_    0.231238 0.768674 0.313675 0.263290
H28   H     H_    0.732491 0.403135 0.730898 0.182258
H29   H     H_    0.840195 0.452314 0.704220 0.100395
H30   H     H_    0.886803 0.287698 0.665981 0.252974
H31   H     H_    0.877578 0.309366 0.770713 0.219292
H32   H     H_    0.783470 0.252839 0.715464 0.250664
H33   H     H_    0.596708 0.323658 0.085961 0.187673
H34   H     H_    0.419897 0.610308 0.091252 0.157826
H35   H     H_    0.478818 0.301962 0.073237 0.188295
H36   H     H_    0.376102 0.374256 0.941207 0.188900
H37   H     H_    0.453018 0.293322 0.919507 0.182407
H38   H     H_    0.657813 0.646738 0.775787 0.181611
H39   H     H_    0.731057 0.561832 0.759466 0.168383
H40   H     H_    0.339010 0.648750 0.224890 0.203033
H41   H     H_    0.447460 0.695412 0.225795 0.170313
H42   H     H_    0.688093 0.205276 0.600146 0.210513
H43   H     H_    0.602597 0.202027 0.665876 0.175226
H44   H     H_    0.334605 0.782251 0.612639 0.175193
H45   H     H_    0.600186 0.050295 0.590876 0.149334
H46   H     H_    0.435252 0.785376 0.672191 0.181715
H47   H     H_    0.310386 0.227885 0.386812 0.158835
H48   H     H_    0.398928 0.228597 0.323490 0.222572
H49   H     H_    0.561904 0.783956 0.322233 0.163318
H50   H     H_    0.663605 0.784465 0.381494 0.202137
H51   H     H_    0.391871 0.070665 0.322214 0.187179
H52   H     H_    0.305325 0.069513 0.387569 0.168123
H53   H     H_    0.562270 0.941643 0.318617 0.179303
H54   H     H_    0.662171 0.942901 0.380168 0.174160
H55   H     H_    0.412910 0.941463 0.595792 0.150654
H56   H     H_    0.073709 0.373580 0.564148 0.164685
H57   H     H_    0.924557 0.584211 0.394938 0.141557
H58   H     H_    0.678808 0.399257 0.310139 0.160623
N1    N     N_2   0.554248 0.443834 0.987953 -0.191282
N2    N     N_3   0.405933 0.764632 0.616869 -0.463527
N3    N     N_3   0.381230 0.244034 0.381094 -0.430992
N4    N     N_3   0.592523 0.766081 0.378887 -0.417912
N5    N     N_3   0.374938 0.051020 0.379957 -0.465746
N6    N     N_3   0.590521 0.959106 0.375236 -0.462465
N7    N     N_2   0.483330 0.479605 0.012856 -0.185599
N8    N     N_R   0.252470 0.499980 0.500000 -0.171355
N9    N     N_R   0.747530 0.500020 0.500000 -0.163728
N10   N     N_3   0.533635 0.319567 0.114491 -0.433175
N11   N     N_3   0.410983 0.345952 0.895185 -0.442635
N12   N     N_3   0.662207 0.585304 0.747970 -0.433161
N13   N     N_3   0.409262 0.640498 0.246406 -0.425138
N14   N     N_3   0.619201 0.225203 0.608955 -0.408711
O1    O     O_R   0.579480 0.369070 0.499990 -0.592863
O2    O     O_3   0.363044 0.424511 0.743344 -0.548338
O3    O     O_3   0.262304 0.364127 0.576093 -0.544743
O4    O     O_3   0.732394 0.590568 0.381432 -0.567932
O5    O     O_3   0.250947 0.633390 0.420325 -0.573261
O6    O     O_3   0.750376 0.397848 0.610710 -0.573234
O7    O     O_R   0.420520 0.630930 0.500010 -0.595746
O8    O     O_R   0.420520 0.369060 0.499990 -0.588068
O9    O     O_R   0.579480 0.630940 0.500010 -0.591361
O10   O     O_R   0.588340 0.499180 0.616130 -0.581848
O11   O     O_R   0.411660 0.500820 0.383870 -0.589323
O12   O     O_R   0.429390 0.499170 0.616130 -0.564251
O13   O     O_R   0.570610 0.500830 0.383870 -0.586420
O14   O     O_3   0.547591 0.342140 0.279573 -0.607982
Zn1   Zn    Zn3+2 0.606140 0.500010 0.500000 1.037408
Zn2   Zn    Zn3+2 0.393860 0.499990 0.500000 1.044481

loop_
_geom_bond_atom_site_label_1
_geom_bond_atom_site_label_2
_ccdc_geom_bond_type
C23   C45   A    
C12   O9    A    
C28   H34   S    
H51   N5    S    
C16   O12   A    
C47   C49   A    
C33   H2    S    
C39   H14   S    
C9    O5    S    
O9    Zn1   S    
H33   N10   S    
C36   C37   S    
C36   O2    S    
C24   C26   A    
C38   C39   S    
H47   N3    S    
C11   C14   A    
C35   H3    S    
C27   C29   A    
C22   C25   A    
C26   N7    S    
C17   C19   S    
C6    C15   A    
C46   H32   S    
C13   H12   S    
C40   H17   S    
C17   O13   A    
C6    H57   S    
C30   N13   S    
H36   N11   S    
H38   N12   S    
C21   O14   S    
C37   H8    S    
C25   N1    S    
C41   H21   S    
C38   H11   S    
C48   C50   A    
C40   H18   S    
O11   Zn2   S    
C35   H4    S    
C39   H15   S    
C33   H58   S    
C12   C47   S    
C10   O6    S    
C3    C50   A    
C44   C46   S    
C8    N9    A    
C23   N14   S    
N8    Zn2   S    
C5    H56   S    
C43   H25   S    
C22   N11   S    
C29   N12   S    
C42   H24   S    
C12   O7    A    
O7    Zn2   S    
C35   H5    S    
H53   N6    S    
H43   N14   S    
C1    O8    A    
C5    C7    A    
C6    C8    A    
O10   Zn1   S    
H46   N2    S    
H44   N2    S    
C32   C34   A    
C7    N8    A    
C2    C4    A    
C1    O1    A    
H37   N11   S    
C36   H6    S    
C2    C49   A    
H42   N14   S    
H40   N13   S    
C46   H31   S    
H39   N12   S    
C40   O4    S    
C42   H22   S    
C18   C29   A    
C37   H9    S    
C7    O3    S    
C3    C31   A    
C9    C11   A    
C5    C14   A    
C4    C32   A    
C42   O5    S    
C49   N4    S    
H54   N6    S    
C8    O4    S    
C40   C41   S    
C20   C22   A    
C36   H7    S    
C32   H55   S    
C13   C15   A    
C17   O11   A    
C34   N2    S    
C39   H16   S    
C43   H27   S    
C42   C43   S    
C3    C4    S    
O8    Zn2   S    
C38   O3    S    
C41   H19   S    
C38   H13   S    
C45   C48   A    
C43   H26   S    
O13   Zn1   S    
C44   O6    S    
H48   N3    S    
C19   C21   A    
C9    N8    A    
C24   N10   S    
C44   H29   S    
N9    Zn1   S    
C10   C13   A    
O12   Zn2   S    
H50   N4    S    
C25   C27   A    
O1    Zn1   S    
C26   C28   A    
C50   N5    S    
C28   C30   A    
H52   N5    S    
C46   H30   S    
C2    N6    S    
C33   O14   S    
C1    C45   S    
C31   H45   S    
H49   N4    S    
C44   H28   S    
C33   C35   S    
C18   C20   A    
H35   N10   S    
C16   O10   A    
C20   O2    S    
C37   H10   S    
C11   H1    S    
N1    N7    D    
C48   N3    S    
C16   C18   S    
H41   N13   S    
C21   C24   A    
C10   N9    A    
C14   C15   S    
C34   C47   A    
C27   H23   S    
C19   C30   A    
C23   C31   A    
C41   H20   S    
