data_mof_unit_37757.cif
_audit_creation_date              2012-12-11T16:41:22-0500
_audit_creation_method            fapswitch 2.2
_symmetry_space_group_name_H-M    P1
_symmetry_Int_Tables_number       1
_space_group_crystal_system       triclinic
_cell_length_a                    6.935503
_cell_length_b                    23.220654
_cell_length_c                    23.568413
_cell_angle_alpha                 112.552639
_cell_angle_beta                  90.438843
_cell_angle_gamma                 90.16868
_cell_volume                      3505.18597724

loop_
_atom_site_label
_atom_site_type_symbol
_atom_type_description
_atom_site_fract_x
_atom_site_fract_y
_atom_site_fract_z
_atom_type_partial_charge
O1    O     O_R   0.505740 0.453370 0.547760 -0.493202
O2    O     O_R   0.169520 0.427650 0.423350 -0.548060
O3    O     O_R   0.005620 0.546630 0.452240 -0.545480
C1    C     C_R   0.336924 0.408788 0.399286 0.675580
O4    O     O_R   0.175610 0.445960 0.545510 -0.536320
O5    O     O_R   0.011740 0.565080 0.575280 -0.540878
C2    C     C_R   0.344884 0.435235 0.563721 0.781375
O6    O     O_R   0.499610 0.434920 0.424720 -0.543386
O7    O     O_3   0.341310 0.539060 0.509620 -0.379032
V1    V     V_3+5 0.063960 0.492750 0.498220 1.452525
O8    O     O_R   0.682400 0.572350 0.576650 -0.526406
C3    C     C_R   0.850350 0.591453 0.600473 0.760299
O9    O     O_R   0.676320 0.554040 0.454490 -0.548561
C4    C     C_R   0.844792 0.565748 0.437389 0.664497
V2    V     V_3+5 0.564740 0.507250 0.501780 1.490307
O10   O     O_3   0.837250 0.460940 0.490380 -0.352138
C5    C     C_R   0.820283 0.846106 0.084184 -0.225397
H1    H     H_    0.724935 0.836299 0.044899 0.132468
C6    C     C_R   0.813037 0.807545 0.117753 0.437692
C7    C     C_R   0.930555 0.821302 0.171101 0.008633
C8    C     C_R   0.063597 0.871141 0.185850 -0.189101
H2    H     H_    0.155129 0.883708 0.226248 0.123519
C9    C     C_R   0.078302 0.906544 0.149547 -0.160039
H3    H     H_    0.182243 0.944410 0.162128 0.121483
C10   C     C_R   0.954673 0.894997 0.099075 -0.107307
C11   C     C_R   0.082976 0.773215 0.240212 -0.218787
H4    H     H_    0.222834 0.789651 0.232609 0.124683
C12   C     C_R   0.071641 0.741345 0.280072 0.425485
C13   C     C_R   0.894334 0.714923 0.287785 -0.020893
C14   C     C_R   0.728893 0.726188 0.258823 -0.243439
H5    H     H_    0.590564 0.707179 0.263941 0.184130
C15   C     C_R   0.739100 0.761878 0.222682 -0.129410
H6    H     H_    0.606393 0.771677 0.203807 0.165785
C16   C     C_R   0.917122 0.784589 0.211384 0.031008
C17   C     C_R   0.721473 0.681757 0.364487 -0.156083
H7    H     H_    0.608456 0.714741 0.367694 0.129138
C18   C     C_R   0.708116 0.645509 0.400137 -0.167859
H8    H     H_    0.584136 0.651063 0.429399 0.118103
C19   C     C_R   0.855453 0.603680 0.399058 -0.043982
C20   C     C_R   0.014148 0.598029 0.360563 -0.184108
H9    H     H_    0.128733 0.565528 0.357938 0.123654
C21   C     C_R   0.025067 0.633123 0.323875 -0.093721
H10   H     H_    0.146366 0.625873 0.293339 0.150796
C22   C     C_R   0.880407 0.676264 0.325970 0.103383
C23   C     C_R   0.848168 0.647690 0.659091 -0.077657
C24   C     C_R   0.960925 0.854490 0.839557 -0.069507
C25   C     C_R   0.147780 0.785346 0.752369 -0.197346
C26   C     C_R   0.132467 0.839818 0.805076 -0.162871
C27   C     C_R   0.802395 0.813897 0.818883 -0.236452
C28   C     C_R   0.817626 0.758658 0.765868 0.154508
C29   C     C_R   0.992472 0.743680 0.732724 0.167160
C30   C     C_R   0.008170 0.687773 0.680211 -0.242872
C31   C     C_R   0.674023 0.664434 0.692042 -0.082631
C32   C     C_R   0.660375 0.718151 0.745311 -0.205291
H11   H     H_    0.141952 0.676630 0.654896 0.119920
H12   H     H_    0.545014 0.636420 0.676285 0.174959
H13   H     H_    0.281466 0.775797 0.727062 0.113850
H14   H     H_    0.525336 0.728492 0.769877 0.130334
H15   H     H_    0.257154 0.870391 0.819251 0.126646
H16   H     H_    0.669532 0.824357 0.844733 0.124379
C33   C     C_R   0.337336 0.352649 0.340303 -0.064586
C34   C     C_R   0.472012 0.147486 0.159609 -0.071528
C35   C     C_R   0.649752 0.218599 0.249531 -0.198595
C36   C     C_R   0.641176 0.164341 0.196016 -0.163812
C37   C     C_R   0.310038 0.186539 0.178581 -0.229462
C38   C     C_R   0.318958 0.241925 0.232080 0.157402
C39   C     C_R   0.490404 0.258228 0.267813 0.159694
C40   C     C_R   0.499314 0.313602 0.321321 -0.234929
C41   C     C_R   0.168190 0.335813 0.303886 -0.163639
C42   C     C_R   0.159619 0.281561 0.250361 -0.192605
H17   H     H_    0.630417 0.325435 0.348820 0.121570
H18   H     H_    0.041011 0.364761 0.316842 0.129050
H19   H     H_    0.781755 0.229693 0.276528 0.120130
H20   H     H_    0.027622 0.270473 0.223361 0.127956
H21   H     H_    0.768364 0.135397 0.183066 0.126864
H22   H     H_    0.178925 0.174697 0.151088 0.126711
C43   C     C_R   0.270585 0.112597 0.875110 -0.160122
H23   H     H_    0.139876 0.093228 0.885646 0.120125
C44   C     C_R   0.256018 0.147446 0.838255 -0.085271
H24   H     H_    0.115503 0.154626 0.821757 0.111944
C45   C     C_R   0.420844 0.173914 0.823803 0.144249
C46   C     C_R   0.601465 0.163784 0.845612 -0.061927
H25   H     H_    0.730675 0.183280 0.834309 0.135030
C47   C     C_R   0.616521 0.128681 0.882387 -0.165341
H26   H     H_    0.757660 0.121937 0.898725 0.125516
C48   C     C_R   0.450917 0.102929 0.897987 -0.061709
C49   C     C_R   0.432171 0.278345 0.813122 0.481059
C50   C     C_R   0.416626 0.313045 0.775860 -0.196975
H27   H     H_    0.438563 0.363027 0.796319 0.182340
C51   C     C_R   0.371433 0.284285 0.712803 0.037185
C52   C     C_R   0.336919 0.219682 0.687698 -0.139745
H28   H     H_    0.302675 0.196000 0.639341 0.118950
C53   C     C_R   0.352202 0.184565 0.724373 -0.230729
H29   H     H_    0.327332 0.134681 0.703672 0.134984
C54   C     C_R   0.402810 0.213042 0.786888 -0.066250
C55   C     C_R   0.225293 0.311695 0.627522 -0.114066
H30   H     H_    0.117264 0.275516 0.619018 0.121069
C56   C     C_R   0.220298 0.348811 0.592523 -0.200824
H31   H     H_    0.110398 0.339368 0.557143 0.151595
C57   C     C_R   0.355134 0.397347 0.602655 -0.190911
C58   C     C_R   0.495210 0.408494 0.650175 0.462925
C59   C     C_R   0.501312 0.369873 0.683604 -0.201238
H32   H     H_    0.612202 0.377671 0.718365 0.173795
C60   C     C_R   0.365936 0.321940 0.673644 0.040661
O11   O     O_R   0.309730 0.065160 0.075230 -0.538503
O12   O     O_R   0.633800 0.053970 0.954410 -0.541634
O13   O     O_R   0.797580 0.934860 0.924760 -0.539532
C61   C     C_R   0.464229 0.065452 0.936987 0.696534
O14   O     O_R   0.639820 0.072410 0.076610 -0.539976
O15   O     O_R   0.803650 0.953440 0.047830 -0.537399
C62   C     C_R   0.472411 0.091306 0.100655 0.706076
O16   O     O_R   0.303670 0.046590 0.952160 -0.540252
O17   O     O_3   0.468000 0.960960 0.990410 -0.366709
V3    V     V_3+5 0.745380 0.007240 0.001780 1.406703
O18   O     O_R   0.132940 0.946010 0.045600 -0.537511
C63   C     C_R   0.964480 0.934126 0.062302 0.712785
O19   O     O_R   0.126920 0.927560 0.923400 -0.543461
C64   C     C_R   0.959129 0.909438 0.898980 0.695789
V4    V     V_3+5 0.244590 0.992720 0.998240 1.409458
O20   O     O_3   0.972110 0.039040 0.009600 -0.368116
O21   O     O_3   0.685957 0.757573 0.098367 -0.583634
C65   C     C_3   0.786576 0.701882 0.065421 0.075371
H33   H     H_    0.709284 0.663147 0.072356 0.163184
H34   H     H_    0.937251 0.701561 0.082365 0.119241
C66   C     C_3   0.786184 0.689019 0.996587 -0.357278
H35   H     H_    0.635462 0.689524 0.980404 0.218197
H36   H     H_    0.869453 0.726005 0.988418 0.190094
C67   C     C_3   0.876105 0.625974 0.959494 -0.707668
H37   H     H_    0.027975 0.624809 0.974331 0.231024
H38   H     H_    0.874251 0.618184 0.909967 0.252698
H39   H     H_    0.793084 0.587834 0.965661 0.248376
S1    S     S_3+6 0.485456 0.318213 0.892305 0.030303
O22   O     O_2   0.695016 0.309380 0.903335 -0.324885
O23   O     O_2   0.445862 0.386708 0.911802 -0.303279
O24   O     O_3   0.349685 0.289408 0.934254 -0.489559
H40   H     H_    0.405189 0.307704 0.976301 0.372217
S2    S     S_3+6 0.653970 0.473291 0.673800 -0.010708
O25   O     O_2   0.544974 0.529969 0.676561 -0.362459
O26   O     O_2   0.737154 0.484814 0.736373 -0.329784
O27   O     O_3   0.834315 0.459247 0.623177 -0.502624
H41   H     H_    0.938481 0.488611 0.645605 0.354640
O28   O     O_3   0.236680 0.735943 0.310852 -0.595277
C68   C     C_3   0.237572 0.782155 0.371274 0.050599
H42   H     H_    0.296812 0.760708 0.402436 0.139529
H43   H     H_    0.091239 0.799648 0.389141 0.113439
C69   C     C_3   0.367652 0.836778 0.374629 -0.316593
H44   H     H_    0.513338 0.819192 0.357417 0.203526
H45   H     H_    0.306486 0.859885 0.345130 0.188086
C70   C     C_3   0.386453 0.884663 0.440336 -0.837503
H46   H     H_    0.242705 0.903705 0.458291 0.231733
H47   H     H_    0.480941 0.923669 0.441165 0.232048
H48   H     H_    0.451499 0.862954 0.470496 0.228069

loop_
_geom_bond_atom_site_label_1
_geom_bond_atom_site_label_2
_ccdc_geom_bond_type
C68   C69   S    
C49   C50   A    
C53   H29   S    
O19   C64   A    
C6    C7    A    
C1    O6    A    
C67   H37   S    
C45   C46   A    
O24   H40   S    
C31   C32   A    
S2    O26   D    
C24   C27   A    
C11   H4    S    
C58   C59   A    
C37   H22   S    
O12   V3    S    
C12   C13   A    
C17   C18   A    
C18   H8    S    
C47   C48   A    
C69   H44   S    
O14   C62   A    
O5    C3    A    
C14   H5    S    
C45   C54   S    
C25   H13   S    
V2    O10   S    
C56   H31   S    
C24   C64   S    
C34   C36   A    
C4    C19   S    
O17   V4    S    
O8    V2    S    
C11   C16   A    
C34   C62   S    
C17   H7    S    
S1    O22   D    
C55   C56   A    
C42   H20   S    
C66   C67   S    
C9    H3    S    
O1    V2    S    
O7    V1    S    
O15   V3    S    
O13   C64   A    
C30   H11   S    
C7    C16   S    
C20   C21   A    
C38   C39   A    
O11   C62   A    
C23   C31   A    
C53   C54   A    
O9    C4    A    
C70   H47   S    
C41   C42   A    
C21   C22   A    
C28   C29   A    
C69   H45   S    
C43   C44   A    
C8    C9    A    
S2    O27   S    
C35   C39   A    
C2    C57   S    
C35   C36   A    
C39   C40   A    
S1    O24   S    
O27   H41   S    
C70   H48   S    
C52   H28   S    
O4    C2    A    
C58   S2    S    
C25   C29   A    
C35   H19   S    
C23   C30   A    
C43   H23   S    
C1    C33   S    
C29   C30   A    
C49   C54   A    
C15   C16   A    
C49   S1    S    
C41   H18   S    
O2    C1    A    
O13   V3    S    
C13   C14   A    
C52   C53   A    
C69   C70   S    
C25   C26   A    
V4    O20   S    
C55   H30   S    
C7    C8    A    
C5    H1    S    
C28   C32   A    
C47   H26   S    
C59   C60   A    
C17   C22   A    
C27   H16   S    
C51   C60   S    
O21   C65   S    
O3    C4    A    
O14   V3    S    
C20   H9    S    
C50   C51   A    
C43   C48   A    
C46   H25   S    
O6    V2    S    
C46   C47   A    
O9    V2    S    
C13   C22   S    
C66   H35   S    
C10   C63   S    
C12   O28   S    
C21   H10   S    
C65   H34   S    
O2    V1    S    
C67   H39   S    
O15   C63   A    
C19   C20   A    
C26   H15   S    
C44   C45   A    
O17   V3    S    
C32   H14   S    
C31   H12   S    
C33   C41   A    
C68   H43   S    
C55   C60   A    
C6    O21   S    
C34   C37   A    
O1    C2    A    
C11   C12   A    
C48   C61   S    
C3    C23   S    
C67   H38   S    
O5    V1    S    
O16   V4    S    
O8    C3    A    
S2    O25   D    
O18   V4    S    
C5    C10   A    
C15   H6    S    
C65   C66   S    
O19   V4    S    
O7    V2    S    
O4    V1    S    
C18   C19   A    
O3    V1    S    
V1    O10   S    
C70   H46   S    
C14   C15   A    
C33   C40   A    
C51   C52   A    
C38   C42   A    
O12   C61   A    
C40   H17   S    
C57   C58   A    
C5    C6    A    
C36   H21   S    
C37   C38   A    
C59   H32   S    
C56   C57   A    
C44   H24   S    
C24   C26   A    
C61   O16   A    
C9    C10   A    
C50   H27   S    
S1    O23   D    
C27   C28   A    
C66   H36   S    
O28   C68   S    
O11   V4    S    
O18   C63   A    
C65   H33   S    
C8    H2    S    
V3    O20   S    
C68   H42   S    
