data_mof_unit_38977.cif
_audit_creation_date              2012-12-10T17:58:17-0500
_audit_creation_method            fapswitch 2.2
_symmetry_space_group_name_H-M    P1
_symmetry_Int_Tables_number       1
_space_group_crystal_system       triclinic
_cell_length_a                    9.589827
_cell_length_b                    10.83876
_cell_length_c                    15.225923
_cell_angle_alpha                 88.265978
_cell_angle_beta                  75.357274
_cell_angle_gamma                 91.372172
_cell_volume                      1529.69037244

loop_
_atom_site_label
_atom_site_type_symbol
_atom_type_description
_atom_site_fract_x
_atom_site_fract_y
_atom_site_fract_z
_atom_type_partial_charge
C1    C     C_R   0.997387 0.263042 0.501825 0.827452
C2    C     C_R   0.001254 0.737951 0.500763 0.804116
C3    C     C_R   0.582040 0.524231 0.098452 -0.312573
C4    C     C_R   0.439025 0.384273 0.917594 -0.276499
C5    C     C_R   0.725901 0.550133 0.053688 0.475567
C6    C     C_R   0.293808 0.363052 0.961354 0.410410
C7    C     C_R   0.897000 0.061033 0.573354 0.109105
C8    C     C_R   0.105969 0.944454 0.438533 0.066401
C9    C     C_R   0.895563 0.930691 0.571327 0.100092
C10   C     C_R   0.089739 0.072259 0.430619 0.107870
C11   C     C_R   0.002091 0.872928 0.504382 -0.136795
C12   C     C_R   0.992847 0.129821 0.501540 -0.146806
C13   C     C_R   0.550060 0.428447 0.561052 -0.078867
C14   C     C_R   0.450848 0.568866 0.437171 -0.089969
C15   C     C_R   0.402490 0.424677 0.560383 0.265901
C16   C     C_R   0.599148 0.571609 0.436896 0.260494
C17   C     C_R   0.919392 0.498342 0.673032 0.804435
C18   C     C_R   0.080829 0.497372 0.327247 0.786945
C19   C     C_R   0.877581 0.497849 0.773634 -0.136174
C20   C     C_R   0.125774 0.478828 0.228440 -0.153097
C21   C     C_R   0.923356 0.544397 0.918462 -0.286410
C22   C     C_R   0.089630 0.391429 0.090981 -0.249529
C23   C     C_R   0.976761 0.532360 0.823856 0.458863
C24   C     C_R   0.033609 0.424464 0.180945 0.475836
C25   C     C_R   0.733577 0.466731 0.818728 -0.312922
C26   C     C_R   0.271488 0.501388 0.184101 -0.292997
C27   C     C_R   0.681291 0.475129 0.913484 0.055371
C28   C     C_R   0.332041 0.461147 0.095851 0.060281
C29   C     C_R   0.777104 0.522159 0.962128 -0.005526
C30   C     C_R   0.238138 0.405191 0.049100 -0.042680
C31   C     C_R   0.534730 0.445242 0.960180 0.000219
C32   C     C_R   0.482409 0.477063 0.052523 0.004098
Cu1   Cu    Cu3+1 0.140660 0.500020 0.500000 0.926550
Cu2   Cu    Cu3+1 0.859340 0.499980 0.500000 0.914767
H1    H     H_    0.335635 0.550474 0.221071 0.157731
H2    H     H_    0.662074 0.441353 0.777475 0.169703
H3    H     H_    0.993848 0.572992 0.959535 0.170862
H4    H     H_    0.016141 0.351459 0.055270 0.185782
H5    H     H_    0.553292 0.540882 0.169997 0.146412
H6    H     H_    0.473844 0.349807 0.850130 0.148224
H7    H     H_    0.587158 0.371076 0.609429 0.128923
H8    H     H_    0.414332 0.621251 0.386205 0.146624
N1    N     N_R   0.352080 0.500030 0.499980 -0.194815
N2    N     N_R   0.647920 0.499970 0.500020 -0.194150
O1    O     O_R   0.118740 0.319660 0.500000 -0.576273
O2    O     O_R   0.881260 0.680340 0.500000 -0.584312
O3    O     O_R   0.881170 0.319630 0.500010 -0.604462
O4    O     O_R   0.118830 0.680370 0.499990 -0.568644
O5    O     O_R   0.055570 0.500030 0.629830 -0.544080
O6    O     O_R   0.944430 0.499970 0.370170 -0.569907
O7    O     O_R   0.818000 0.500000 0.629840 -0.598681
O8    O     O_R   0.182000 0.500000 0.370160 -0.599598
O9    O     O_3   0.818927 0.601575 0.100083 -0.600425
C33   C     C_3   0.789218 0.727720 0.115559 0.043267
H9    H     H_    0.850454 0.758383 0.164265 0.178263
H10   H     H_    0.673160 0.741586 0.148154 0.136398
C34   C     C_3   0.839848 0.809487 0.028367 -0.385443
H11   H     H_    0.955265 0.793514 0.996301 0.217391
H12   H     H_    0.775560 0.785775 0.979549 0.214525
C35   C     C_3   0.822241 0.946133 0.048514 -0.931917
H13   H     H_    0.709144 0.963574 0.085192 0.264861
H14   H     H_    0.849067 0.002268 0.983921 0.255071
H15   H     H_    0.896072 0.975591 0.090133 0.249447
O10   O     O_3   0.203961 0.310942 0.913497 -0.615325
C36   C     C_3   0.195002 0.181085 0.928090 0.046091
H16   H     H_    0.084092 0.154840 0.968584 0.159744
H17   H     H_    0.272154 0.143637 0.965606 0.121741
C37   C     C_3   0.222695 0.121036 0.836115 -0.315395
H18   H     H_    0.151836 0.162015 0.796303 0.237900
H19   H     H_    0.336907 0.139986 0.798363 0.212399
C38   C     C_3   0.193175 0.981839 0.846373 -0.976651
H20   H     H_    0.253143 0.939716 0.892601 0.257303
H21   H     H_    0.227965 0.940215 0.778834 0.259279
H22   H     H_    0.076158 0.961271 0.874106 0.262865
O11   O     O_3   0.888015 0.405212 0.220927 -0.582118
C39   C     C_3   0.859640 0.279869 0.250248 0.037768
H23   H     H_    0.851175 0.272304 0.324359 0.177779
H24   H     H_    0.944272 0.215944 0.215438 0.100110
C40   C     C_3   0.716341 0.236691 0.233348 -0.301520
H25   H     H_    0.629346 0.297609 0.268098 0.226800
H26   H     H_    0.724456 0.242702 0.159181 0.220976
C41   C     C_3   0.678531 0.103572 0.268515 -0.976572
H27   H     H_    0.769050 0.042972 0.239684 0.258104
H28   H     H_    0.581963 0.069360 0.247923 0.259901
H29   H     H_    0.656011 0.098076 0.343795 0.263587
O12   O     O_3   0.122319 0.549915 0.777422 -0.593975
C42   C     C_3   0.206324 0.617007 0.824828 0.056344
H30   H     H_    0.212436 0.565084 0.887361 0.172575
H31   H     H_    0.161107 0.709553 0.841429 0.133382
C43   C     C_3   0.360894 0.632639 0.766371 -0.298066
H32   H     H_    0.403992 0.540219 0.747488 0.216825
H33   H     H_    0.362514 0.686948 0.703014 0.218088
C44   C     C_3   0.457578 0.697074 0.817990 -0.948847
H34   H     H_    0.430013 0.795414 0.826561 0.253675
H35   H     H_    0.572158 0.691597 0.779873 0.273948
H36   H     H_    0.444640 0.652777 0.886242 0.267046
C45   C     C_3   0.801960 0.126197 0.654026 -0.410565
C46   C     C_3   0.882324 0.147175 0.727205 -0.861631
H37   H     H_    0.918080 0.058212 0.750779 0.254464
H38   H     H_    0.977919 0.209588 0.700109 0.243852
H39   H     H_    0.810262 0.190720 0.786137 0.249658
H40   H     H_    0.764482 0.215771 0.634350 0.211294
H41   H     H_    0.699007 0.074928 0.684256 0.211787
C47   C     C_3   0.250358 0.891810 0.392919 -0.356654
C48   C     C_3   0.347396 0.896933 0.459316 -0.805296
H42   H     H_    0.296158 0.942993 0.523215 0.254797
H43   H     H_    0.373075 0.802816 0.479033 0.261625
H44   H     H_    0.448357 0.950527 0.427812 0.230253
H45   H     H_    0.239219 0.797134 0.369601 0.187176
H46   H     H_    0.305079 0.942883 0.329029 0.195280
C49   C     C_3   0.781499 0.854803 0.641635 -0.351652
C50   C     C_3   0.636331 0.854667 0.616258 -0.831273
H47   H     H_    0.632174 0.929936 0.565840 0.241960
H48   H     H_    0.616204 0.764974 0.587547 0.270224
H49   H     H_    0.547607 0.869571 0.677062 0.239255
H50   H     H_    0.812866 0.758581 0.650849 0.200515
H51   H     H_    0.769840 0.890557 0.710506 0.189796
C51   C     C_3   0.160628 0.143566 0.341436 -0.384358
C52   C     C_3   0.312647 0.196141 0.335199 -0.800409
H52   H     H_    0.309909 0.286459 0.367225 0.287331
H53   H     H_    0.375079 0.133412 0.367870 0.255086
H54   H     H_    0.370650 0.211549 0.262592 0.229873
H55   H     H_    0.163820 0.082641 0.283581 0.173560
H56   H     H_    0.093008 0.220722 0.329763 0.166865
C53   C     C_3   0.309750 0.328946 0.625213 -0.345618
C54   C     C_3   0.348859 0.197995 0.595115 -0.920599
H57   H     H_    0.268824 0.129996 0.636608 0.249892
H58   H     H_    0.348105 0.188577 0.522974 0.286021
H59   H     H_    0.457237 0.175479 0.603483 0.238073
H60   H     H_    0.325640 0.340043 0.694400 0.187548
H61   H     H_    0.194666 0.337438 0.632546 0.264762
C55   C     C_3   0.699552 0.649117 0.360989 -0.352048
C56   C     C_3   0.656536 0.782769 0.355409 -1.000744
H62   H     H_    0.560309 0.789654 0.327957 0.263993
H63   H     H_    0.638334 0.823093 0.423170 0.283914
H64   H     H_    0.745604 0.837437 0.308710 0.250867
H65   H     H_    0.808408 0.657748 0.368693 0.276361
H66   H     H_    0.704031 0.605590 0.295307 0.224292

loop_
_geom_bond_atom_site_label_1
_geom_bond_atom_site_label_2
_ccdc_geom_bond_type
C9    C49   S    
C42   H30   S    
C44   H34   S    
C27   C29   A    
Cu1   O1    S    
C49   C50   S    
C39   C40   S    
C17   O7    A    
C50   H48   S    
C45   C46   S    
C34   H11   S    
C18   O8    A    
O9    C33   S    
C2    O2    A    
Cu1   O8    S    
C48   H43   S    
Cu2   O7    S    
C54   H57   S    
C35   H15   S    
C5    O9    S    
C39   H24   S    
C8    C11   A    
C47   H45   S    
C46   H37   S    
C34   H12   S    
C55   H66   S    
C22   H4    S    
C35   H14   S    
C6    O10   S    
C51   C52   S    
C50   H47   S    
C41   H28   S    
C37   H18   S    
C42   H31   S    
C53   H60   S    
C20   C24   A    
C55   C56   S    
C36   H17   S    
C23   O12   S    
C56   H64   S    
C49   H50   S    
Cu2   O2    S    
C7    C45   S    
C16   N2    A    
C18   C20   S    
C45   H40   S    
C14   H8    S    
C3    H5    S    
C44   H35   S    
C1    C12   S    
C19   C25   A    
C2    C11   S    
C13   H7    S    
C47   C48   S    
C5    C29   A    
C52   H53   S    
C7    C12   A    
C48   H44   S    
C33   H10   S    
Cu2   O6    S    
C27   C31   A    
Cu1   N1    S    
C4    H6    S    
C28   C32   A    
Cu2   N2    S    
C39   H23   S    
C4    C6    A    
C17   O5    A    
C38   H21   S    
O12   C42   S    
C1    O3    A    
C34   C35   S    
C54   H59   S    
C2    O4    A    
C55   H65   S    
C21   C29   A    
C35   H13   S    
C19   C23   A    
O11   C39   S    
C10   C51   S    
C38   H22   S    
C9    C11   A    
C53   H61   S    
C43   H33   S    
C31   C32   A    
C36   C37   S    
Cu1   Cu2   S    
C51   H56   S    
C8    C47   S    
C45   H41   S    
C10   C12   A    
C8    C10   A    
C6    C30   A    
C36   H16   S    
C44   H36   S    
C46   H38   S    
C21   C23   A    
C56   H62   S    
C22   C24   A    
C46   H39   S    
C18   O6    A    
C43   C44   S    
C40   H26   S    
C52   H54   S    
C7    C9    A    
C33   H9    S    
C54   H58   S    
C22   C30   A    
C3    C5    A    
C40   C41   S    
C52   H52   S    
C24   O11   S    
C25   C27   A    
C41   H29   S    
C48   H42   S    
C26   C28   A    
C49   H51   S    
O10   C36   S    
C13   C15   A    
C15   N1    A    
C38   H20   S    
C47   H46   S    
C1    O1    A    
C43   H32   S    
C53   C54   S    
C20   C26   A    
C37   C38   S    
C28   C30   A    
C17   C19   S    
C14   C16   A    
C51   H55   S    
C50   H49   S    
C3    C32   A    
C16   C55   S    
C4    C31   A    
C25   H2    S    
C40   H25   S    
C26   H1    S    
C21   H3    S    
C37   H19   S    
C41   H27   S    
C15   C53   S    
C42   C43   S    
C56   H63   S    
Cu1   O4    S    
Cu2   O3    S    
Cu1   O5    S    
C13   N2    A    
C14   N1    A    
C33   C34   S    
