data_mof_unit_14504.cif
_audit_creation_date              2012-12-10T19:13:23-0500
_audit_creation_method            fapswitch 2.2
_symmetry_space_group_name_H-M    P1
_symmetry_Int_Tables_number       1
_space_group_crystal_system       triclinic
_cell_length_a                    9.7562
_cell_length_b                    10.662176
_cell_length_c                    16.457273
_cell_angle_alpha                 90.927137
_cell_angle_beta                  84.199648
_cell_angle_gamma                 89.990247
_cell_volume                      1702.93306281

loop_
_atom_site_label
_atom_site_type_symbol
_atom_type_description
_atom_site_fract_x
_atom_site_fract_y
_atom_site_fract_z
_atom_type_partial_charge
C1    C     C_R   0.499285 0.742136 0.501534 0.899664
C2    C     C_R   0.353622 0.487392 0.791211 -0.119310
C3    C     C_R   0.439710 0.481069 0.127760 -0.102949
C4    C     C_R   0.435585 0.525809 0.208201 -0.044762
C5    C     C_R   0.644594 0.405662 0.223029 -0.120074
C6    C     C_R   0.649550 0.365275 0.142195 -0.133627
C7    C     C_R   0.544083 0.398512 0.095682 0.132698
C8    C     C_2   0.434908 0.321185 0.978551 -0.289829
C9    C     C_2   0.549522 0.357654 0.010551 -0.198501
C10   C     C_R   0.535703 0.482197 0.257372 -0.138711
C11   C     C_3   0.347193 0.928338 0.508458 -0.409437
C12   C     C_R   0.479810 0.493914 0.653601 0.923934
C13   C     C_3   0.346542 0.071446 0.515149 -0.203934
C14   C     C_3   0.572327 0.930304 0.576127 -0.168291
C15   C     C_3   0.573896 0.923498 0.421499 -0.395858
C16   C     C_3   0.497650 0.878402 0.502815 -0.029608
C17   C     C_3   0.499205 0.121036 0.501351 -0.023045
C18   C     C_3   0.582314 0.074289 0.570826 -0.426874
C19   C     C_3   0.565945 0.067239 0.417387 0.114736
C20   C     C_3   0.910657 0.616403 0.542351 -0.147524
C21   C     C_3   0.073958 0.622293 0.536215 0.193095
C22   C     C_3   0.913440 0.389260 0.543093 -0.279819
C23   C     C_R   0.499953 0.257638 0.500018 0.856390
C24   C     C_3   0.934007 0.495657 0.416731 0.167843
C25   C     C_3   0.073532 0.397655 0.549063 -0.214559
C26   C     C_3   0.095682 0.488834 0.417322 -0.331452
C27   C     C_R   0.520321 0.500578 0.345865 0.871956
C28   C     C_R   0.464659 0.448679 0.736687 -0.113048
C29   C     C_R   0.549659 0.350748 0.756619 -0.169012
C30   C     C_R   0.529365 0.294962 0.832947 0.012960
C31   C     C_R   0.425828 0.343533 0.891508 0.005802
C32   C     C_R   0.332898 0.436526 0.869290 0.001817
H1    H     H_    0.629691 0.315637 0.711452 0.185304
H2    H     H_    0.732993 0.304952 0.116746 0.158380
H3    H     H_    0.283766 0.886385 0.560849 0.233829
H4    H     H_    0.298476 0.899034 0.452755 0.185894
H5    H     H_    0.288119 0.106835 0.465342 0.165463
H6    H     H_    0.546437 0.120938 0.630107 0.143178
H7    H     H_    0.683041 0.891516 0.416944 0.245209
H8    H     H_    0.527177 0.881107 0.368472 0.154900
H9    H     H_    0.499049 0.092541 0.369175 0.127236
H10   H     H_    0.679481 0.892704 0.570766 0.174834
H11   H     H_    0.692543 0.101042 0.558043 0.234551
H12   H     H_    0.877377 0.699287 0.509395 0.124551
H13   H     H_    0.107326 0.700085 0.494383 0.122739
H14   H     H_    0.856830 0.376859 0.604236 0.221608
H15   H     H_    0.093868 0.407241 0.614117 0.220674
H16   H     H_    0.899252 0.411170 0.384003 0.161245
H17   H     H_    0.722995 0.372566 0.259696 0.194077
H18   H     H_    0.146113 0.562435 0.377942 0.206196
H19   H     H_    0.134216 0.397752 0.389921 0.168617
H20   H     H_    0.891183 0.302140 0.508710 0.187235
H21   H     H_    0.121622 0.307892 0.526224 0.181603
H22   H     H_    0.643793 0.376488 0.971603 0.186129
H23   H     H_    0.363950 0.513307 0.088975 0.174213
H24   H     H_    0.284919 0.559182 0.773072 0.228180
H25   H     H_    0.341813 0.303251 0.018544 0.171022
N1    N     N_3   0.861190 0.500250 0.501720 -0.106929
N2    N     N_3   0.138550 0.503270 0.501080 -0.095351
O1    O     O_R   0.383960 0.685090 0.500020 -0.611035
O2    O     O_R   0.616040 0.685320 0.499960 -0.629896
O3    O     O_R   0.370240 0.499890 0.615830 -0.583149
O4    O     O_R   0.602330 0.500120 0.615770 -0.616536
O5    O     O_R   0.383960 0.314680 0.500040 -0.654446
O6    O     O_R   0.616040 0.314910 0.499980 -0.592448
O7    O     O_R   0.397670 0.499880 0.384230 -0.642407
O8    O     O_R   0.629760 0.500110 0.384170 -0.561402
Zn1   Zn    Zn3+2 0.345040 0.499850 0.500040 0.943410
Zn2   Zn    Zn3+2 0.654960 0.500150 0.499960 0.973169
C33   C     C_2   0.268779 0.115354 0.595256 0.414535
H26   H     H_    0.318536 0.172071 0.638984 0.063586
O9    O     O_2   0.147302 0.088870 0.610896 -0.545641
C34   C     C_2   0.501106 0.892221 0.658155 0.421834
H27   H     H_    0.397656 0.924737 0.677951 0.108969
O10   O     O_2   0.559712 0.826057 0.703619 -0.556075
C35   C     C_2   0.330858 0.621297 0.238377 0.419608
H28   H     H_    0.342120 0.675311 0.293722 0.060336
O11   O     O_2   0.231407 0.642168 0.201109 -0.526073
Br1   Br    Br    0.749152 0.132390 0.380158 -0.566578
C36   C     C_2   0.840548 0.637022 0.627943 0.582428
H29   H     H_    0.773903 0.717463 0.640491 0.104812
O12   O     O_2   0.858773 0.566826 0.683775 -0.527300
Br2   Br    Br    0.144700 0.676449 0.638496 -0.464992
Br3   Br    Br    0.888783 0.637548 0.349515 -0.485698
C37   C     C_2   0.217479 0.485557 0.927339 0.450963
H30   H     H_    0.192625 0.444114 0.986569 0.057261
O13   O     O_2   0.146865 0.573477 0.909252 -0.505486
C38   C     C_2   0.616599 0.186582 0.851202 0.423837
H31   H     H_    0.596542 0.137486 0.908389 0.101795
O14   O     O_2   0.711106 0.149871 0.802241 -0.532639

loop_
_geom_bond_atom_site_label_1
_geom_bond_atom_site_label_2
_ccdc_geom_bond_type
C10   C27   S    
O7    Zn1   S    
C34   H27   S    
C14   C18   S    
C37   H30   S    
C30   C38   S    
C15   C19   S    
C17   C23   S    
C12   C28   S    
O5    Zn1   S    
C28   C29   A    
C24   C26   S    
C21   N2    S    
C3    C7    A    
C26   H18   S    
C5    C6    A    
N2    Zn1   S    
C13   C33   S    
C15   C16   S    
C29   H1    S    
C2    C32   A    
C3    H23   S    
C21   Br2   S    
C8    C9    D    
C22   C25   S    
C33   H26   S    
C26   N2    S    
C25   H15   S    
C13   H5    S    
C14   H10   S    
C34   O10   D    
C5    H17   S    
C20   H12   S    
C21   H13   S    
C37   O13   D    
C20   C36   S    
C35   O11   D    
C24   H16   S    
C14   C34   S    
O4    Zn2   S    
C35   H28   S    
C36   O12   D    
C1    O1    A    
C12   O4    A    
C6    H2    S    
O8    Zn2   S    
C29   C30   A    
C8    H25   S    
C12   O3    A    
C11   C16   S    
C31   C32   A    
C17   C18   S    
C1    C16   S    
C20   C21   S    
C19   Br1   S    
C15   H7    S    
C23   O5    A    
C22   H14   S    
C38   O14   D    
C14   C16   S    
C20   N1    S    
C3    C4    A    
C22   H20   S    
O2    Zn2   S    
C7    C9    S    
C11   H4    S    
C8    C31   S    
C25   H21   S    
C36   H29   S    
C1    O2    A    
C22   N1    S    
C2    C28   A    
N1    Zn2   S    
C6    C7    A    
O3    Zn1   S    
C13   C17   S    
C23   O6    A    
C11   H3    S    
C24   Br3   S    
C5    C10   A    
C27   O7    A    
C2    H24   S    
C18   H11   S    
C11   C13   S    
C30   C31   A    
O6    Zn2   S    
C32   C37   S    
C17   C19   S    
C18   H6    S    
C15   H8    S    
C4    C35   S    
C27   O8    A    
C38   H31   S    
O1    Zn1   S    
C24   N1    S    
C33   O9    D    
C9    H22   S    
C25   N2    S    
C26   H19   S    
C4    C10   A    
C19   H9    S    
