data_mof_unit_20706.cif
_audit_creation_date              2012-12-11T15:59:42-0500
_audit_creation_method            fapswitch 2.2
_symmetry_space_group_name_H-M    P1
_symmetry_Int_Tables_number       1
_space_group_crystal_system       triclinic
_cell_length_a                    10.818779
_cell_length_b                    10.713988
_cell_length_c                    17.110481
_cell_angle_alpha                 99.400747
_cell_angle_beta                  99.897121
_cell_angle_gamma                 60.449769
_cell_volume                      1692.49737255

loop_
_atom_site_label
_atom_site_type_symbol
_atom_type_description
_atom_site_fract_x
_atom_site_fract_y
_atom_site_fract_z
_atom_type_partial_charge
C1    C     C_R   0.355075 0.771085 0.399037 0.578589
C2    C     C_R   0.824008 0.346654 0.325173 0.017884
C3    C     C_R   0.353863 0.825539 0.161319 -0.017125
C4    C     C_R   0.369788 0.346728 0.357333 0.557390
C5    C     C_R   0.436512 0.870011 0.221742 -0.024001
C6    C     C_R   0.420441 0.874702 0.302691 0.050068
C7    C     C_R   0.288433 0.740686 0.259040 -0.151446
C8    C     C_R   0.294542 0.747801 0.180715 -0.127900
C9    C     C_R   0.536989 0.906028 0.204333 -0.093421
C10   C     C_R   0.616870 0.947347 0.264324 -0.119548
C11   C     C_R   0.594838 0.960320 0.343108 -0.094575
C12   C     C_R   0.857744 0.202594 0.198275 -0.024716
C13   C     C_R   0.488390 0.936755 0.362500 0.109077
C14   C     C_R   0.342857 0.810573 0.320350 0.017559
C15   C     C_R   0.363522 0.337272 0.835918 -0.007278
C16   C     C_R   0.775801 0.377200 0.403487 0.541926
C17   C     C_R   0.498735 0.238657 0.804740 -0.038629
C18   C     C_R   0.516724 0.254813 0.727592 -0.047008
C19   C     C_R   0.284403 0.477312 0.722926 0.058023
C20   C     C_R   0.265234 0.458300 0.797464 -0.137962
C21   C     C_R   0.611123 0.113323 0.842835 0.249723
C22   C     C_R   0.702140 0.992241 0.795629 0.282368
C23   C     C_R   0.867086 0.210665 0.281897 0.005422
C24   C     C_R   0.725032 0.013617 0.723530 -0.150699
C25   C     C_R   0.643923 0.147129 0.694617 -0.170577
C26   C     C_R   0.405634 0.372055 0.684749 0.045177
C27   C     C_1   0.845209 0.328729 0.705724 -0.022666
C28   C     C_R   0.358303 0.769043 0.627374 0.552180
C29   C     C_1   0.892015 0.294298 0.772418 -0.029329
C30   C     C_1   0.338992 0.811423 0.709334 -0.016150
C31   C     C_1   0.312476 0.839947 0.777223 -0.031377
C32   C     C_R   0.892398 0.308265 0.087564 0.556627
C33   C     C_R   0.319098 0.299962 0.120068 0.572157
C34   C     C_R   0.788724 0.467998 0.286418 -0.134876
C35   C     C_R   0.297401 0.890079 0.085430 0.532795
C36   C     C_R   0.942654 0.273688 0.854620 0.533458
C37   C     C_R   0.313833 0.295529 0.896981 0.564964
C38   C     C_R   0.278070 0.886322 0.856968 0.528992
C39   C     C_R   0.412964 0.378792 0.599632 0.587879
C40   C     C_R   0.777299 0.378265 0.629170 0.547847
C41   C     C_1   0.343154 0.337056 0.273993 -0.018276
C42   C     C_1   0.331908 0.326758 0.203265 -0.008780
C43   C     C_R   0.834010 0.324909 0.161698 0.023535
C44   C     C_R   0.793637 0.457173 0.206190 -0.135344
C45   C     C_R   0.873356 0.072449 0.154713 -0.035039
C46   C     C_R   0.920685 0.947496 0.191548 0.236668
C47   C     C_R   0.947451 0.952426 0.274479 -0.144435
C48   C     C_R   0.918082 0.083279 0.319478 -0.147813
Cr1   Cr    Cr6+3 0.608100 0.610860 0.522250 1.050024
Cr2   Cr    Cr6+3 0.288890 0.599990 0.488420 1.035237
Cr3   Cr    Cr6+3 0.603040 0.289190 0.489390 0.966241
Cr4   Cr    Cr6+3 0.053960 0.052250 0.967380 1.153975
Cr5   Cr    Cr6+3 0.059890 0.373160 0.992710 1.100645
Cr6   Cr    Cr6+3 0.373370 0.061690 0.991710 1.135602
H1    H     H_    0.752532 0.574669 0.317573 0.158109
H2    H     H_    0.937569 0.083486 0.383663 0.140447
H3    H     H_    0.242930 0.676798 0.271530 0.180271
H4    H     H_    0.562579 0.894215 0.145153 0.221494
H5    H     H_    0.249225 0.695880 0.134847 0.209824
H6    H     H_    0.533778 0.942276 0.482568 0.238406
H7    H     H_    0.399623 0.097259 0.448603 0.262477
H8    H     H_    0.153252 0.692150 0.721557 0.247570
H9    H     H_    0.079680 0.589234 0.675460 0.262329
H10   H     H_    0.653785 0.335735 0.950240 0.338700
H11   H     H_    0.773350 0.700290 0.910696 0.369753
H12   H     H_    0.693023 0.973682 0.249203 0.163987
H13   H     H_    0.804215 0.705692 0.067612 0.366898
H14   H     H_    0.656545 0.994973 0.389145 0.137237
H15   H     H_    0.165932 0.533133 0.822264 0.196414
H16   H     H_    0.808933 0.927734 0.690396 0.146345
H17   H     H_    0.682293 0.156044 0.643837 0.191698
H18   H     H_    0.844201 0.066610 0.092091 0.243800
H19   H     H_    0.771641 0.552187 0.179529 0.164292
H20   H     H_    0.984917 0.856765 0.304587 0.156899
N1    N     N_3   0.443582 0.985215 0.441032 -0.604984
N2    N     N_3   0.172862 0.598715 0.683747 -0.571713
O1    O     O_R   0.749810 0.499790 0.438040 -0.522280
O2    O     O_R   0.411730 0.181020 0.091530 -0.474958
O3    O     O_R   0.365010 0.944360 0.063320 -0.522911
O4    O     O_R   0.477660 0.726260 0.439290 -0.479193
O5    O     O_R   0.159380 0.906670 0.876210 -0.476605
O6    O     O_R   0.930820 0.177420 0.886730 -0.465009
O7    O     O_R   0.910360 0.395420 0.895720 -0.508689
O8    O     O_R   0.186010 0.361730 0.919870 -0.506992
O9    O     O_R   0.400000 0.173010 0.914630 -0.456304
O10   O     O_R   0.354140 0.936940 0.899340 -0.472142
O11   O     O_3   0.162410 0.162370 0.983930 -0.314761
O12   O     O_R   0.298970 0.468800 0.557390 -0.452446
O13   O     O_R   0.260150 0.743000 0.412270 -0.537896
O14   O     O_R   0.297740 0.466550 0.394720 -0.491847
O15   O     O_R   0.488080 0.253500 0.386430 -0.531897
O16   O     O_R   0.722670 0.303800 0.421940 -0.506359
O17   O     O_R   0.751130 0.502220 0.613520 -0.457917
O18   O     O_R   0.478890 0.728510 0.601960 -0.476750
O19   O     O_R   0.261470 0.745430 0.587750 -0.508791
O20   O     O_2   0.635613 0.047186 0.994077 -0.177092
O21   O     O_2   0.836249 0.044066 0.950300 -0.223867
O22   O     O_3   0.618372 0.294730 0.983283 -0.563031
O23   O     O_R   0.489400 0.255930 0.561910 -0.557317
O24   O     O_2   0.808139 0.709093 0.755074 -0.313499
O25   O     O_2   0.943802 0.784292 0.863167 -0.254907
O26   O     O_3   0.709078 0.797512 0.892666 -0.466236
O27   O     O_2   0.018722 0.765600 0.061757 -0.246469
O28   O     O_2   0.025322 0.659555 0.180586 -0.336951
O29   O     O_3   0.783005 0.800498 0.097047 -0.534858
O30   O     O_R   0.723890 0.306050 0.584610 -0.555257
O31   O     O_3   0.500010 0.500010 0.500020 -0.283616
O32   O     O_R   0.171100 0.914680 0.053100 -0.453785
O33   O     O_R   0.941680 0.184840 0.050710 -0.474694
O34   O     O_R   0.922080 0.403420 0.072610 -0.515174
O35   O     O_R   0.196880 0.369150 0.083850 -0.455877
S1    S     S_3+6 0.676875 0.122510 0.945162 0.058875
S2    S     S_3+6 0.796113 0.815454 0.826417 0.046920
S3    S     S_3+6 0.942674 0.787254 0.132431 -0.012738

loop_
_geom_bond_atom_site_label_1
_geom_bond_atom_site_label_2
_ccdc_geom_bond_type
Cr5   O34   S    
C27   C29   T    
O25   S2    D    
C41   C42   T    
C19   C20   A    
C18   C26   A    
C40   O17   A    
Cr2   O19   S    
C24   H16   S    
C7    C8    A    
Cr1   O31   S    
C45   C46   A    
H7    N1    S    
O20   S1    D    
C29   C36   S    
C32   O34   A    
C38   O10   A    
Cr5   O8    S    
C33   C42   S    
H11   O26   S    
C37   O9    A    
C19   N2    S    
C9    H4    S    
C12   C43   A    
C8    H5    S    
Cr6   O11   S    
C33   O2    A    
C4    C41   S    
C36   O7    A    
C28   O18   A    
C16   O1    A    
C19   C26   A    
C15   C37   S    
C35   O32   A    
Cr3   O15   S    
Cr2   O14   S    
C22   S2    S    
C13   N1    S    
C36   O6    A    
C37   O8    A    
C33   O35   A    
Cr1   O18   S    
C7    C14   A    
C2    C16   S    
C9    C10   A    
Cr2   O12   S    
C4    O15   A    
C2    C34   A    
H10   O22   S    
C34   H1    S    
C21   C22   A    
C45   H18   S    
H8    N2    S    
Cr4   O5    S    
C18   C25   A    
C39   O12   A    
C4    O14   A    
C10   H12   S    
Cr3   O23   S    
C15   C20   A    
O22   S1    S    
C32   O33   A    
C46   S3    S    
O29   S3    S    
O27   S3    D    
C34   C44   A    
C24   C25   A    
C3    C8    A    
Cr6   O10   S    
O21   S1    D    
H13   O29   S    
C17   C21   A    
C43   C44   A    
C5    C9    A    
Cr3   O16   S    
C6    C14   A    
Cr2   O13   S    
C39   O23   A    
C47   C48   A    
C12   C23   A    
C3    C35   S    
C27   C40   S    
C17   C18   A    
Cr5   O11   S    
Cr4   O6    S    
C25   H17   S    
C16   O16   A    
C28   O19   A    
C38   O5    A    
Cr2   O31   S    
O28   S3    D    
C20   H15   S    
C21   S1    S    
C11   H14   S    
C40   O30   A    
Cr6   O3    S    
C48   H2    S    
C46   C47   A    
C1    O13   A    
C23   C48   A    
Cr4   O11   S    
O24   S2    D    
C47   H20   S    
C12   C45   A    
C3    C5    A    
Cr6   O9    S    
Cr1   O4    S    
C15   C17   A    
H6    N1    S    
C31   C38   S    
Cr5   O7    S    
C28   C30   S    
O26   S2    S    
C6    C13   A    
C11   C13   A    
C30   C31   T    
Cr5   O35   S    
C5    C6    A    
Cr4   O33   S    
Cr3   O30   S    
C35   O3    A    
C32   C43   S    
Cr1   O1    S    
C22   C24   A    
C44   H19   S    
C26   C39   S    
C10   C11   A    
Cr4   O32   S    
Cr3   O31   S    
H9    N2    S    
C2    C23   A    
C1    O4    A    
C1    C14   S    
Cr1   O17   S    
C7    H3    S    
Cr6   O2    S    
