data_mof_unit_36543.cif
_audit_creation_date              2012-12-10T18:59:17-0500
_audit_creation_method            fapswitch 2.2
_symmetry_space_group_name_H-M    P1
_symmetry_Int_Tables_number       1
_space_group_crystal_system       triclinic
_cell_length_a                    10.843756
_cell_length_b                    10.792744
_cell_length_c                    9.546748
_cell_angle_alpha                 90.233865
_cell_angle_beta                  88.779067
_cell_angle_gamma                 90.704504
_cell_volume                      1116.94672512

loop_
_atom_site_label
_atom_site_type_symbol
_atom_type_description
_atom_site_fract_x
_atom_site_fract_y
_atom_site_fract_z
_atom_type_partial_charge
C1    C     C_R   0.501142 0.262570 0.499911 0.828427
C2    C     C_R   0.562150 0.936024 0.388602 -0.219835
C3    C     C_R   0.507809 0.871137 0.501835 -0.063558
C4    C     C_R   0.261837 0.505744 0.502704 0.814624
C5    C     C_R   0.467486 0.936820 0.619890 0.047076
C6    C     C_3   0.346743 0.929574 0.698638 -0.517468
C7    C     C_3   0.348737 0.070809 0.700405 0.087659
C8    C     C_R   0.580245 0.574267 0.071849 0.181912
C9    C     C_R   0.433856 0.413318 0.075099 0.334576
C10   C     C_R   0.433231 0.414880 0.925781 -0.154278
C11   C     C_R   0.581273 0.573539 0.924795 0.225495
C12   C     C_R   0.057356 0.482555 0.635232 0.106839
C13   C     C_3   0.594324 0.711466 0.918904 0.021021
C14   C     C_3   0.592070 0.711616 0.078494 -0.507152
C15   C     C_R   0.500551 0.737672 0.500297 0.795608
C16   C     C_R   0.737100 0.489928 0.498996 0.777856
C17   C     C_R   0.104394 0.492464 0.772357 -0.203358
C18   C     C_R   0.036893 0.448256 0.887940 -0.253091
C19   C     C_R   0.924413 0.386830 0.870093 0.328897
C20   C     C_R   0.872540 0.386674 0.737199 -0.178872
C21   C     C_R   0.932659 0.447367 0.623012 0.029802
C22   C     C_3   0.135617 0.141944 0.695488 -0.681614
C23   C     C_R   0.126665 0.509858 0.510077 -0.104696
C24   C     C_3   0.241768 0.306876 0.136029 -0.706186
C25   C     C_3   0.738344 0.881254 0.864062 -0.708245
C26   C     C_3   0.827814 0.204914 0.977174 -0.731468
C27   C     C_R   0.064940 0.529161 0.384826 -0.226247
C28   C     C_R   0.938163 0.517557 0.380393 -0.214185
C29   C     C_R   0.870931 0.478293 0.498884 -0.096777
C30   C     C_R   0.468567 0.064352 0.619763 0.044246
C31   C     C_R   0.508974 0.129701 0.501317 -0.087058
C32   C     C_R   0.562093 0.065199 0.387845 -0.227970
Cu1   Cu    Cu3+1 0.499990 0.499980 0.640670 0.932607
Cu2   Cu    Cu3+1 0.500010 0.500020 0.359330 0.961105
H1    H     H_    0.355724 0.889557 0.804792 0.168264
H2    H     H_    0.114479 0.557372 0.290423 0.151762
H3    H     H_    0.240569 0.088771 0.520323 0.261744
H4    H     H_    0.069925 0.190876 0.628036 0.231102
H5    H     H_    0.150312 0.199078 0.790805 0.232822
H6    H     H_    0.094928 0.050674 0.725706 0.220211
H7    H     H_    0.359656 0.113008 0.806083 0.133677
H8    H     H_    0.415101 0.230378 0.127443 0.229407
H9    H     H_    0.200277 0.396834 0.164201 0.237358
H10   H     H_    0.204236 0.235768 0.209613 0.231422
H11   H     H_    0.216353 0.280055 0.027941 0.195874
H12   H     H_    0.680407 0.740789 0.126395 0.205504
H13   H     H_    0.378912 0.347231 0.869393 0.159303
H14   H     H_    0.730947 0.711897 0.761621 0.282297
H15   H     H_    0.833732 0.899982 0.824396 0.225552
H16   H     H_    0.730603 0.916735 0.973208 0.235665
H17   H     H_    0.672963 0.931370 0.797392 0.225164
H18   H     H_    0.514713 0.757951 0.871498 0.156183
H19   H     H_    0.894938 0.358768 0.083563 0.249855
H20   H     H_    0.778611 0.174592 0.074598 0.224181
H21   H     H_    0.912995 0.149486 0.963548 0.227238
H22   H     H_    0.765695 0.186919 0.888299 0.231009
H23   H     H_    0.508046 0.756040 0.123195 0.182394
H24   H     H_    0.784260 0.340986 0.724565 0.161068
H25   H     H_    0.188585 0.541587 0.795497 0.180930
H26   H     H_    0.073204 0.460849 0.991445 0.130633
H27   H     H_    0.892646 0.541373 0.284374 0.162582
H28   H     H_    0.600419 0.114098 0.297762 0.151333
H29   H     H_    0.601854 0.887502 0.299765 0.150157
H30   H     H_    0.272170 0.886984 0.635474 0.194952
N1    N     N_R   0.500790 0.500930 0.147930 -0.202925
N2    N     N_R   0.500790 0.500890 0.852020 -0.226366
N3    N     N_2   0.250995 0.125119 0.619646 -0.405075
N4    N     N_2   0.374099 0.314429 0.148080 -0.367297
N5    N     N_2   0.713109 0.749351 0.859415 -0.389895
N6    N     N_2   0.858922 0.335416 0.987674 -0.427128
O1    O     O_R   0.500000 0.319640 0.618810 -0.586960
O2    O     O_R   0.500010 0.319680 0.381230 -0.559067
O3    O     O_R   0.319640 0.499980 0.618820 -0.591258
O4    O     O_R   0.319650 0.500020 0.381230 -0.556765
O5    O     O_R   0.499990 0.680320 0.618770 -0.590811
O6    O     O_R   0.500000 0.680360 0.381190 -0.588308
O7    O     O_R   0.680350 0.499980 0.618770 -0.593737
O8    O     O_R   0.680360 0.500020 0.381180 -0.579743

loop_
_geom_bond_atom_site_label_1
_geom_bond_atom_site_label_2
_ccdc_geom_bond_type
C15   O5    A    
C19   C20   A    
H14   N5    S    
C26   H21   S    
C14   H12   S    
C12   C23   A    
C1    O1    A    
C24   H11   S    
C28   C29   A    
C18   C19   A    
C5    C6    S    
C22   H4    S    
C1    C31   S    
C6    H1    S    
C2    C32   A    
C16   O7    A    
C6    H30   S    
C25   H16   S    
Cu1   O5    S    
C12   C17   A    
C23   C27   A    
C9    C10   A    
C4    O4    A    
C11   N2    A    
C28   H27   S    
C15   O6    A    
C8    N1    A    
C7    C30   S    
C13   C14   S    
H8    N4    S    
H19   N6    S    
C26   H20   S    
Cu2   N1    S    
Cu1   N2    S    
C17   C18   A    
C25   H15   S    
C10   N2    A    
C1    O2    A    
C4    C23   S    
C24   N4    S    
C16   C29   S    
C21   C29   A    
C12   C21   A    
C25   H17   S    
C13   H18   S    
C31   C32   A    
C22   H6    S    
Cu1   Cu2   S    
C4    O3    A    
C17   H25   S    
Cu1   O3    S    
Cu2   O4    S    
C24   H10   S    
C25   N5    S    
C20   H24   S    
Cu2   O2    S    
C27   C28   A    
C3    C15   S    
C2    H29   S    
C5    C30   A    
C18   H26   S    
C14   H23   S    
C8    C14   S    
C3    C5    A    
C26   H22   S    
C6    C7    S    
C27   H2    S    
C2    C3    A    
C9    N4    S    
C32   H28   S    
Cu2   O8    S    
C11   C13   S    
Cu1   O7    S    
C30   C31   A    
C13   N5    S    
C8    C11   A    
C26   N6    S    
C22   H5    S    
H3    N3    S    
C16   O8    A    
C7    H7    S    
C9    N1    A    
C22   N3    S    
Cu1   O1    S    
C7    N3    S    
C20   C21   A    
C10   H13   S    
C24   H9    S    
C19   N6    S    
Cu2   O6    S    
