data_mof_unit_24826.cif
_audit_creation_date              2012-12-10T18:53:04-0500
_audit_creation_method            fapswitch 2.2
_symmetry_space_group_name_H-M    P1
_symmetry_Int_Tables_number       1
_space_group_crystal_system       triclinic
_cell_length_a                    9.978741
_cell_length_b                    10.640817
_cell_length_c                    16.730908
_cell_angle_alpha                 91.667562
_cell_angle_beta                  84.041987
_cell_angle_gamma                 90.175346
_cell_volume                      1766.17589084

loop_
_atom_site_label
_atom_site_type_symbol
_atom_type_description
_atom_site_fract_x
_atom_site_fract_y
_atom_site_fract_z
_atom_type_partial_charge
C1    C     C_R   0.500403 0.739342 0.499250 0.898995
C2    C     C_R   0.061350 0.564865 0.558273 0.140696
C3    C     C_R   0.080646 0.434554 0.441861 0.144029
C4    C     C_R   0.919342 0.565469 0.558102 0.145650
C5    C     C_R   0.479894 0.493883 0.652505 0.874997
C6    C     C_R   0.520232 0.501483 0.347452 0.882706
C7    C     C_R   0.463583 0.461928 0.736648 -0.130825
C8    C     C_R   0.537115 0.504117 0.260909 -0.131430
C9    C     C_R   0.542119 0.366237 0.765312 -0.033577
C10   C     C_R   0.474459 0.596975 0.219739 -0.028781
C11   C     C_R   0.526153 0.339631 0.846942 0.071672
C12   C     C_R   0.499609 0.260667 0.500715 0.892470
C13   C     C_R   0.487040 0.591817 0.135831 0.080019
C14   C     C_R   0.431026 0.408286 0.899048 0.072187
C15   C     C_R   0.560888 0.492687 0.094395 0.071423
C16   C     C_R   0.342423 0.492533 0.868318 0.038987
C17   C     C_R   0.630247 0.405240 0.136052 0.044227
C18   C     C_R   0.360380 0.519895 0.787325 -0.270462
C19   C     C_R   0.618286 0.411946 0.219332 -0.279326
C20   C     C_2   0.444737 0.413415 0.984736 -0.231763
C21   C     C_2   0.552135 0.472558 0.009052 -0.246770
C22   C     C_1   0.638247 0.293800 0.711830 0.222207
C23   C     C_R   0.596592 0.934753 0.447142 0.111384
C24   C     C_1   0.398383 0.697898 0.263008 0.208677
C25   C     C_1   0.237304 0.557124 0.919408 0.138287
C26   C     C_1   0.709209 0.304824 0.094795 0.158881
C27   C     C_R   0.403556 0.065314 0.552931 0.108139
C28   C     C_R   0.595310 0.064241 0.449065 -0.278039
C29   C     C_R   0.404770 0.935818 0.550968 -0.281909
C30   C     C_R   0.499133 0.128166 0.501340 -0.025935
C31   C     C_R   0.500921 0.871877 0.498669 -0.027233
C32   C     C_R   0.938606 0.435195 0.441657 0.142172
H1    H     H_    0.667930 0.342263 0.252099 0.148882
H2    H     H_    0.673379 0.286171 0.914196 0.211110
H3    H     H_    0.788541 0.894805 0.403257 0.197313
H4    H     H_    0.677373 0.894163 0.333531 0.185982
H5    H     H_    0.211715 0.105284 0.597074 0.198467
H6    H     H_    0.323223 0.106055 0.666620 0.183305
H7    H     H_    0.851659 0.436955 0.338082 0.212874
H8    H     H_    0.803005 0.314532 0.398775 0.219096
H9    H     H_    0.147318 0.561939 0.661783 0.207595
H10   H     H_    0.197472 0.684465 0.601559 0.220679
H11   H     H_    0.198296 0.429020 0.335703 0.213360
H12   H     H_    0.296762 0.589711 0.764199 0.151735
H13   H     H_    0.231116 0.312781 0.400369 0.233028
H14   H     H_    0.801799 0.570729 0.664278 0.211642
H15   H     H_    0.768791 0.687063 0.599712 0.232680
H16   H     H_    0.632038 0.508094 0.966463 0.171175
H17   H     H_    0.361868 0.383897 0.027454 0.174099
H18   H     H_    0.667384 0.114694 0.408878 0.142454
H19   H     H_    0.332671 0.885370 0.591141 0.143608
H20   H     H_    0.349863 0.642827 0.061786 0.213109
H21   H     H_    0.495345 0.726372 0.052202 0.195500
H22   H     H_    0.545222 0.181741 0.909882 0.201096
N1    N     N_R   0.142790 0.500030 0.500020 -0.144131
N2    N     N_3   0.308766 0.132793 0.608479 -0.438823
N3    N     N_3   0.883360 0.370391 0.376604 -0.443409
N4    N     N_3   0.116477 0.629178 0.623484 -0.444292
N5    N     N_3   0.156800 0.365841 0.377947 -0.434971
N6    N     N_3   0.843183 0.634027 0.622077 -0.436399
N7    N     N_R   0.857210 0.499970 0.499980 -0.143348
N8    N     N_1   0.715009 0.235846 0.669199 -0.188373
N9    N     N_1   0.337761 0.778491 0.297695 -0.192693
N10   N     N_1   0.152625 0.608700 0.960049 -0.206706
N11   N     N_1   0.772547 0.224325 0.061935 -0.208079
N12   N     N_3   0.422896 0.686185 0.093435 -0.447804
N13   N     N_3   0.608144 0.244118 0.876483 -0.450101
N14   N     N_3   0.691562 0.867318 0.391689 -0.438835
O1    O     O_R   0.385380 0.683250 0.500010 -0.628923
O2    O     O_R   0.614620 0.316750 0.499990 -0.628742
O3    O     O_R   0.614710 0.683220 0.500000 -0.613051
O4    O     O_R   0.385290 0.316780 0.500000 -0.613247
O5    O     O_R   0.371780 0.500040 0.615800 -0.625465
O6    O     O_R   0.628220 0.499960 0.384200 -0.626237
O7    O     O_R   0.601110 0.500010 0.615800 -0.633203
O8    O     O_R   0.398890 0.499990 0.384200 -0.631084
Zn1   Zn    Zn3+2 0.346870 0.500020 0.500000 0.933770
Zn2   Zn    Zn3+2 0.653130 0.499980 0.500000 0.933603

loop_
_geom_bond_atom_site_label_1
_geom_bond_atom_site_label_2
_ccdc_geom_bond_type
O2    Zn2   S    
O1    Zn1   S    
H10   N4    S    
C20   H17   S    
C17   C26   S    
C32   N7    A    
C2    N1    A    
N1    Zn1   S    
C11   C14   A    
C9    C22   S    
C27   C29   A    
H7    N3    S    
C1    C31   S    
C15   C17   A    
H15   N6    S    
H5    N2    S    
C28   H18   S    
H11   N5    S    
C21   H16   S    
H14   N6    S    
C12   O4    A    
C27   C30   A    
C3    N1    A    
C32   N3    S    
C11   N13   S    
C6    O6    A    
C13   N12   S    
C8    C19   A    
C14   C20   S    
O8    Zn1   S    
C19   H1    S    
C5    C7    S    
C27   N2    S    
C6    C8    S    
H22   N13   S    
C10   C24   S    
C4    N7    A    
C1    O1    A    
C25   N10   T    
C23   C31   A    
C23   N14   S    
C5    O7    A    
C2    C4    A    
O4    Zn1   S    
C18   H12   S    
C22   N8    T    
N7    Zn2   S    
C7    C18   A    
C4    N6    S    
H4    N14   S    
C1    O3    A    
C23   C28   A    
H21   N12   S    
C9    C11   A    
C8    C10   A    
C24   N9    T    
C13   C15   A    
C14   C16   A    
H20   N12   S    
C29   H19   S    
C16   C25   S    
C7    C9    A    
C12   O2    A    
H13   N5    S    
H8    N3    S    
C12   C30   S    
C26   N11   T    
C10   C13   A    
H2    N13   S    
H9    N4    S    
C2    N4    S    
C6    O8    A    
C28   C30   A    
C29   C31   A    
H3    N14   S    
C17   C19   A    
C5    O5    A    
C3    C32   A    
O7    Zn2   S    
C15   C21   S    
H6    N2    S    
C20   C21   D    
C16   C18   A    
O6    Zn2   S    
O5    Zn1   S    
O3    Zn2   S    
C3    N5    S    
