data_mof_unit_41886.cif
_audit_creation_date              2012-10-26T21:24:46-0400
_audit_creation_method            fapswitch 2.2
_symmetry_space_group_name_H-M    P1
_symmetry_Int_Tables_number       1
_space_group_crystal_system       triclinic
_cell_length_a                    9.594442
_cell_length_b                    10.863546
_cell_length_c                    15.378809
_cell_angle_alpha                 88.739906
_cell_angle_beta                  74.934604
_cell_angle_gamma                 90.530234
_cell_volume                      1547.27470927

loop_
_atom_site_label
_atom_site_type_symbol
_atom_type_description
_atom_site_fract_x
_atom_site_fract_y
_atom_site_fract_z
_atom_type_partial_charge
C1    C     C_R   0.999153 0.262942 0.500523 0.547801
C2    C     C_R   0.228450 0.536565 0.040240 0.053149
C3    C     C_R   0.328425 0.514218 0.091927 0.031588
C4    C     C_R   0.918366 0.494520 0.672404 0.565359
C5    C     C_R   0.079921 0.539822 0.082412 -0.152325
C6    C     C_R   0.029440 0.522183 0.175607 -0.144794
C7    C     C_R   0.275217 0.504636 0.185990 -0.138052
C8    C     C_R   0.111684 0.063433 0.514536 -0.007179
C9    C     C_R   0.997387 0.130467 0.499996 0.008270
C10   C     C_R   0.880356 0.064159 0.483359 -0.176052
C11   C     C_R   0.881341 0.935074 0.483202 -0.171506
C12   C     C_R   0.675198 0.501956 0.909047 0.026262
C13   C     C_R   0.000584 0.870250 0.497846 0.006922
C14   C     C_R   0.114798 0.939548 0.511946 0.065935
C15   C     C_3   0.257473 0.933919 0.533731 0.149870
C16   C     C_R   0.000647 0.737282 0.499470 0.557666
C17   C     C_3   0.251521 0.075248 0.538610 -0.228406
C18   C     C_R   0.605067 0.539811 0.425549 0.162639
C19   C     C_R   0.543169 0.447403 0.569661 0.348616
C20   C     C_R   0.395360 0.451304 0.569947 0.003090
C21   C     C_R   0.458249 0.535939 0.424615 0.094823
C22   C     C_3   0.468622 0.657262 0.377187 -0.242542
C23   C     C_R   0.767000 0.452181 0.959079 0.021500
C24   C     C_3   0.623878 0.666647 0.383826 0.129859
C25   C     C_R   0.081359 0.501416 0.327537 0.543192
C26   C     C_R   0.871636 0.482185 0.771624 0.012883
C27   C     C_R   0.127463 0.507962 0.228241 -0.005386
C28   C     C_R   0.903461 0.410067 0.915256 -0.116697
C29   C     C_R   0.950869 0.416185 0.821945 0.066200
C30   C     C_R   0.734681 0.525746 0.816179 -0.134131
C31   C     C_3   0.382167 0.840118 0.625663 0.001611
C32   C     C_3   0.368551 0.780451 0.717948 -0.350543
C33   C     C_3   0.609378 0.272634 0.634904 0.015854
C34   C     C_R   0.526682 0.520356 0.952983 0.036030
C35   C     C_3   0.502344 0.195061 0.705431 -0.394767
C36   C     C_3   0.742189 0.792346 0.264854 -0.020786
C37   C     C_3   0.844167 0.796209 0.170817 -0.369930
C38   C     C_R   0.477639 0.501098 0.048213 0.031916
C39   C     C_R   0.577860 0.462110 0.096038 -0.130328
C40   C     C_R   0.718712 0.436194 0.051862 -0.138206
C41   C     C_R   0.423810 0.547393 0.904210 -0.132165
C42   C     C_R   0.277445 0.553942 0.947140 -0.126673
Cu1   Cu    Cu3+1 0.140670 0.499980 0.500000 0.960485
Cu2   Cu    Cu3+1 0.859330 0.500020 0.500000 0.989869
H1    H     H_    0.789178 0.399258 0.090569 0.109525
H2    H     H_    0.347411 0.497147 0.228541 0.120436
H3    H     H_    0.396200 0.725023 0.417289 0.107836
H4    H     H_    0.642696 0.736358 0.431728 0.085614
H5    H     H_    0.914578 0.523308 0.206451 0.183593
H6    H     H_    0.201808 0.571235 0.906891 0.125398
H7    H     H_    0.967949 0.361971 0.953184 0.139761
H8    H     H_    0.675085 0.575743 0.776658 0.134488
H9    H     H_    0.549969 0.442206 0.167327 0.111120
H10   H     H_    0.452125 0.557437 0.831847 0.128840
H11   H     H_    0.456048 0.921747 0.617726 0.113962
H12   H     H_    0.002877 0.556502 0.043252 0.112325
H13   H     H_    0.429596 0.771389 0.573972 0.121188
H14   H     H_    0.297476 0.697214 0.726897 0.169452
H15   H     H_    0.476839 0.752809 0.724101 0.094255
H16   H     H_    0.322092 0.846529 0.771565 0.164650
H17   H     H_    0.716966 0.258605 0.647454 0.185348
H18   H     H_    0.612560 0.236709 0.566928 0.106203
H19   H     H_    0.398788 0.189239 0.686925 0.163662
H20   H     H_    0.543755 0.100252 0.707892 0.103002
H21   H     H_    0.485471 0.235853 0.772931 0.195612
H22   H     H_    0.789242 0.851547 0.308523 0.127625
H23   H     H_    0.788670 0.111129 0.470266 0.116890
H24   H     H_    0.637048 0.830795 0.260184 0.122687
H25   H     H_    0.805915 0.731185 0.126913 0.162913
H26   H     H_    0.848486 0.890720 0.141133 0.105654
H27   H     H_    0.954514 0.771169 0.174214 0.160339
H28   H     H_    0.788980 0.886943 0.471676 0.114248
H29   H     H_    0.344462 0.901747 0.476436 0.060176
H30   H     H_    0.237139 0.110389 0.607493 0.182785
H31   H     H_    0.335751 0.123484 0.484933 0.093121
H32   H     H_    0.315684 0.416314 0.627576 0.172269
H33   H     H_    0.458301 0.648380 0.307268 0.138972
I1    I     I_    0.116008 0.293274 0.766403 -0.484181
N1    N     N_R   0.648210 0.500930 0.499430 -0.256868
N2    N     N_R   0.352300 0.500890 0.499430 -0.273502
O1    O     O_R   0.118810 0.319640 0.500000 -0.490949
O2    O     O_3   0.576435 0.399138 0.645488 -0.547257
O3    O     O_3   0.724904 0.669583 0.298712 -0.558016
O4    O     O_R   0.881230 0.319680 0.499990 -0.528202
O5    O     O_R   0.055580 0.499970 0.629840 -0.478763
O6    O     O_R   0.818000 0.500010 0.629830 -0.459479
O7    O     O_R   0.118770 0.680320 0.500010 -0.484142
O8    O     O_R   0.881190 0.680360 0.500000 -0.512552
O9    O     O_R   0.182000 0.499990 0.370170 -0.514314
O10   O     O_R   0.944420 0.500030 0.370160 -0.473156
O11   O     O_3   0.244292 0.875280 0.618483 -0.523493

loop_
_geom_bond_atom_site_label_1
_geom_bond_atom_site_label_2
_ccdc_geom_bond_type
C37   H25   S    
C18   C21   A    
C41   C42   A    
C5    H12   S    
C19   C20   A    
C32   H14   S    
C10   H23   S    
C1    O4    A    
C12   C23   A    
C25   O10   A    
Cu1   O9    S    
C18   C24   S    
C5    C6    A    
C21   C22   S    
C28   C29   A    
C24   O3    S    
C33   H18   S    
C3    C7    A    
C38   C39   A    
C28   H7    S    
C36   H22   S    
C4    O6    A    
C35   H21   S    
C36   O3    S    
C1    O1    A    
C23   C40   A    
C7    C27   A    
C20   H32   S    
C29   I1    S    
C31   C32   S    
C3    C38   A    
C8    C9    A    
C16   O7    A    
C35   H20   S    
C19   O2    S    
C9    C10   A    
C22   H3    S    
C37   H26   S    
C34   C41   A    
Cu2   O6    S    
C40   H1    S    
C20   N2    A    
C24   H4    S    
C7    H2    S    
C1    C9    S    
C39   C40   A    
C11   H28   S    
C18   N1    A    
C4    O5    A    
Cu1   N2    S    
Cu1   O5    S    
Cu1   Cu2   S    
C6    C27   A    
C23   C28   A    
C19   N1    A    
C42   H6    S    
C15   H29   S    
C26   C30   A    
C31   O11   S    
C37   H27   S    
C17   H30   S    
Cu1   O1    S    
C22   C24   S    
C2    C5    A    
C32   H16   S    
C12   C34   A    
Cu2   O10   S    
C16   O8    A    
C33   O2    S    
C15   C17   S    
C30   H8    S    
C36   C37   S    
C8    C14   A    
C12   C30   A    
C34   C38   A    
Cu2   N1    S    
C22   H33   S    
Cu2   O4    S    
C4    C26   S    
C36   H24   S    
C25   C27   S    
C25   O9    A    
C8    C17   S    
Cu1   O7    S    
C31   H13   S    
C2    C3    A    
Cu2   O8    S    
C11   C13   A    
C39   H9    S    
C2    C42   A    
C21   N2    A    
C33   C35   S    
C6    H5    S    
C41   H10   S    
C10   C11   A    
C15   O11   S    
C26   C29   A    
C33   H17   S    
C13   C16   S    
C17   H31   S    
C14   C15   S    
C35   H19   S    
C32   H15   S    
C31   H11   S    
C13   C14   A    
