data_mof_unit_26731.cif
_audit_creation_date              2012-12-10T18:46:17-0500
_audit_creation_method            fapswitch 2.2
_symmetry_space_group_name_H-M    P1
_symmetry_Int_Tables_number       1
_space_group_crystal_system       triclinic
_cell_length_a                    9.848851
_cell_length_b                    10.688575
_cell_length_c                    13.110311
_cell_angle_alpha                 89.995878
_cell_angle_beta                  71.607207
_cell_angle_gamma                 89.905428
_cell_volume                      1309.6202026

loop_
_atom_site_label
_atom_site_type_symbol
_atom_type_description
_atom_site_fract_x
_atom_site_fract_y
_atom_site_fract_z
_atom_type_partial_charge
C1    C     C_R   0.498772 0.740023 0.502456 0.907906
C2    C     C_R   0.449383 0.405518 0.975072 0.093999
C3    C     C_R   0.490301 0.407030 0.862182 0.082592
C4    C     C_R   0.556779 0.430164 0.023780 0.089820
C5    C     C_R   0.700281 0.454402 0.958721 0.078431
C6    C     C_R   0.740569 0.420161 0.850507 -0.281849
C7    C     C_R   0.636585 0.389912 0.804322 -0.170387
C8    C     C_R   0.523559 0.440874 0.134363 -0.249088
C9    C     C_R   0.759227 0.522177 0.116167 -0.192209
C10   C     C_R   0.384512 0.429921 0.811699 -0.142401
C11   C     C_R   0.625133 0.935396 0.455692 -0.235264
C12   C     C_R   0.424257 0.478770 0.701123 0.884733
C13   C     C_R   0.626350 0.063559 0.454532 -0.189205
C14   C     C_R   0.499198 0.128018 0.502740 -0.025755
C15   C     C_R   0.371285 0.066404 0.554270 -0.242498
C16   C     C_R   0.369344 0.937555 0.556991 0.108359
C17   C     C_R   0.496996 0.872692 0.505683 -0.025556
C18   C     C_R   0.958907 0.430479 0.426830 -0.076306
C19   C     C_R   0.102729 0.430492 0.426855 -0.061946
C20   C     C_R   0.040976 0.569224 0.573407 -0.089748
C21   C     C_R   0.897180 0.569247 0.573348 -0.081888
C22   C     C_R   0.499985 0.260103 0.500227 0.854911
C23   C     C_R   0.577874 0.498752 0.296243 0.886246
C24   C     C_R   0.798510 0.510141 0.004267 -0.009298
C25   C     C_R   0.623125 0.486017 0.180326 -0.105345
C26   C     C_R   0.240427 0.411072 0.869993 -0.149142
C27   C     C_R   0.200434 0.385605 0.979510 -0.078035
C28   C     C_R   0.302291 0.388432 0.032987 -0.186281
H1    H     H_    0.832438 0.563333 0.153393 0.194325
H2    H     H_    0.725364 0.112158 0.414441 0.153843
H3    H     H_    0.273896 0.118017 0.593599 0.150374
H4    H     H_    0.929135 0.374893 0.368301 0.123131
H5    H     H_    0.181768 0.374815 0.368347 0.119963
H6    H     H_    0.070649 0.624559 0.632115 0.139165
H7    H     H_    0.818068 0.624639 0.632057 0.143226
H8    H     H_    0.851497 0.416125 0.800930 0.134144
H9    H     H_    0.419568 0.414985 0.186909 0.153091
H10   H     H_    0.158898 0.417342 0.830982 0.140912
H11   H     H_    0.261959 0.377316 0.118943 0.119710
H12   H     H_    0.088784 0.370882 0.024391 0.146288
H13   H     H_    0.672620 0.356830 0.722226 0.184500
H14   H     H_    0.723464 0.885352 0.415980 0.166856
N1    N     N_R   0.142790 0.500030 0.500030 -0.077161
N2    N     N_R   0.857180 0.499940 0.500010 -0.081500
O1    O     O_R   0.385370 0.683250 0.500010 -0.586186
O2    O     O_R   0.614700 0.683220 0.500010 -0.623317
O3    O     O_R   0.328400 0.499990 0.653620 -0.616359
O4    O     O_R   0.557730 0.499960 0.653620 -0.626136
O5    O     O_R   0.385300 0.316780 0.499990 -0.628725
O6    O     O_R   0.614630 0.316750 0.499990 -0.635150
O7    O     O_R   0.442270 0.500040 0.346380 -0.617151
O8    O     O_R   0.671600 0.500010 0.346380 -0.620614
Zn1   Zn    Zn3+2 0.346870 0.500020 0.500000 0.951660
Zn2   Zn    Zn3+2 0.653130 0.499980 0.500000 0.936736
N3    N     N_3   0.239681 0.873331 0.613581 -0.444354
H15   H     H_    0.206878 0.903610 0.693517 0.186372
H16   H     H_    0.160868 0.899346 0.579725 0.184391
C29   C     C_2   0.933063 0.570253 0.936862 0.347301
H17   H     H_    0.961157 0.572436 0.850091 0.054653
O9    O     O_2   0.012699 0.623057 0.977962 -0.568780

loop_
_geom_bond_atom_site_label_1
_geom_bond_atom_site_label_2
_ccdc_geom_bond_type
C9    C25   A    
C2    C4    A    
N3    H15   S    
C6    H8    S    
C9    C24   A    
C15   H3    S    
C6    C7    A    
C21   H7    S    
C18   N2    A    
C21   N2    A    
C4    C8    A    
C13   H2    S    
C1    C17   S    
O2    Zn2   S    
C9    H1    S    
C27   H12   S    
C12   O4    A    
C20   H6    S    
C10   C26   A    
C23   C25   S    
C2    C3    A    
C23   O8    A    
C16   N3    S    
O1    Zn1   S    
C3    C10   A    
C13   C14   A    
O4    Zn2   S    
C8    C25   A    
C11   C13   A    
C1    O1    A    
C26   C27   A    
O6    Zn2   S    
C5    C24   A    
C10   C12   S    
C12   O3    A    
O5    Zn1   S    
O3    Zn1   S    
C19   N1    A    
C3    C7    A    
C7    H13   S    
C14   C22   S    
C1    O2    A    
C18   H4    S    
C8    H9    S    
C29   O9    D    
C15   C16   A    
N2    Zn2   S    
C22   O6    A    
C4    C5    A    
C20   N1    A    
C20   C21   A    
C11   H14   S    
C24   C29   S    
C18   C19   A    
C19   H5    S    
C22   O5    A    
C27   C28   A    
C5    C6    A    
C14   C15   A    
C11   C17   A    
C2    C28   A    
C28   H11   S    
C29   H17   S    
N3    H16   S    
C23   O7    A    
N1    Zn1   S    
C26   H10   S    
O8    Zn2   S    
C16   C17   A    
O7    Zn1   S    
