data_mof_unit_28491.cif
_audit_creation_date              2012-12-10T17:45:24-0500
_audit_creation_method            fapswitch 2.2
_symmetry_space_group_name_H-M    P1
_symmetry_Int_Tables_number       1
_space_group_crystal_system       triclinic
_cell_length_a                    15.020901
_cell_length_b                    13.701286
_cell_length_c                    23.504506
_cell_angle_alpha                 90.00004
_cell_angle_beta                  89.265872
_cell_angle_gamma                 90.000028
_cell_volume                      4836.96331048

loop_
_atom_site_label
_atom_site_type_symbol
_atom_type_description
_atom_site_fract_x
_atom_site_fract_y
_atom_site_fract_z
_atom_type_partial_charge
C1    C     C_R   0.328857 0.500030 0.501193 0.870668
C2    C     C_R   0.671143 0.500030 0.498807 0.870667
C3    C     C_R   0.472685 0.414699 0.239437 -0.102657
C4    C     C_R   0.527315 0.414699 0.760562 -0.102656
C5    C     C_R   0.472643 0.415256 0.298737 -0.248956
C6    C     C_R   0.527357 0.415256 0.701263 -0.248957
C7    C     C_R   0.496687 0.500157 0.328383 -0.055311
C8    C     C_R   0.503314 0.500157 0.671617 -0.055312
C9    C     C_R   0.519860 0.584674 0.297771 -0.193070
C10   C     C_R   0.480143 0.584675 0.702229 -0.193071
C11   C     C_R   0.520120 0.583826 0.238459 -0.107150
C12   C     C_R   0.479883 0.583826 0.761541 -0.107148
C13   C     C_R   0.496704 0.498837 0.209159 0.340877
C14   C     C_R   0.503298 0.498837 0.790841 0.340874
C15   C     C_R   0.814900 0.494690 0.446141 0.400092
C16   C     C_R   0.185100 0.494689 0.553859 0.400090
C17   C     C_R   0.767539 0.500479 0.497931 -0.162535
C18   C     C_R   0.232461 0.500479 0.502069 -0.162534
C19   C     C_R   0.811474 0.508113 0.549400 -0.284821
C20   C     C_R   0.188526 0.508113 0.450600 -0.284820
C21   C     C_R   0.903998 0.508200 0.550463 0.087254
C22   C     C_R   0.096002 0.508200 0.449537 0.087254
C23   C     C_R   0.498884 0.500040 0.390890 0.808666
C24   C     C_R   0.501116 0.500040 0.609110 0.808668
C25   C     C_R   0.953257 0.505049 0.499055 -0.042373
C26   C     C_R   0.046743 0.505049 0.500945 -0.042372
C27   C     C_R   0.908920 0.502875 0.445930 -0.063767
C28   C     C_R   0.091080 0.502874 0.554070 -0.063768
C29   C     C_R   0.947342 0.513608 0.602518 -0.301136
C30   C     C_R   0.052658 0.513609 0.397483 -0.301136
C31   C     C_R   0.040662 0.508795 0.605435 0.454115
C32   C     C_R   0.959337 0.508797 0.394565 0.454114
C33   C     C_R   0.443223 0.793293 0.535637 0.017662
C34   C     C_R   0.556419 0.206593 0.464150 0.009706
C35   C     C_R   0.556777 0.793293 0.464363 0.017663
C36   C     C_R   0.443581 0.206593 0.535850 0.009705
C37   C     C_R   0.558170 0.896316 0.463550 -0.007808
C38   C     C_R   0.441933 0.103523 0.536504 -0.004675
C39   C     C_R   0.441830 0.896316 0.536450 -0.007808
C40   C     C_R   0.558067 0.103523 0.463496 -0.004675
C41   C     C_R   0.500000 0.948110 0.500000 0.088450
C42   C     C_R   0.500000 0.051745 0.500000 0.088851
C43   C     C_R   0.616154 0.948566 0.427363 -0.190777
C44   C     C_R   0.383856 0.051156 0.572610 -0.197800
C45   C     C_R   0.383846 0.948566 0.572636 -0.190777
C46   C     C_R   0.616144 0.051156 0.427390 -0.197799
C47   C     C_R   0.581190 0.497311 0.880108 0.572598
C48   C     C_R   0.418812 0.497319 0.119892 0.572598
C49   C     C_R   0.422091 0.497621 0.880262 0.573092
C50   C     C_R   0.577911 0.497613 0.119738 0.573092
C51   C     C_R   0.419167 0.497237 0.940137 -0.127109
C52   C     C_R   0.580835 0.497229 0.059863 -0.127109
C53   C     C_R   0.500234 0.497029 0.969938 -0.096230
C54   C     C_R   0.499768 0.497029 0.030062 -0.096230
C55   C     C_R   0.581854 0.496937 0.939745 -0.074666
C56   C     C_R   0.418147 0.496944 0.060254 -0.074667
C57   C     C_R   0.338046 0.497026 0.971008 0.641422
C58   C     C_R   0.661956 0.497011 0.028992 0.641423
C59   C     C_R   0.337900 0.496840 0.030332 -0.232429
C60   C     C_R   0.662101 0.496824 0.969668 -0.232429
Cu1   Cu    Cu3+1 0.500000 0.597420 0.500000 0.965887
Cu2   Cu    Cu3+1 0.500000 0.402580 0.500000 0.939708
H1    H     H_    0.398965 0.752389 0.563449 0.136073
H2    H     H_    0.600101 0.247379 0.435991 0.121859
H3    H     H_    0.601035 0.752389 0.436551 0.136072
H4    H     H_    0.399899 0.247379 0.564009 0.121859
H5    H     H_    0.661583 0.910123 0.399072 0.146248
H6    H     H_    0.338216 0.089387 0.600715 0.132875
H7    H     H_    0.338417 0.910123 0.600927 0.146248
H8    H     H_    0.661784 0.089387 0.399285 0.132875
H9    H     H_    0.274435 0.496763 0.052748 0.210692
H10   H     H_    0.725567 0.496741 0.947252 0.210692
H11   H     H_    0.454646 0.348779 0.216941 0.141707
H12   H     H_    0.545352 0.348778 0.783059 0.141709
H13   H     H_    0.454297 0.349253 0.321371 0.164198
H14   H     H_    0.545701 0.349253 0.678628 0.164199
H15   H     H_    0.538919 0.650918 0.319616 0.157961
H16   H     H_    0.461086 0.650920 0.680384 0.157962
H17   H     H_    0.538652 0.649088 0.215181 0.142808
H18   H     H_    0.461353 0.649089 0.784819 0.142809
H19   H     H_    0.773112 0.512327 0.588783 0.151124
H20   H     H_    0.226888 0.512328 0.411217 0.151124
H21   H     H_    0.907926 0.522029 0.641064 0.151733
H22   H     H_    0.092073 0.522031 0.358937 0.151734
N1    N     N_R   0.502187 0.497844 0.851807 -0.478811
N2    N     N_R   0.497815 0.497844 0.148193 -0.478811
N3    N     N_R   0.500000 0.743810 0.500000 -0.187858
N4    N     N_R   0.500000 0.256190 0.500000 -0.182503
O1    O     O_R   0.370260 0.582280 0.500010 -0.572777
O2    O     O_R   0.629740 0.417720 0.499990 -0.593673
O3    O     O_R   0.629740 0.582280 0.499990 -0.572777
O4    O     O_R   0.370260 0.417720 0.500010 -0.593674
O5    O     O_R   0.499980 0.582290 0.417880 -0.582325
O6    O     O_R   0.500020 0.417710 0.582120 -0.592020
O7    O     O_R   0.500020 0.582290 0.582120 -0.582325
O8    O     O_R   0.499980 0.417710 0.417880 -0.592020
O9    O     O_2   0.658811 0.497852 0.850539 -0.541767
O10   O     O_2   0.341191 0.497867 0.149461 -0.541766
O11   O     O_2   0.345860 0.497216 0.850517 -0.464907
O12   O     O_2   0.654142 0.497201 0.149483 -0.464907
F1    F     F_    0.258405 0.497104 0.944329 -0.612395
F2    F     F_    0.741596 0.497081 0.055671 -0.612395
O13   O     O_3   0.083953 0.522895 0.656857 -0.560854
C61   C     C_3   0.048598 0.464305 0.701516 0.041982
H23   H     H_    0.104510 0.423091 0.720422 0.175437
H24   H     H_    0.999795 0.408018 0.687615 0.112065
C62   C     C_3   0.008170 0.529605 0.747941 -0.335023
H25   H     H_    0.060609 0.578704 0.764687 0.249299
H26   H     H_    0.954713 0.575768 0.729947 0.217042
C63   C     C_3   0.969452 0.469182 0.796857 -0.823619
H27   H     H_    0.915403 0.421110 0.781305 0.253567
H28   H     H_    0.941361 0.518588 0.829954 0.273474
H29   H     H_    0.022193 0.423711 0.816313 0.268078
O14   O     O_3   0.916047 0.522899 0.343143 -0.560854
C64   C     C_3   0.951401 0.464308 0.298484 0.041984
H30   H     H_    0.895488 0.423095 0.279578 0.175440
H31   H     H_    0.000204 0.408021 0.312384 0.112064
C65   C     C_3   0.991829 0.529609 0.252059 -0.335026
H32   H     H_    0.939391 0.578709 0.235314 0.249298
H33   H     H_    0.045287 0.575770 0.270053 0.217042
C66   C     C_3   0.030545 0.469185 0.203142 -0.823620
H34   H     H_    0.084593 0.421112 0.218694 0.253567
H35   H     H_    0.058636 0.518591 0.170046 0.273474
H36   H     H_    0.977803 0.423716 0.183686 0.268081
O15   O     O_3   0.768065 0.483325 0.396259 -0.577163
C67   C     C_3   0.767386 0.383119 0.381831 0.057369
H37   H     H_    0.735945 0.338855 0.416368 0.121999
H38   H     H_    0.836321 0.355632 0.374430 0.139983
C68   C     C_3   0.713775 0.369558 0.327618 -0.299402
H39   H     H_    0.642461 0.380730 0.337919 0.218714
H40   H     H_    0.734296 0.424635 0.295309 0.259278
C69   C     C_3   0.725918 0.267759 0.302539 -0.922129
H41   H     H_    0.796683 0.255551 0.290218 0.254812
H42   H     H_    0.684313 0.260275 0.264069 0.275492
H43   H     H_    0.704981 0.211659 0.333942 0.241843
O16   O     O_3   0.231935 0.483325 0.603741 -0.577162
C70   C     C_3   0.232615 0.383119 0.618169 0.057373
H44   H     H_    0.264057 0.338855 0.583633 0.121999
H45   H     H_    0.163680 0.355631 0.625569 0.139982
C71   C     C_3   0.286223 0.369559 0.672383 -0.299398
H46   H     H_    0.357537 0.380735 0.662083 0.218715
H47   H     H_    0.265699 0.424635 0.704692 0.259276
C72   C     C_3   0.274083 0.267759 0.697461 -0.922132
H48   H     H_    0.203317 0.255546 0.709779 0.254810
H49   H     H_    0.315684 0.260277 0.735933 0.275492
H50   H     H_    0.295028 0.211661 0.666058 0.241844

loop_
_geom_bond_atom_site_label_1
_geom_bond_atom_site_label_2
_ccdc_geom_bond_type
C16   C28   A    
C72   H50   S    
C37   C43   A    
C67   H37   S    
C1    O1    A    
Cu2   O8    S    
C41   C42   A    
C71   C72   S    
C48   C56   A    
C61   H24   S    
O14   C64   S    
C10   H16   S    
C39   C41   A    
C53   C54   A    
C36   N4    A    
C40   C46   A    
C70   H45   S    
C1    C18   S    
C33   C39   A    
C37   C41   A    
C34   C40   A    
C47   N1    A    
C35   C37   A    
C71   H47   S    
C38   C42   A    
C20   H20   S    
C36   H4    S    
C57   C59   A    
C35   H3    S    
C58   C60   A    
C72   H48   S    
C29   H21   S    
C72   H49   S    
C23   O8    A    
C7    C9    A    
C2    O2    A    
C63   H27   S    
C66   H36   S    
Cu1   N3    S    
C8    C24   S    
C65   H32   S    
C35   N3    A    
C52   C54   A    
C69   H41   S    
C49   C51   A    
Cu2   O4    S    
C13   N2    S    
C50   C52   A    
C62   H25   S    
C58   F2    S    
C4    H12   S    
C3    C13   A    
C39   C45   A    
C68   C69   S    
C40   C42   A    
C55   C60   A    
C2    C17   S    
C30   H22   S    
C62   H26   S    
Cu1   Cu2   S    
C10   C12   A    
C61   H23   S    
Cu1   O1    S    
C65   H33   S    
C53   C55   A    
C52   C58   A    
C70   C71   S    
C54   C56   A    
C66   H35   S    
C45   H7    S    
C49   N1    A    
C71   H46   S    
C4    C6    A    
C24   O7    A    
C5    C7    A    
C9    H15   S    
C67   C68   S    
C64   H31   S    
C25   C26   A    
Cu2   N4    S    
C23   O5    A    
C51   C53   A    
C65   C66   S    
C31   O13   S    
C5    H13   S    
C38   C44   A    
C24   O6    A    
C49   O11   S    
C15   C27   A    
C33   H1    S    
C64   C65   S    
C34   H2    S    
C16   C18   A    
C34   N4    A    
C9    C11   A    
C63   H29   S    
C66   H34   S    
Cu2   O2    S    
C11   H17   S    
C69   H42   S    
C51   C57   A    
C8    C10   A    
C12   C14   A    
C1    O4    A    
Cu2   O6    S    
C22   C26   A    
O15   C67   S    
C62   C63   S    
C48   N2    A    
C44   H6    S    
C16   O16   S    
C57   F1    S    
C44   C45   A    
C47   C55   A    
C68   H39   S    
C15   C17   A    
C21   C25   A    
C67   H38   S    
C22   C30   A    
C19   C21   A    
C27   C32   A    
C50   O12   S    
C28   C31   A    
C14   N1    S    
C20   C22   A    
O16   C70   S    
C3    C5    A    
C6    C8    A    
Cu1   O7    S    
C6    H14   S    
C25   C27   A    
C48   O10   S    
C70   H44   S    
C26   C28   A    
C47   O9    S    
C56   C59   A    
C36   C38   A    
C33   N3    A    
C29   C31   A    
C30   C32   A    
C11   C13   A    
C64   H30   S    
C21   C29   A    
C69   H43   S    
C7    C23   S    
C12   H18   S    
C17   C19   A    
C18   C20   A    
C4    C14   A    
C2    O3    A    
C3    H11   S    
C43   C46   A    
C63   H28   S    
C46   H8    S    
C50   N2    A    
C43   H5    S    
C15   O15   S    
O13   C61   S    
C60   H10   S    
C32   O14   S    
C19   H19   S    
Cu1   O5    S    
C61   C62   S    
Cu1   O3    S    
C59   H9    S    
C68   H40   S    
