data_mof_unit_62331.cif
_audit_creation_date              2012-12-10T18:34:20-0500
_audit_creation_method            fapswitch 2.2
_symmetry_space_group_name_H-M    P1
_symmetry_Int_Tables_number       1
_space_group_crystal_system       triclinic
_cell_length_a                    36.161618
_cell_length_b                    36.205742
_cell_length_c                    25.507818
_cell_angle_alpha                 89.904009
_cell_angle_beta                  134.793102
_cell_angle_gamma                 90.082183
_cell_volume                      23699.8496615

loop_
_atom_site_label
_atom_site_type_symbol
_atom_type_description
_atom_site_fract_x
_atom_site_fract_y
_atom_site_fract_z
_atom_type_partial_charge
C1    C     C_R   0.849858 0.750388 0.699146 0.506878
C2    C     C_3   0.538442 0.250184 0.503356 0.080643
C3    C     C_3   0.288462 0.522455 0.578718 -0.066343
C4    C     C_3   0.765658 0.978506 0.459990 -0.085445
C5    C     C_3   0.768238 0.022084 0.463519 -0.089215
C6    C     C_3   0.260533 0.478371 0.453927 -0.084856
C7    C     C_3   0.263699 0.521925 0.457724 -0.088964
C8    C     C_1   0.747509 0.110864 0.497483 -0.002731
C9    C     C_1   0.752653 0.889144 0.502864 -0.004896
C10   C     C_1   0.247573 0.610858 0.497597 -0.002533
C11   C     C_1   0.252501 0.389148 0.502730 -0.004679
C12   C     C_3   0.751083 0.963199 0.501360 0.058776
C13   C     C_3   0.038279 0.250294 0.503058 0.081947
C14   C     C_3   0.747308 0.036709 0.496625 0.065384
C15   C     C_3   0.250900 0.463196 0.501361 0.058664
C16   C     C_3   0.247279 0.536701 0.496797 0.065493
C17   C     C_3   0.691345 0.019975 0.450274 -0.084738
C18   C     C_3   0.694870 0.976680 0.460226 -0.087998
C19   C     C_3   0.192264 0.520049 0.456103 -0.085125
C20   C     C_3   0.196261 0.476781 0.466629 -0.088186
C21   C     C_1   0.746487 0.077591 0.496282 -0.048075
C22   C     C_1   0.753173 0.922396 0.503665 -0.060229
C23   C     C_1   0.246569 0.577591 0.496462 -0.047721
C24   C     C_3   0.038240 0.749697 0.503002 0.080979
C25   C     C_1   0.252964 0.422391 0.503522 -0.060457
C26   C     C_3   0.798929 0.521821 0.578135 -0.109526
C27   C     C_3   0.798330 0.478100 0.578653 -0.109561
C28   C     C_3   0.299602 0.021778 0.577650 -0.109045
C29   C     C_3   0.298160 0.978062 0.578862 -0.109147
C30   C     C_3   0.699653 0.521514 0.480342 -0.036201
C31   C     C_3   0.699016 0.478242 0.478527 -0.035914
C32   C     C_3   0.200380 0.021414 0.482293 -0.036413
C33   C     C_3   0.198795 0.978150 0.477853 -0.035764
C34   C     C_1   0.749724 0.389084 0.499580 0.002721
C35   C     C_3   0.481348 0.790471 0.505666 -0.217100
C36   C     C_1   0.749610 0.610911 0.499432 0.002474
C37   C     C_1   0.249763 0.889081 0.499619 0.002923
C38   C     C_1   0.249577 0.110908 0.499414 0.002412
C39   C     C_R   0.750816 0.849661 0.500808 0.508688
C40   C     C_R   0.749410 0.150343 0.499409 0.508402
C41   C     C_R   0.250780 0.349664 0.500775 0.508779
C42   C     C_R   0.249435 0.650337 0.499441 0.508738
C43   C     C_3   0.748598 0.536793 0.499569 0.041951
C44   C     C_3   0.748669 0.463189 0.499579 0.041384
C45   C     C_3   0.248601 0.036782 0.499644 0.042231
C46   C     C_3   0.485547 0.210470 0.514743 -0.217478
C47   C     C_3   0.248719 0.963181 0.499573 0.040916
C48   C     C_3   0.751174 0.478493 0.444669 -0.052322
C49   C     C_3   0.749847 0.521706 0.443331 -0.052291
C50   C     C_3   0.251668 0.978555 0.445140 -0.052327
C51   C     C_3   0.248499 0.021762 0.442001 -0.052260
C52   C     C_1   0.749147 0.422366 0.499267 -0.044917
C53   C     C_1   0.748990 0.577626 0.499101 -0.044086
C54   C     C_1   0.249225 0.922361 0.499319 -0.045381
C55   C     C_1   0.248941 0.077621 0.499092 -0.043405
C56   C     C_R   0.849019 0.749645 0.498823 0.508717
C57   C     C_3   0.988329 0.289144 0.520614 -0.217128
C58   C     C_R   0.849042 0.250387 0.498841 0.508288
C59   C     C_R   0.349044 0.249645 0.498786 0.508538
C60   C     C_R   0.349061 0.750375 0.498819 0.508837
C61   C     C_R   0.650869 0.749959 0.500918 0.501613
C62   C     C_R   0.650931 0.250050 0.501040 0.501482
C63   C     C_R   0.150926 0.249911 0.500984 0.501927
C64   C     C_R   0.150924 0.750040 0.500965 0.501913
C65   C     C_3   0.528141 0.790191 0.513937 -0.066834
C66   C     C_3   0.532747 0.211070 0.523968 -0.066930
C67   C     C_3   0.032190 0.289544 0.522617 -0.067223
C68   C     C_3   0.985595 0.710190 0.515130 -0.216806
C69   C     C_3   0.030477 0.710063 0.519245 -0.067090
C70   C     C_3   0.486063 0.735119 0.423409 0.040515
C71   C     C_3   0.484796 0.260025 0.420449 0.039370
C72   C     C_3   0.984752 0.240216 0.420496 0.040892
C73   C     C_3   0.985122 0.761643 0.421358 0.041912
C74   C     C_3   0.440050 0.735329 0.419878 -0.070151
C75   C     C_3   0.438798 0.260267 0.416887 -0.070713
C76   C     C_3   0.938259 0.243132 0.415772 -0.068957
C77   C     C_3   0.938742 0.759859 0.417013 -0.069240
C78   C     C_3   0.462590 0.765010 0.069828 -0.433053
C79   C     C_3   0.460585 0.750593 0.494506 0.057040
C80   C     C_3   0.462845 0.237855 0.071982 -0.435395
C81   C     C_3   0.962304 0.262992 0.070092 -0.433212
C82   C     C_3   0.962609 0.737590 0.071831 -0.432858
C83   C     C_3   0.581946 0.804972 0.069428 -0.434564
C84   C     C_3   0.583308 0.196037 0.070508 -0.433987
C85   C     C_3   0.080456 0.306178 0.069264 -0.435360
C86   C     C_3   0.083080 0.696237 0.069764 -0.435327
C87   C     C_3   0.442302 0.819081 0.922608 -0.428323
C88   C     C_3   0.444505 0.180093 0.922331 -0.427382
C89   C     C_3   0.940662 0.318609 0.922767 -0.429811
C90   C     C_3   0.460499 0.249445 0.494313 0.057034
C91   C     C_3   0.944259 0.680249 0.922519 -0.427983
C92   C     C_3   0.731233 0.962482 0.381165 -0.419327
C93   C     C_3   0.744091 0.041856 0.390965 -0.419494
C94   C     C_3   0.222068 0.462482 0.374433 -0.419217
C95   C     C_3   0.236127 0.541796 0.383753 -0.420250
C96   C     C_3   0.676860 0.962008 0.496604 -0.419102
C97   C     C_3   0.659818 0.040027 0.461972 -0.419439
C98   C     C_3   0.183205 0.462407 0.509519 -0.418731
C99   C     C_3   0.164393 0.540307 0.473728 -0.418737
C100  C     C_3   0.493331 0.694692 0.409326 -0.399328
C101  C     C_3   0.960745 0.250905 0.494751 0.057798
C102  C     C_3   0.487642 0.298900 0.396043 -0.402251
C103  C     C_3   0.986407 0.200097 0.399135 -0.401534
C104  C     C_3   0.989150 0.801931 0.402729 -0.397553
C105  C     C_3   0.806009 0.460703 0.641436 -0.410582
C106  C     C_3   0.809554 0.540369 0.642495 -0.410668
C107  C     C_3   0.304212 0.961544 0.640907 -0.409703
C108  C     C_3   0.312716 0.041191 0.643443 -0.409836
C109  C     C_3   0.473015 0.759276 0.360885 -0.375995
C110  C     C_3   0.474703 0.231812 0.364945 -0.375817
C111  C     C_3   0.976510 0.265688 0.363144 -0.377705
C112  C     C_R   0.849844 0.249596 0.699202 0.507510
C113  C     C_3   0.960687 0.749220 0.494655 0.057496
C114  C     C_3   0.974930 0.736592 0.362144 -0.377667
C115  C     C_3   0.388602 0.753759 0.349900 -0.420208
C116  C     C_3   0.389225 0.238429 0.351445 -0.420552
C117  C     C_3   0.893945 0.270266 0.356147 -0.421852
C118  C     C_3   0.891286 0.736019 0.353006 -0.421521
C119  C     C_3   0.608035 0.727606 0.643360 -0.408077
C120  C     C_3   0.604757 0.281288 0.636232 -0.408821
C121  C     C_3   0.103804 0.223782 0.638877 -0.408623
C122  C     C_3   0.105522 0.774229 0.640608 -0.408871
C123  C     C_3   0.525025 0.737583 0.635088 -0.370741
C124  C     C_3   0.506518 0.724995 0.561333 0.058150
C125  C     C_3   0.523149 0.270267 0.630782 -0.370928
C126  C     C_3   0.018524 0.223319 0.626483 -0.371731
C127  C     C_3   0.021081 0.771629 0.630107 -0.371656
C128  C     C_3   0.503371 0.278609 0.554667 0.057849
C129  C     C_3   0.001725 0.219929 0.551307 0.058788
C130  C     C_3   0.003690 0.778275 0.555087 0.058897
C131  C     C_3   0.551948 0.723662 0.564576 -0.070285
C132  C     C_3   0.548498 0.280084 0.557310 -0.070179
C133  C     C_3   0.049041 0.220839 0.558416 -0.072307
C134  C     C_3   0.050316 0.777890 0.560786 -0.071485
C135  C     C_1   0.418661 0.751633 0.492460 -0.061352
C136  C     C_R   0.349853 0.250371 0.699150 0.507007
C137  C     C_1   0.418631 0.248391 0.492401 -0.060794
C138  C     C_1   0.918762 0.251813 0.492741 -0.063515
C139  C     C_1   0.918713 0.748328 0.492704 -0.062898
C140  C     C_1   0.580793 0.750347 0.506388 -0.059187
C141  C     C_1   0.581005 0.249836 0.506807 -0.059141
C142  C     C_1   0.080814 0.250379 0.506363 -0.058473
C143  C     C_1   0.080743 0.749467 0.506192 -0.058887
C144  C     C_1   0.613045 0.749928 0.504100 -0.013262
C145  C     C_1   0.613242 0.250152 0.504506 -0.013648
C146  C     C_1   0.113060 0.249864 0.504204 -0.012405
C147  C     C_R   0.349838 0.749594 0.699202 0.507674
C148  C     C_1   0.112993 0.749966 0.504132 -0.012594
C149  C     C_3   0.481255 0.739955 0.042765 -0.089804
C150  C     C_3   0.480802 0.260547 0.041696 -0.093325
C151  C     C_3   0.981495 0.238915 0.042716 -0.089558
C152  C     C_3   0.980678 0.760400 0.041727 -0.092671
C153  C     C_R   0.650261 0.750283 0.300743 0.507097
C154  C     C_R   0.650150 0.249663 0.300758 0.506157
C155  C     C_R   0.150250 0.250290 0.300747 0.506991
C156  C     C_R   0.150141 0.749668 0.300754 0.506179
C157  C     C_3   0.530015 0.790525 0.041211 -0.092668
C158  C     C_1   0.386591 0.751443 0.494935 -0.007211
C159  C     C_3   0.530848 0.209779 0.041475 -0.092627
C160  C     C_3   0.028930 0.290816 0.041170 -0.093081
C161  C     C_3   0.030812 0.709771 0.041368 -0.093502
C162  C     C_3   0.484934 0.789669 0.953947 -0.102988
C163  C     C_3   0.486368 0.210410 0.954164 -0.104461
C164  C     C_3   0.983974 0.289897 0.953941 -0.103712
C165  C     C_3   0.986254 0.710398 0.954127 -0.104473
C166  C     C_1   0.389853 0.748704 0.778261 0.003824
C167  C     C_1   0.389986 0.251137 0.778144 0.004688
C168  C     C_1   0.889878 0.248714 0.778255 0.003630
C169  C     C_1   0.386569 0.248592 0.494853 -0.007202
C170  C     C_1   0.890024 0.751176 0.778157 0.004484
C171  C     C_3   0.535475 0.751462 0.073169 0.053416
C172  C     C_3   0.535362 0.248737 0.073113 0.055244
C173  C     C_3   0.035419 0.251493 0.073160 0.053831
C174  C     C_3   0.035329 0.748716 0.073118 0.055400
C175  C     C_3   0.439249 0.737417 0.956436 -0.042670
C176  C     C_3   0.438596 0.260617 0.955518 -0.046026
C177  C     C_3   0.939519 0.236549 0.956390 -0.042369
C178  C     C_3   0.938647 0.760798 0.955471 -0.045914
C179  C     C_3   0.463118 0.749241 0.926424 0.047632
C180  C     C_1   0.886677 0.251516 0.495011 -0.007948
C181  C     C_3   0.463207 0.250416 0.926267 0.047817
C182  C     C_3   0.963108 0.249279 0.926430 0.047990
C183  C     C_3   0.963298 0.750476 0.926254 0.048099
C184  C     C_3   0.510491 0.723951 0.959208 -0.047642
C185  C     C_3   0.509710 0.276951 0.959161 -0.048280
C186  C     C_3   0.011109 0.224732 0.959234 -0.047939
C187  C     C_3   0.009930 0.776905 0.959233 -0.048442
C188  C     C_3   0.550770 0.722718 0.045388 -0.060393
C189  C     C_3   0.550608 0.277602 0.045541 -0.064295
C190  C     C_3   0.051447 0.223499 0.045432 -0.060642
C191  C     C_1   0.886671 0.748600 0.494942 -0.007968
C192  C     C_3   0.050625 0.777662 0.045623 -0.063716
C193  C     C_1   0.423146 0.748314 0.844796 -0.050466
C194  C     C_1   0.423387 0.251332 0.844668 -0.048936
C195  C     C_1   0.923178 0.248346 0.844801 -0.050400
C196  C     C_1   0.923483 0.751395 0.844649 -0.049102
C197  C     C_1   0.576167 0.751601 0.155018 -0.063294
C198  C     C_1   0.575532 0.248391 0.154966 -0.056273
C199  C     C_1   0.076064 0.251637 0.155020 -0.062748
C200  C     C_1   0.075523 0.748368 0.154935 -0.057003
C201  C     C_R   0.749990 0.650460 0.499808 0.505572
C202  C     C_3   0.538391 0.749930 0.503248 0.080341
C203  C     C_R   0.750017 0.349538 0.499861 0.505744
C204  C     C_R   0.249984 0.150460 0.499800 0.505524
C205  C     C_R   0.250022 0.849536 0.499872 0.505843
C206  C     C_1   0.609949 0.751130 0.221588 -0.003759
C207  C     C_1   0.609502 0.248766 0.221531 -0.003307
C208  C     C_1   0.109895 0.251151 0.221581 -0.003763
C209  C     C_1   0.109467 0.748744 0.221545 -0.003700
C210  C     C_3   0.790441 0.979328 0.581399 -0.066425
C211  C     C_3   0.785066 0.022434 0.578347 -0.066286
C212  C     C_3   0.293718 0.479355 0.581150 -0.066676
Cl1   Cl    Cl    0.583863 0.812818 0.597534 -0.121948
Cl2   Cl    Cl    0.561777 0.322877 0.084356 -0.081726
Cl3   Cl    Cl    0.062590 0.177834 0.082933 -0.079555
Cl4   Cl    Cl    0.061471 0.822905 0.084127 -0.081356
Cl5   Cl    Cl    0.492397 0.679153 0.916331 -0.063017
Cl6   Cl    Cl    0.489443 0.322101 0.917057 -0.063105
Cl7   Cl    Cl    0.994067 0.179972 0.916449 -0.063638
Cl8   Cl    Cl    0.989918 0.821970 0.916977 -0.063109
Cl9   Cl    Cl    0.409824 0.692421 0.925965 -0.080137
Cl10  Cl    Cl    0.403966 0.303745 0.920251 -0.083703
Cl11  Cl    Cl    0.910984 0.191268 0.925717 -0.079244
Cl12  Cl    Cl    0.590456 0.194024 0.612922 -0.121726
Cl13  Cl    Cl    0.904646 0.804198 0.920728 -0.083332
Cl14  Cl    Cl    0.846805 0.046336 0.639485 -0.086574
Cl15  Cl    Cl    0.855939 0.963173 0.635008 -0.090864
Cl16  Cl    Cl    0.349918 0.546420 0.634615 -0.086789
Cl17  Cl    Cl    0.357934 0.463309 0.627544 -0.091579
Cl18  Cl    Cl    0.639439 0.542840 0.399974 -0.060861
Cl19  Cl    Cl    0.639333 0.458511 0.394463 -0.057719
Cl20  Cl    Cl    0.139684 0.043856 0.404911 -0.062826
Cl21  Cl    Cl    0.139268 0.959575 0.391419 -0.055675
Cl22  Cl    Cl    0.700272 0.541499 0.352285 -0.054116
Cl23  Cl    Cl    0.091108 0.309240 0.606958 -0.121006
Cl24  Cl    Cl    0.705010 0.457226 0.354602 -0.057059
Cl25  Cl    Cl    0.196230 0.040466 0.350401 -0.051971
Cl26  Cl    Cl    0.207550 0.956234 0.355754 -0.058947
Cl27  Cl    Cl    0.088165 0.689109 0.603224 -0.121284
Cl28  Cl    Cl    0.483035 0.678360 0.547958 -0.129924
Cl29  Cl    Cl    0.474820 0.324137 0.530851 -0.129188
Cl30  Cl    Cl    0.971534 0.174865 0.518381 -0.132956
Cl31  Cl    Cl    0.976224 0.824228 0.528830 -0.131763
Cl32  Cl    Cl    0.560597 0.677285 0.082745 -0.079082
H1    H     H_    0.449900 0.808096 0.457639 0.106304
H2    H     H_    0.407836 0.239825 0.933740 0.125008
H3    H     H_    0.902406 0.310267 0.868220 0.137252
H4    H     H_    0.935396 0.322818 0.960155 0.125863
H5    H     H_    0.953258 0.654779 0.908865 0.128830
H6    H     H_    0.941139 0.673031 0.961597 0.126660
H7    H     H_    0.904972 0.688967 0.870290 0.136293
H8    H     H_    0.753742 0.963530 0.366492 0.130935
H9    H     H_    0.720395 0.933121 0.376703 0.141457
H10   H     H_    0.694168 0.977850 0.339750 0.131951
H11   H     H_    0.755734 0.071398 0.401830 0.145458
H12   H     H_    0.758585 0.029550 0.368442 0.135218
H13   H     H_    0.905719 0.254728 0.931307 0.123133
H14   H     H_    0.700943 0.040875 0.347633 0.127321
H15   H     H_    0.241570 0.462781 0.355042 0.130357
H16   H     H_    0.210936 0.433357 0.371147 0.140381
H17   H     H_    0.185212 0.478362 0.335792 0.131823
H18   H     H_    0.248461 0.571173 0.394040 0.144960
H19   H     H_    0.247163 0.529143 0.356789 0.134922
H20   H     H_    0.193105 0.541395 0.344268 0.127439
H21   H     H_    0.693750 0.978290 0.545971 0.138144
H22   H     H_    0.633720 0.963047 0.456308 0.126140
H23   H     H_    0.688275 0.932758 0.514270 0.143902
H24   H     H_    0.907597 0.740275 0.933108 0.124303
H25   H     H_    0.681735 0.041891 0.521246 0.140753
H26   H     H_    0.649577 0.068400 0.438694 0.132960
H27   H     H_    0.622303 0.025736 0.431811 0.130790
H28   H     H_    0.203013 0.478847 0.559946 0.138155
H29   H     H_    0.140496 0.463514 0.473587 0.126539
H30   H     H_    0.195085 0.433172 0.526881 0.144560
H31   H     H_    0.189360 0.542464 0.534028 0.141367
H32   H     H_    0.152969 0.568577 0.449818 0.133592
H33   H     H_    0.127704 0.525990 0.447817 0.131051
H34   H     H_    0.468647 0.689360 0.349623 0.134635
H35   H     H_    0.520006 0.810365 0.062869 0.147471
H36   H     H_    0.534378 0.689148 0.438486 0.137480
H37   H     H_    0.482193 0.672991 0.426971 0.117364
H38   H     H_    0.461271 0.300484 0.335359 0.134555
H39   H     H_    0.475535 0.321729 0.409954 0.117222
H40   H     H_    0.527525 0.305314 0.421761 0.140191
H41   H     H_    0.960432 0.197190 0.338680 0.132695
H42   H     H_    0.026324 0.192381 0.425875 0.137004
H43   H     H_    0.972955 0.178697 0.413519 0.126002
H44   H     H_    0.966801 0.805232 0.343459 0.133185
H45   H     H_    0.973288 0.823448 0.413404 0.122311
H46   H     H_    0.521275 0.189334 0.062827 0.142733
H47   H     H_    0.030116 0.809755 0.434052 0.134234
H48   H     H_    0.775365 0.469450 0.638810 0.131878
H49   H     H_    0.805919 0.430088 0.639417 0.136204
H50   H     H_    0.844629 0.468516 0.696084 0.129139
H51   H     H_    0.779061 0.533729 0.641355 0.132410
H52   H     H_    0.847950 0.531471 0.696318 0.129224
H53   H     H_    0.811845 0.570854 0.640868 0.136903
H54   H     H_    0.273663 0.971800 0.637660 0.131203
H55   H     H_    0.302471 0.930845 0.638600 0.135398
H56   H     H_    0.343101 0.968618 0.695965 0.129097
H57   H     H_    0.018398 0.310202 0.062701 0.147727
H58   H     H_    0.282575 0.036080 0.643813 0.132528
H59   H     H_    0.351063 0.031535 0.696501 0.129268
H60   H     H_    0.316644 0.071571 0.642046 0.137111
H61   H     H_    0.464895 0.788524 0.362306 0.112115
H62   H     H_    0.505308 0.758746 0.364176 0.136407
H63   H     H_    0.438217 0.748554 0.305185 0.125947
H64   H     H_    0.469525 0.203050 0.373734 0.112136
H65   H     H_    0.439101 0.238988 0.306993 0.125936
H66   H     H_    0.507115 0.231872 0.368440 0.134720
H67   H     H_    0.976662 0.295509 0.372184 0.111175
H68   H     H_    0.021529 0.689150 0.062887 0.142479
H69   H     H_    0.007225 0.260938 0.363886 0.137302
H70   H     H_    0.938983 0.259473 0.306026 0.126703
H71   H     H_    0.971272 0.706974 0.367907 0.111749
H72   H     H_    0.938557 0.744817 0.305420 0.126246
H73   H     H_    0.006574 0.739441 0.364331 0.136672
H74   H     H_    0.372244 0.738366 0.299673 0.128316
H75   H     H_    0.358664 0.752722 0.351304 0.140983
H76   H     H_    0.393626 0.783133 0.343485 0.133395
H77   H     H_    0.371790 0.250733 0.298225 0.128490
H78   H     H_    0.396936 0.208775 0.351809 0.133726
H79   H     H_    0.500927 0.797321 0.930719 0.135811
H80   H     H_    0.359046 0.240131 0.352312 0.140549
H81   H     H_    0.871432 0.259130 0.300041 0.127153
H82   H     H_    0.866044 0.273897 0.361019 0.140136
H83   H     H_    0.908464 0.298134 0.360120 0.133505
H84   H     H_    0.871363 0.748781 0.299006 0.127974
H85   H     H_    0.902043 0.707257 0.353498 0.133329
H86   H     H_    0.862082 0.734452 0.355771 0.140316
H87   H     H_    0.613113 0.752386 0.673275 0.158759
H88   H     H_    0.617360 0.703215 0.677574 0.121132
H89   H     H_    0.638001 0.728513 0.642016 0.142699
H90   H     H_    0.503006 0.203692 0.931638 0.136019
H91   H     H_    0.612993 0.258738 0.672436 0.158539
H92   H     H_    0.634804 0.280341 0.635030 0.141587
H93   H     H_    0.610773 0.307639 0.663652 0.121683
H94   H     H_    0.106234 0.246415 0.670222 0.158726
H95   H     H_    0.113328 0.197719 0.669315 0.119202
H96   H     H_    0.135013 0.228036 0.640592 0.146003
H97   H     H_    0.108548 0.750872 0.671399 0.158935
H98   H     H_    0.136253 0.770839 0.641143 0.144953
H99   H     H_    0.115337 0.799703 0.672509 0.119520
H100  H     H_    0.540266 0.766209 0.649994 0.128374
H101  H     H_    0.999804 0.298272 0.930779 0.136369
H102  H     H_    0.492599 0.736274 0.631527 0.140322
H103  H     H_    0.555701 0.718849 0.681213 0.131695
H104  H     H_    0.541684 0.242774 0.652146 0.129432
H105  H     H_    0.551519 0.291493 0.672185 0.131894
H106  H     H_    0.490650 0.271246 0.627063 0.139464
H107  H     H_    0.034982 0.250743 0.652169 0.121053
H108  H     H_    0.984817 0.218706 0.619428 0.141349
H109  H     H_    0.047445 0.201743 0.665829 0.132294
H110  H     H_    0.036777 0.743526 0.651936 0.123154
H111  H     H_    0.050879 0.792127 0.672006 0.131917
H112  H     H_    0.456327 0.190377 0.470817 0.106500
H113  H     H_    0.002889 0.703480 0.931645 0.136787
H114  H     H_    0.987902 0.775387 0.624456 0.140860
H115  H     H_    0.519028 0.808904 0.471653 0.114460
H116  H     H_    0.526576 0.189818 0.487301 0.115155
H117  H     H_    0.021572 0.310134 0.481897 0.115509
H118  H     H_    0.020296 0.690205 0.477920 0.115322
H119  H     H_    0.589552 0.730263 0.067859 0.108628
H120  H     H_    0.589098 0.269961 0.067276 0.109380
H121  H     H_    0.090023 0.231786 0.067869 0.108790
H122  H     H_    0.089249 0.770047 0.067637 0.109492
H123  H     H_    0.486149 0.712103 0.065353 0.164298
H124  H     H_    0.959599 0.311191 0.482560 0.107915
H125  H     H_    0.484621 0.289258 0.060297 0.167068
H126  H     H_    0.987060 0.210885 0.065113 0.164628
H127  H     H_    0.984667 0.789154 0.060564 0.166232
H128  H     H_    0.530629 0.736876 0.945267 0.089956
H129  H     H_    0.529913 0.265426 0.944394 0.090579
H130  H     H_    0.030895 0.238264 0.945205 0.089700
H131  H     H_    0.030189 0.765186 0.944711 0.089901
H132  H     H_    0.805716 0.968522 0.490942 0.143607
H133  H     H_    0.810259 0.029488 0.503232 0.146481
H134  H     H_    0.299527 0.468162 0.480225 0.143422
H135  H     H_    0.955603 0.689675 0.473235 0.107101
H136  H     H_    0.305527 0.529056 0.493870 0.146682
H137  H     H_    0.667292 0.964202 0.404026 0.127143
H138  H     H_    0.667919 0.024861 0.390958 0.125681
H139  H     H_    0.166206 0.464191 0.410702 0.127243
H140  H     H_    0.166034 0.524778 0.395946 0.125683
H141  H     H_    0.780948 0.968184 0.611386 0.118788
H142  H     H_    0.768182 0.029545 0.600301 0.113004
H143  H     H_    0.287871 0.468191 0.615473 0.118909
H144  H     H_    0.274708 0.529513 0.605038 0.113134
H145  H     H_    0.702559 0.529959 0.524969 0.097431
H146  H     H_    0.491758 0.804103 0.553561 0.127097
H147  H     H_    0.699817 0.468421 0.520603 0.097388
H148  H     H_    0.205095 0.028942 0.529013 0.097470
H149  H     H_    0.198415 0.967419 0.518432 0.097302
H150  H     H_    0.786808 0.531379 0.461808 0.087175
H151  H     H_    0.789451 0.470083 0.466076 0.086485
H152  H     H_    0.284383 0.032270 0.457975 0.087627
H153  H     H_    0.290734 0.970984 0.468155 0.086015
H154  H     H_    0.832912 0.530134 0.587464 0.118769
H155  H     H_    0.833004 0.468737 0.590533 0.119845
H156  H     H_    0.332905 0.029302 0.584746 0.117663
H157  H     H_    0.496753 0.199641 0.564984 0.127252
H158  H     H_    0.333141 0.967916 0.592071 0.120215
H159  H     H_    0.427158 0.706544 0.414567 0.144232
H160  H     H_    0.423301 0.288692 0.405234 0.144729
H161  H     H_    0.917470 0.216287 0.397127 0.145035
H162  H     H_    0.920873 0.787576 0.403265 0.144613
H163  H     H_    0.553335 0.695199 0.549867 0.133465
H164  H     H_    0.546296 0.307279 0.535189 0.134065
H165  H     H_    0.051258 0.193501 0.541202 0.134178
H166  H     H_    0.052599 0.805621 0.544754 0.134012
H167  H     H_    0.445419 0.747606 0.084678 0.134462
H168  H     H_    0.003691 0.296741 0.575018 0.128129
H169  H     H_    0.495292 0.780990 0.120163 0.137443
H170  H     H_    0.432512 0.785589 0.027234 0.122184
H171  H     H_    0.481094 0.249131 0.126221 0.140764
H172  H     H_    0.419676 0.240221 0.034403 0.130903
H173  H     H_    0.473275 0.208310 0.079769 0.128797
H174  H     H_    0.947114 0.245013 0.086986 0.134656
H175  H     H_    0.993929 0.279926 0.118933 0.136886
H176  H     H_    0.930663 0.282486 0.027370 0.121500
H177  H     H_    0.978258 0.750493 0.123819 0.139497
H178  H     H_    0.919016 0.737832 0.031952 0.129936
H179  H     H_    0.999233 0.700265 0.567481 0.127754
H180  H     H_    0.976443 0.708515 0.084505 0.129405
H181  H     H_    0.585305 0.835399 0.078165 0.130164
H182  H     H_    0.616426 0.792878 0.123464 0.145797
H183  H     H_    0.585494 0.798483 0.030574 0.123157
H184  H     H_    0.587384 0.165627 0.079938 0.130449
H185  H     H_    0.586982 0.202652 0.031854 0.123064
H186  H     H_    0.617332 0.208517 0.124346 0.145453
H187  H     H_    0.082104 0.336795 0.075192 0.129981
H188  H     H_    0.115242 0.295361 0.124665 0.146350
H189  H     H_    0.084887 0.298966 0.031587 0.123395
H190  H     H_    0.405853 0.756016 0.931302 0.122895
H191  H     H_    0.085104 0.665362 0.072618 0.130417
H192  H     H_    0.088174 0.706009 0.033683 0.123041
H193  H     H_    0.117126 0.706170 0.126710 0.146623
H194  H     H_    0.451310 0.845191 0.910423 0.129286
H195  H     H_    0.403313 0.810249 0.869706 0.136470
H196  H     H_    0.438729 0.825270 0.961383 0.124741
H197  H     H_    0.453401 0.154870 0.907950 0.129207
H198  H     H_    0.441657 0.172378 0.961530 0.125627
H199  H     H_    0.405104 0.188888 0.870471 0.136266
H200  H     H_    0.950273 0.345628 0.913967 0.129203
O1    O     O_3   0.750040 0.750040 0.500000 -0.436792
O2    O     O_R   0.750020 0.167970 0.542980 -0.531879
O3    O     O_R   0.250020 0.332030 0.542980 -0.533914
O4    O     O_R   0.250020 0.667970 0.542980 -0.532062
O5    O     O_R   0.853500 0.728560 0.663950 -0.541416
O6    O     O_R   0.853500 0.271440 0.663950 -0.540935
O7    O     O_R   0.353500 0.228560 0.663950 -0.541405
O8    O     O_R   0.353500 0.771440 0.663950 -0.540849
O9    O     O_R   0.689570 0.771520 0.336050 -0.542745
O10   O     O_R   0.689570 0.228480 0.336050 -0.542463
O11   O     O_R   0.189570 0.271520 0.336050 -0.542908
O12   O     O_3   0.750040 0.249960 0.500000 -0.436843
O13   O     O_R   0.189570 0.728480 0.336050 -0.542992
O14   O     O_R   0.810510 0.771550 0.663950 -0.530438
O15   O     O_R   0.810510 0.228450 0.663950 -0.530183
O16   O     O_R   0.310510 0.271550 0.663950 -0.530291
O17   O     O_R   0.310510 0.728450 0.663950 -0.530328
O18   O     O_R   0.646590 0.728530 0.336050 -0.531374
O19   O     O_R   0.646590 0.271470 0.336050 -0.532215
O20   O     O_R   0.146590 0.228530 0.336050 -0.531471
O21   O     O_R   0.146590 0.771470 0.336050 -0.532069
O22   O     O_R   0.793040 0.668060 0.542980 -0.542728
O23   O     O_3   0.250040 0.250040 0.500000 -0.436830
O24   O     O_R   0.793040 0.331940 0.542980 -0.542556
O25   O     O_R   0.293040 0.168060 0.542980 -0.542991
O26   O     O_R   0.293040 0.831940 0.542980 -0.542435
O27   O     O_R   0.750030 0.832020 0.457020 -0.539531
O28   O     O_R   0.750030 0.167980 0.457020 -0.540654
O29   O     O_R   0.250030 0.332020 0.457020 -0.539018
O30   O     O_R   0.250030 0.667980 0.457020 -0.540358
O31   O     O_R   0.853520 0.728540 0.542980 -0.537636
O32   O     O_R   0.853520 0.271460 0.542980 -0.537577
O33   O     O_R   0.353520 0.228540 0.542980 -0.537551
O34   O     O_3   0.250040 0.749960 0.500000 -0.436759
O35   O     O_R   0.353520 0.771460 0.542980 -0.537451
O36   O     O_R   0.689540 0.771550 0.542990 -0.534450
O37   O     O_R   0.689540 0.228450 0.542990 -0.534887
O38   O     O_R   0.189540 0.271550 0.542990 -0.534343
O39   O     O_R   0.189540 0.728450 0.542990 -0.535086
O40   O     O_R   0.810530 0.771520 0.457010 -0.535465
O41   O     O_R   0.810530 0.228480 0.457010 -0.534819
O42   O     O_R   0.310530 0.271520 0.457010 -0.535179
O43   O     O_R   0.310530 0.728480 0.457010 -0.535342
O44   O     O_R   0.646570 0.728550 0.457020 -0.540192
O45   O     O_R   0.707070 0.668050 0.457020 -0.529607
O46   O     O_R   0.646570 0.271450 0.457020 -0.540295
O47   O     O_R   0.146570 0.228550 0.457020 -0.540411
O48   O     O_R   0.146570 0.771450 0.457020 -0.540525
O49   O     O_R   0.707070 0.331950 0.457020 -0.529729
O50   O     O_R   0.207070 0.168050 0.457020 -0.529320
O51   O     O_R   0.207070 0.831950 0.457020 -0.529946
O52   O     O_R   0.750020 0.832030 0.542980 -0.533454
Zn1   Zn    Zn3+2 0.688630 0.719330 0.438590 0.946859
Zn2   Zn    Zn3+2 0.750040 0.219260 0.438590 0.941359
Zn3   Zn    Zn3+2 0.250040 0.280740 0.438590 0.942160
Zn4   Zn    Zn3+2 0.250040 0.719260 0.438590 0.941240
Zn5   Zn    Zn3+2 0.750030 0.780760 0.561410 0.950755
Zn6   Zn    Zn3+2 0.750030 0.219240 0.561410 0.951847
Zn7   Zn    Zn3+2 0.250030 0.280760 0.561410 0.950858
Zn8   Zn    Zn3+2 0.250030 0.719240 0.561410 0.951893
Zn9   Zn    Zn3+2 0.688630 0.280670 0.438590 0.945975
Zn10  Zn    Zn3+2 0.188630 0.219330 0.438590 0.946967
Zn11  Zn    Zn3+2 0.188630 0.780670 0.438590 0.945882
Zn12  Zn    Zn3+2 0.811460 0.719330 0.561410 0.939163
Zn13  Zn    Zn3+2 0.811460 0.280670 0.561410 0.939905
Zn14  Zn    Zn3+2 0.311460 0.219330 0.561410 0.939257
Zn15  Zn    Zn3+2 0.311460 0.780670 0.561410 0.940357
Zn16  Zn    Zn3+2 0.750040 0.780740 0.438590 0.941781

loop_
_geom_bond_atom_site_label_1
_geom_bond_atom_site_label_2
_ccdc_geom_bond_type
C125  H105  S    
C32   C45   S    
C142  C146  T    
C163  H90   S    
C19   C20   S    
C122  H97   S    
C40   O28   A    
O11   Zn3   S    
O34   Zn15  S    
C112  O6    A    
C14   C21   S    
C88   H197  S    
C57   C67   S    
C107  H56   S    
C81   H176  S    
C97   H26   S    
C111  H69   S    
C173  C199  S    
C65   H115  S    
C177  C182  S    
C125  H104  S    
C83   H181  S    
C9    C39   S    
C152  H127  S    
C36   C53   T    
C75   C90   S    
O34   Zn8   S    
C150  C172  S    
C117  H82   S    
O9    Zn16  S    
C6    C94   S    
C62   C145  S    
C31   Cl19  S    
C70   C74   S    
C41   O29   A    
C69   H118  S    
C166  C193  T    
C4    C12   S    
C160  H57   S    
C63   C146  S    
C141  C145  T    
C92   H9    S    
C95   H19   S    
C56   C191  S    
C38   C204  S    
C210  H141  S    
O49   Zn9   S    
O25   Zn14  S    
C130  C134  S    
C77   C113  S    
C115  H76   S    
O46   Zn9   S    
C84   C159  S    
C96   H22   S    
C15   C20   S    
C203  O49   A    
C159  C172  S    
C165  C183  S    
C105  H50   S    
C85   H189  S    
C185  Cl6   S    
C19   C99   S    
C98   H29   S    
C176  H2    S    
C126  C129  S    
O1    Zn5   S    
C150  H125  S    
C73   C114  S    
C106  H52   S    
C149  C175  S    
C186  C190  S    
C65   Cl1   S    
C140  C202  S    
C61   C144  S    
C83   C157  S    
C186  H130  S    
O32   Zn13  S    
C183  C196  S    
C82   H180  S    
C13   C142  S    
C181  C194  S    
O19   Zn9   S    
C103  H43   S    
C133  H165  S    
C108  H60   S    
C72   C103  S    
C71   C102  S    
C64   O48   A    
C74   C79   S    
C33   C47   S    
C30   C43   S    
C80   H172  S    
O48   Zn11  S    
C2    C71   S    
C179  C193  S    
C24   C134  S    
C205  O51   A    
O33   Zn14  S    
C123  H103  S    
C59   O33   A    
C156  C209  S    
C13   C133  S    
C102  H39   S    
C88   H199  S    
C4    C5    S    
C107  H54   S    
C99   H32   S    
C6    C7    S    
C13   C72   S    
C200  C209  T    
C184  H128  S    
C26   H154  S    
C121  H94   S    
C157  C171  S    
C161  C174  S    
C28   C108  S    
C124  Cl28  S    
C175  H190  S    
C203  O24   A    
C126  H109  S    
O51   Zn11  S    
C66   H116  S    
C124  C131  S    
C31   H147  S    
C32   H148  S    
C73   C77   S    
C58   C180  S    
C8    C40   S    
C59   C169  S    
C115  H74   S    
C157  C162  S    
C161  C165  S    
C173  C190  S    
C44   C48   S    
C91   H6    S    
C70   C202  S    
C32   Cl20  S    
C119  H89   S    
C163  C181  S    
C160  C173  S    
C1    C170  S    
C78   H169  S    
C201  O45   A    
O17   Zn8   S    
C106  H51   S    
C86   H192  S    
C93   H12   S    
C123  C124  S    
C165  H113  S    
C15   C212  S    
C190  H121  S    
C176  Cl10  S    
C14   C211  S    
C29   C47   S    
C70   C109  S    
C178  H24   S    
C15   C25   S    
C129  Cl30  S    
C11   C25   T    
C24   C143  S    
C120  H92   S    
C109  H61   S    
C110  H66   S    
C82   H178  S    
C131  C202  S    
C122  C134  S    
O42   Zn3   S    
C98   H30   S    
O39   Zn8   S    
O40   Zn16  S    
C27   C44   S    
C94   H16   S    
C119  C131  S    
C113  C139  S    
C172  C198  S    
C85   C160  S    
C190  Cl3   S    
C89   C164  S    
C154  C207  S    
O12   Zn13  S    
O34   Zn11  S    
C44   C52   S    
C58   O41   A    
C64   C148  S    
C14   C17   S    
C134  H166  S    
C76   H161  S    
C116  H77   S    
C85   H187  S    
C47   C50   S    
C187  Cl8   S    
C92   H8    S    
C143  C148  T    
C126  H108  S    
C71   C75   S    
C113  C130  S    
C38   C55   T    
C63   O47   A    
C68   H179  S    
C42   O4    A    
C114  H72   S    
C77   C118  S    
C121  H96   S    
O12   Zn6   S    
C114  H73   S    
O34   Zn4   S    
C112  O15   A    
C81   C151  S    
C59   O42   A    
C211  Cl14  S    
C56   O31   A    
C119  H88   S    
C89   H3    S    
C77   H162  S    
C90   C137  S    
O29   Zn3   S    
C49   Cl22  S    
C157  H35   S    
C212  H143  S    
C131  H163  S    
C7    H136  S    
C17   C18   S    
C175  Cl9   S    
C86   C161  S    
C118  H86   S    
C187  C192  S    
O21   Zn11  S    
O45   Zn1   S    
C149  H123  S    
C104  H44   S    
C16   C23   S    
O31   Zn12  S    
C18   H137  S    
C78   H167  S    
C57   H124  S    
C153  O9    A    
C36   C201  S    
C83   H182  S    
C5    H133  S    
C33   Cl21  S    
C179  C184  S    
C104  H45   S    
C147  O17   A    
O14   Zn5   S    
O26   Zn15  S    
C149  C171  S    
C37   C205  S    
C91   C165  S    
C7    C16   S    
C122  H98   S    
C33   H149  S    
C2    C66   S    
C27   H155  S    
C185  C189  S    
C28   H156  S    
C136  C167  S    
C57   C101  S    
C79   C124  S    
C109  H63   S    
C50   H153  S    
C110  H64   S    
C51   H152  S    
C88   H198  S    
C159  H46   S    
C107  H55   S    
C49   H150  S    
C170  C196  T    
C212  Cl17  S    
C99   H33   S    
C97   H25   S    
O15   Zn6   S    
C74   C115  S    
C3    Cl16  S    
C35   H146  S    
C35   C79   S    
C199  C208  T    
O1    Zn16  S    
C118  H85   S    
C46   H157  S    
O35   Zn15  S    
O36   Zn5   S    
C87   C162  S    
C117  H81   S    
C45   C55   S    
O7    Zn14  S    
C87   H196  S    
C67   H117  S    
C182  C195  S    
C17   C97   S    
C204  O25   A    
C3    C16   S    
C78   C149  S    
C174  C192  S    
C92   H10   S    
C127  H110  S    
C1    O5    A    
O41   Zn2   S    
C10   C42   S    
O3    Zn7   S    
C3    C212  S    
C30   H145  S    
C115  H75   S    
C26   C106  S    
C197  C206  T    
C91   H7    S    
C123  H100  S    
O10   Zn2   S    
O8    Zn15  S    
C26   C27   S    
C171  C188  S    
C160  C164  S    
C28   C29   S    
C105  H49   S    
C205  O26   A    
C46   C66   S    
C139  C191  T    
C30   C31   S    
C132  H164  S    
C24   C73   S    
C35   C65   S    
C84   H185  S    
C71   C110  S    
C201  O22   A    
C136  O16   A    
C18   C96   S    
C211  H142  S    
C182  C186  S    
O23   Zn7   S    
O24   Zn13  S    
C46   H112  S    
C178  Cl13  S    
C48   H151  S    
C156  O21   A    
C43   C53   S    
C65   C202  S    
C68   C69   S    
C42   O30   A    
C168  C195  T    
C100  H37   S    
C2    C132  S    
O30   Zn4   S    
C75   H160  S    
C178  C183  S    
C68   C113  S    
C3    H144  S    
C104  H47   S    
C111  H67   S    
C198  C207  T    
C72   C111  S    
C116  H78   S    
C125  H106  S    
O50   Zn10  S    
C128  Cl29  S    
O22   Zn12  S    
C123  H102  S    
C176  C181  S    
C80   H173  S    
C35   H1    S    
C153  O18   A    
C102  H40   S    
O38   Zn7   S    
C40   O2    A    
C155  C208  S    
C189  H120  S    
C99   H31   S    
C97   H27   S    
C111  H70   S    
C98   H28   S    
O44   Zn1   S    
C80   C150  S    
C62   O46   A    
C183  C187  S    
O12   Zn9   S    
C73   C104  S    
C60   O43   A    
C117  H83   S    
C161  H68   S    
C50   C51   S    
O20   Zn10  S    
C177  Cl11  S    
C5    C14   S    
C47   C54   S    
C184  Cl5   S    
O1    Zn1   S    
O52   Zn5   S    
C188  Cl32  S    
O23   Zn14  S    
O12   Zn2   S    
C61   O44   A    
C91   H5    S    
C96   H21   S    
C129  C133  S    
C100  H34   S    
C58   O32   A    
C78   H170  S    
C4    H132  S    
C140  C144  T    
C83   H183  S    
C86   H193  S    
C101  C138  S    
C93   H11   S    
C46   C90   S    
C172  C189  S    
C79   C135  S    
C186  Cl7   S    
C174  C200  S    
C76   C117  S    
O4    Zn8   S    
C32   C33   S    
C12   C210  S    
C16   C19   S    
C156  O13   A    
C68   H135  S    
C64   O39   A    
C106  H53   S    
C105  H48   S    
O16   Zn7   S    
C164  C182  S    
C56   O40   A    
C93   H14   S    
C108  H59   S    
C74   H159  S    
C94   H17   S    
C136  O7    A    
C185  H129  S    
C29   H158  S    
C45   C51   S    
C80   H171  S    
C187  H131  S    
C75   C116  S    
O47   Zn10  S    
C177  H13   S    
C82   C152  S    
C4    C92   S    
C162  H79   S    
C150  C176  S    
C151  C173  S    
C12   C22   S    
C81   H175  S    
C210  Cl15  S    
C102  H38   S    
C72   C76   S    
C138  C180  T    
C119  H87   S    
C147  O8    A    
C151  H126  S    
C127  H111  S    
C67   Cl23  S    
O13   Zn4   S    
O1    Zn12  S    
C95   H20   S    
C60   C158  S    
C121  H95   S    
C89   H200  S    
C9    C22   T    
C1    O14   A    
C112  C168  S    
C60   O35   A    
C155  O11   A    
C151  C177  S    
O5    Zn12  S    
O27   Zn16  S    
C34   C52   T    
C6    C15   S    
C95   H18   S    
C103  H41   S    
C76   C101  S    
C84   H184  S    
C164  H101  S    
C125  C128  S    
C27   C105  S    
C63   O38   A    
C62   O37   A    
C137  C169  T    
C39   O27   A    
C152  C174  S    
C96   H23   S    
C61   O36   A    
C135  C158  T    
C100  H36   S    
C87   H194  S    
C128  C132  S    
C86   H191  S    
C70   C100  S    
C24   C69   S    
C127  H114  S    
O28   Zn2   S    
C28   C45   S    
O2    Zn6   S    
C31   C44   S    
O23   Zn3   S    
C50   Cl26  S    
C122  H99   S    
C66   Cl12  S    
C120  H93   S    
C181  C185  S    
C43   C49   S    
C175  C179  S    
C120  H91   S    
C109  H62   S    
C184  C188  S    
C110  H65   S    
C82   H177  S    
C103  H42   S    
C147  C166  S    
C69   Cl27  S    
C130  Cl31  S    
C94   H15   S    
C34   C203  S    
C8    C21   T    
C20   C98   S    
C51   Cl25  S    
C162  C179  S    
C48   Cl24  S    
C37   C54   T    
C26   C43   S    
C155  O20   A    
C87   H195  S    
C154  O10   A    
C167  C194  T    
C159  C163  S    
C17   H138  S    
O18   Zn1   S    
C116  H80   S    
C19   H140  S    
C85   H188  S    
C81   H174  S    
C13   C67   S    
O37   Zn6   S    
C6    H134  S    
C126  H107  S    
C48   C49   S    
C120  C132  S    
C29   C107  S    
C114  H71   S    
C5    C93   S    
C10   C23   T    
C88   C163  S    
C7    C95   S    
C192  H122  S    
C154  O19   A    
C89   H4    S    
C30   Cl18  S    
O43   Zn4   S    
C127  C130  S    
C118  H84   S    
C171  C197  S    
C39   O52   A    
C188  H119  S    
O6    Zn13  S    
C84   H186  S    
C11   C41   S    
O23   Zn10  S    
C152  C178  S    
C57   H168  S    
C189  Cl2   S    
C41   O3    A    
C153  C206  S    
C20   H139  S    
C204  O50   A    
C210  C211  S    
C12   C18   S    
C2    C141  S    
C90   C128  S    
C121  C133  S    
C192  Cl4   S    
C101  C129  S    
C108  H58   S    
