data_mof_unit_6764.cif
_audit_creation_date              2013-03-05T15:43:18-0500
_audit_creation_method            fapswitch 2.2
_symmetry_space_group_name_H-M    P1
_symmetry_Int_Tables_number       1
_space_group_crystal_system       triclinic
_cell_length_a                    10.674586
_cell_length_b                    10.655794
_cell_length_c                    10.056512
_cell_angle_alpha                 91.148301
_cell_angle_beta                  91.695377
_cell_angle_gamma                 89.788848
_cell_volume                      1143.15408584

loop_
_atom_site_label
_atom_site_type_symbol
_atom_site_description
_atom_site_fract_x
_atom_site_fract_y
_atom_site_fract_z
_atom_type_partial_charge
O1    O     O_R   0.499980 0.319060 0.613040 -0.590128
O2    O     O_R   0.500020 0.319100 0.386900 -0.579515
C1    C     C_R   0.500210 0.262515 0.498360 0.990072
O3    O     O_R   0.316750 0.499980 0.613090 -0.611828
O4    O     O_R   0.316790 0.500020 0.386950 -0.569905
C2    C     C_R   0.261244 0.518071 0.498483 0.889726
Zn1   Zn    Zn3+2 0.499970 0.499970 0.650990 1.130028
Zn2   Zn    Zn3+2 0.500030 0.500030 0.349010 1.174182
O5    O     O_R   0.499980 0.680900 0.613100 -0.548505
O6    O     O_R   0.500020 0.680940 0.386960 -0.572909
O7    O     O_R   0.683210 0.499980 0.613050 -0.559950
O8    O     O_R   0.683250 0.500020 0.386910 -0.591428
C3    C     C_R   0.509384 0.737185 0.502065 1.002598
C4    C     C_R   0.741039 0.493227 0.502626 0.953703
C5    C     C_R   0.120327 0.642902 0.723079 0.127143
C6    C     C_R   0.063598 0.641282 0.847359 0.519378
C7    C     C_R   0.959567 0.565925 0.865518 0.531170
C8    C     C_R   0.903532 0.501619 0.757687 0.510131
C9    C     C_R   0.946983 0.518949 0.627511 -0.190782
C10   C     C_R   0.066531 0.570789 0.615122 -0.200669
C11   C     C_R   0.128068 0.546699 0.494872 -0.071653
C12   C     C_R   0.058423 0.520316 0.377333 0.260936
H1    H     H_    0.881202 0.474021 0.292989 0.245417
C13   C     C_R   0.934053 0.491114 0.385251 -0.129523
C14   C     C_R   0.876688 0.490947 0.508239 -0.019414
C15   C     C_2   0.590409 0.932190 0.415568 0.207878
C16   C     C_2   0.534507 0.868667 0.511061 -0.402009
H2    H     H_    0.510220 0.914351 0.604454 0.199425
C17   C     C_2   0.597867 0.068986 0.429961 0.263925
C18   C     C_2   0.504661 0.129625 0.492018 -0.402436
H3    H     H_    0.422793 0.082343 0.528024 0.161192
C19   C     C_2   0.559228 0.582517 0.927990 0.676362
N1    N     N_2   0.501340 0.501330 0.852150 -0.224535
H4    H     H_    0.482408 0.415612 0.891997 0.148980
C20   C     C_2   0.574603 0.567551 0.075806 0.622645
N2    N     N_2   0.501380 0.501360 0.147810 -0.111704
N3    N     N_R   0.109806 0.534373 0.248817 0.269744
O9    O     O_R   0.083968 0.452805 0.154082 -0.241937
O10   O     O_R   0.163255 0.639718 0.220688 -0.213351
F1    F     F_    0.614045 0.682494 0.871918 -0.561670
F2    F     F_    0.673219 0.626642 0.136984 -0.527920
N4    N     N_R   0.385832 0.463981 0.092931 0.208772
O11   O     O_R   0.338608 0.357967 0.128519 -0.284523
O12   O     O_R   0.314198 0.543412 0.029507 -0.317487
N5    N     N_R   0.221849 0.728458 0.703233 0.257402
O13   O     O_R   0.227307 0.789487 0.592749 -0.385464
O14   O     O_R   0.300993 0.756279 0.800177 -0.248973
F3    F     F_    0.108280 0.713417 0.950704 -0.479768
F4    F     F_    0.909396 0.558652 0.987389 -0.509867
F5    F     F_    0.816639 0.413512 0.784054 -0.570694
N6    N     N_R   0.649606 0.868972 0.306875 0.278946
O15   O     O_R   0.744473 0.794850 0.330481 -0.280638
O16   O     O_R   0.619096 0.897276 0.184887 -0.224561
N7    N     N_R   0.706903 0.134451 0.386551 0.229554
O17   O     O_R   0.755448 0.107010 0.272463 -0.252056
O18   O     O_R   0.766850 0.210554 0.468440 -0.383510

loop_
_geom_bond_atom_site_label_1
_geom_bond_atom_site_label_2
_geom_bond_distance
_ccdc_geom_bond_type
C7    C8    1.392163 A    
O4    Zn2   2.003926 S    
H1    C13   1.084132 S    
C17   C18   1.346376 D    
C12   N3    1.429664 S    
C1    C18   1.416887 S    
N2    N4    1.392519 S    
C20   N2    1.300296 D    
Zn2   O8    1.981491 S    
C17   N7    1.442279 S    
C19   N1    1.289014 D    
C6    F3    1.356392 S    
C9    C10   1.402334 A    
N5    O14   1.301394 A    
N1    H4    1.027872 S    
N3    O10   1.301008 A    
O1    Zn1   1.957638 S    
C15   N6    1.433912 S    
C13   C14   1.396297 A    
Zn1   O7    2.003927 S    
Zn1   N1    2.022349 S    
C15   C16   1.341434 D    
O4    C2    1.294795 A    
N4    O12   1.302279 A    
O3    Zn1   1.981490 S    
C9    C14   1.422971 A    
Zn2   O6    1.957638 S    
N3    O9    1.300846 A    
O8    C4    1.304046 A    
O2    C1    1.283331 A    
N7    O18   1.300451 A    
C19   F1    1.357755 S    
C4    C14   1.447557 S    
C18   H3    1.085340 S    
C20   F2    1.354312 S    
O7    C4    1.287030 A    
C12   C13   1.369660 A    
C6    C7    1.391318 A    
N4    O11   1.299773 A    
C5    N5    1.439707 S    
N6    O15   1.301178 A    
C19   C20   1.502314 S    
N5    O13   1.301489 A    
C10   C11   1.411769 A    
C8    F5    1.357591 S    
C15   C17   1.464174 S    
O3    C2    1.297781 A    
C8    C9    1.417487 A    
Zn2   N2    2.024181 S    
C7    F4    1.355681 S    
C16   H2    1.086944 S    
Zn1   O5    1.972725 S    
O5    C3    1.284744 A    
N7    O17   1.300381 A    
C3    C16   1.428029 S    
N6    O16   1.300953 A    
C11   C12   1.401843 A    
C2    C11   1.452415 S    
O2    Zn2   1.972725 S    
C5    C6    1.405268 A    
C5    C10   1.425422 A    
O1    C1    1.290505 A    
O6    C3    1.294186 A    
