data_mof_unit_51245.cif
_audit_creation_date              2012-12-11T18:09:12-0500
_audit_creation_method            fapswitch 2.2
_symmetry_space_group_name_H-M    P1
_symmetry_Int_Tables_number       1
_space_group_crystal_system       triclinic
_cell_length_a                    8.325868
_cell_length_b                    12.768942
_cell_length_c                    19.033323
_cell_angle_alpha                 99.322206
_cell_angle_beta                  91.491781
_cell_angle_gamma                 98.22196
_cell_volume                      1973.72377718

loop_
_atom_site_label
_atom_site_type_symbol
_atom_type_description
_atom_site_fract_x
_atom_site_fract_y
_atom_site_fract_z
_atom_type_partial_charge
Ba1   Ba    Ba6+2 0.853180 0.547790 0.465300 1.676588
Ba2   Ba    Ba6+2 0.336650 0.452300 0.534710 1.663946
C1    C     C_3   0.496697 0.903327 0.266896 -0.342587
C2    C     C_3   0.547789 0.815956 0.304642 0.292982
C3    C     C_3   0.454299 0.257351 0.317974 0.272298
C4    C     C_3   0.412108 0.206558 0.240645 -0.390098
C5    C     C_3   0.051162 0.218875 0.734993 0.333537
C6    C     C_3   0.085733 0.187141 0.806997 -0.364633
C7    C     C_3   0.524378 0.186121 0.722439 0.363331
C8    C     C_3   0.538363 0.116116 0.779172 -0.402241
C9    C     C_R   0.064647 0.549169 0.800968 -0.149393
C10   C     C_R   0.022945 0.539864 0.726904 0.055778
C11   C     C_R   0.852786 0.401509 0.806891 -0.170093
C12   C     C_3   0.015151 0.807896 0.278827 0.278176
C13   C     C_R   0.785533 0.418388 0.742527 0.001132
C14   C     C_R   0.345793 0.558202 0.181450 -0.021134
C15   C     C_R   0.410307 0.555757 0.249553 0.038488
C16   C     C_R   0.143414 0.409883 0.195448 -0.108077
C17   C     C_R   0.177930 0.437059 0.270219 0.063378
C18   C     C_R   0.985945 0.473505 0.842677 0.001598
C19   C     C_R   0.878231 0.477650 0.699819 -0.238884
C20   C     C_R   0.217699 0.478372 0.148806 0.083350
C21   C     C_R   0.320804 0.501923 0.295483 -0.251598
C22   C     C_R   0.764613 0.403898 0.958170 -0.175704
C23   C     C_3   0.950950 0.883526 0.233855 -0.319116
C24   C     C_R   0.663446 0.359400 0.005832 -0.051361
C25   C     C_R   0.713235 0.373856 0.076807 0.393147
C26   C     C_R   0.869679 0.426939 0.097697 -0.132044
C27   C     C_R   0.988951 0.445033 0.047550 -0.000752
C28   C     C_R   0.932927 0.438448 0.974279 0.035135
C29   C     C_R   0.157455 0.473791 0.070119 0.021175
C30   C     C_R   0.267150 0.499446 0.016254 0.040811
C31   C     C_R   0.210810 0.492560 0.943312 0.012430
C32   C     C_R   0.042696 0.467748 0.920815 0.002131
C33   C     C_R   0.436466 0.530546 0.031909 -0.076784
C34   C     C_3   0.238760 0.790304 0.623656 0.314559
C35   C     C_R   0.538077 0.572903 0.983672 -0.084466
C36   C     C_R   0.486176 0.557007 0.912998 -0.062280
C37   C     C_R   0.329300 0.505976 0.892789 -0.073256
C38   C     C_R   0.752314 0.186935 0.540066 -0.266511
C39   C     C_R   0.427212 0.812858 0.480033 -0.335606
C40   C     C_R   0.394546 0.988929 0.459690 -0.077535
C41   C     C_R   0.332077 0.880849 0.455749 0.025820
C42   C     C_R   0.576000 0.853070 0.516891 0.086285
C43   C     C_R   0.637016 0.965559 0.528168 -0.061994
C44   C     C_R   0.546092 0.033053 0.495738 -0.129881
C45   C     C_3   0.285048 0.910860 0.646117 -0.359158
C46   C     C_R   0.608230 0.143095 0.500538 0.036871
C47   C     C_R   0.846366 0.122389 0.570010 -0.056553
C48   C     C_R   0.784565 0.013400 0.568932 0.341966
C49   C     C_3   0.907797 0.217935 0.376464 0.658030
C50   C     C_3   0.844516 0.099673 0.351832 -0.400284
C51   C     C_3   0.727179 0.697816 0.677612 0.327691
C52   C     C_3   0.747700 0.729044 0.758304 -0.383091
H1    H     H_    0.624796 0.854051 0.353156 0.030508
H2    H     H_    0.393798 0.927254 0.683233 0.096868
H3    H     H_    0.312780 0.950321 0.599376 0.083142
H4    H     H_    0.183713 0.945520 0.673321 0.162662
H5    H     H_    0.803364 0.261986 0.381222 0.053399
H6    H     H_    0.781796 0.090081 0.298607 0.099727
H7    H     H_    0.759115 0.067211 0.389035 0.072475
H8    H     H_    0.948688 0.054136 0.348807 0.122202
H9    H     H_    0.841796 0.674813 0.656645 0.000023
H10   H     H_    0.627750 0.628897 0.664773 0.077884
H11   H     H_    0.441519 0.961616 0.304943 0.125348
H12   H     H_    0.851832 0.794576 0.772903 0.122514
H13   H     H_    0.770470 0.659168 0.782820 0.061271
H14   H     H_    0.635428 0.756750 0.779806 0.126780
H15   H     H_    0.434605 0.770184 0.320823 -0.021148
H16   H     H_    0.407068 0.867389 0.222597 0.169162
H17   H     H_    0.343366 0.284858 0.341043 0.051161
H18   H     H_    0.551544 0.327302 0.319825 0.034029
H19   H     H_    0.312779 0.137671 0.237698 0.130683
H20   H     H_    0.371229 0.266349 0.210699 0.103909
H21   H     H_    0.520371 0.177612 0.215786 0.138950
H22   H     H_    0.601267 0.946668 0.243748 0.105571
H23   H     H_    0.888095 0.838618 0.183313 0.118031
H24   H     H_    0.097456 0.305563 0.737671 0.057721
H25   H     H_    0.917563 0.203237 0.723988 -0.072541
H26   H     H_    0.216473 0.209777 0.823310 0.149358
H27   H     H_    0.014761 0.228934 0.848288 0.072218
H28   H     H_    0.051060 0.099167 0.803939 0.112608
H29   H     H_    0.646279 0.201309 0.700385 -0.098767
H30   H     H_    0.440484 0.141065 0.678007 0.083469
H31   H     H_    0.610282 0.163310 0.826726 0.115479
H32   H     H_    0.600945 0.047320 0.757951 0.086048
H33   H     H_    0.912647 0.771941 0.307303 0.066092
H34   H     H_    0.415762 0.085051 0.795200 0.123555
H35   H     H_    0.162399 0.611293 0.823993 0.075876
H36   H     H_    0.798725 0.331741 0.827604 0.062583
H37   H     H_    0.396887 0.623542 0.155412 0.094138
H38   H     H_    0.050682 0.342402 0.175883 0.036854
H39   H     H_    0.831960 0.480305 0.646581 0.054338
H40   H     H_    0.361682 0.511772 0.350951 0.057243
H41   H     H_    0.701544 0.416745 0.911620 0.095338
H42   H     H_    0.538382 0.326498 0.989347 0.098224
H43   H     H_    0.893489 0.455333 0.153448 0.152640
H44   H     H_    0.497982 0.518053 0.079205 0.096183
H45   H     H_    0.663992 0.604418 0.999211 0.088768
H46   H     H_    0.572083 0.576765 0.873871 0.100510
H47   H     H_    0.300655 0.475934 0.837472 0.129264
H48   H     H_    0.321639 0.037086 0.434630 0.123480
H49   H     H_    0.798960 0.271055 0.542279 0.108821
H50   H     H_    0.381010 0.727942 0.472803 0.066211
H51   H     H_    0.859628 0.923950 0.263021 0.099273
H52   H     H_    0.050918 0.943970 0.221052 0.130135
H53   H     H_    0.348313 0.755541 0.606048 -0.004659
H54   H     H_    0.144479 0.774372 0.579387 0.070705
O1    O     O_2   0.875110 0.423180 0.326290 -0.508339
O2    O     O_3   0.689952 0.786159 0.649062 -0.598462
O3    O     O_3   0.141055 0.864911 0.326395 -0.661277
O4    O     O_2   0.314600 0.576860 0.673750 -0.457599
O5    O     O_3   0.066300 0.567050 0.585060 -0.497411
O6    O     O_3   0.528700 0.375020 0.630330 -0.464228
O7    O     O_3   0.178795 0.747906 0.682518 -0.635241
O8    O     O_3   0.611760 0.365720 0.463870 -0.483172
O9    O     O_3   0.107460 0.315620 0.594570 -0.440305
O10   O     O_2   0.175988 0.122112 0.548035 -0.470243
O11   O     O_3   0.130139 0.158081 0.682546 -0.605212
O12   O     O_3   0.123410 0.433040 0.414950 -0.435220
O13   O     O_3   0.577950 0.634370 0.536140 -0.511892
O14   O     O_2   0.341900 0.231310 0.465740 -0.452405
O15   O     O_3   0.508524 0.180464 0.354059 -0.660834
O16   O     O_2   0.488973 0.488146 0.751334 -0.507851
O17   O     O_3   0.461843 0.279588 0.752520 -0.587643
O18   O     O_3   0.661010 0.625070 0.369680 -0.488739
O19   O     O_2   0.733866 0.562455 0.235613 -0.502552
O20   O     O_3   0.010011 0.252318 0.325275 -0.656049
O21   O     O_3   0.638694 0.751904 0.258788 -0.619905
O22   O     O_2   0.847800 0.768730 0.534310 -0.415639
O23   O     O_3   0.082250 0.684470 0.405440 -0.520852
O24   O     O_2   0.995865 0.880471 0.447480 -0.471021
P1    P     P_3+3 0.042930 0.392230 0.337410 0.989448
P2    P     P_3+3 0.672230 0.754900 0.555730 1.038230
P3    P     P_3+3 0.132949 0.825110 0.410902 0.918693
P4    P     P_3+3 0.146790 0.607860 0.662600 0.978240
P5    P     P_3+3 0.061838 0.178892 0.598946 1.000289
P6    P     P_3+3 0.611750 0.622323 0.279405 0.915055
P7    P     P_3+3 0.522381 0.229335 0.445654 0.935322
P8    P     P_3+3 0.567233 0.389423 0.720923 0.941592
O25   O     O_3   0.993000 0.234278 0.442446 -0.721419
H55   H     H_    0.065589 0.179175 0.439676 0.322239
O26   O     O_3   0.602641 0.343609 0.125141 -0.756265
H56   H     H_    0.658172 0.356600 0.173149 0.302995
C53   C     C_2   0.080078 0.721758 0.229830 0.839167
O27   O     O_2   0.155427 0.742436 0.178361 -0.618893
O28   O     O_R   0.050841 0.616798 0.241187 -0.769006
H57   H     H_    0.999784 0.608504 0.287698 0.311887
O29   O     O_3   0.867197 0.954714 0.607891 -0.696094
H58   H     H_    0.915571 0.001818 0.651945 0.288776

loop_
_geom_bond_atom_site_label_1
_geom_bond_atom_site_label_2
_ccdc_geom_bond_type
C51   O2    S    
C26   H43   S    
C8    H31   S    
C47   P5    S    
C11   H36   S    
C34   H54   S    
C51   H9    S    
O28   H57   S    
C53   O27   D    
C23   H51   S    
C4    H21   S    
O22   P2    D    
C51   C52   S    
C12   C53   S    
C8    H34   S    
C24   C25   A    
C31   C37   A    
C23   H23   S    
C49   O20   S    
C26   C27   A    
C33   C35   A    
C22   C24   A    
O14   P7    D    
Ba1   Ba2   S    
C3    H18   S    
O23   P3    S    
C50   H7    S    
C36   C37   A    
C51   H10   S    
O29   H58   S    
C52   H14   S    
O7    P4    S    
C38   C47   A    
O15   P7    S    
C34   C45   S    
O12   P1    S    
C40   C44   A    
C50   H6    S    
Ba1   O1    S    
Ba2   O8    S    
O18   P6    S    
O21   P6    S    
C14   C15   A    
O5    P4    S    
C25   O26   S    
C4    H20   S    
C15   P6    S    
O19   P6    D    
O6    P8    S    
O13   P2    S    
C33   H44   S    
C7    C8    S    
C11   C18   A    
O8    P7    S    
C18   C32   S    
C49   O25   S    
C34   H53   S    
C42   P2    S    
C39   C41   A    
C1    H11   S    
Ba1   O5    S    
O4    P4    D    
Ba1   P1    S    
C40   H48   S    
C2    H15   S    
C53   O28   S    
Ba2   O9    S    
C23   H52   S    
C37   H47   S    
C22   C28   A    
Ba2   O14   S    
O17   P8    S    
C24   H42   S    
C12   O3    S    
C44   C46   A    
C9    C18   A    
C20   C29   S    
C28   C32   A    
O1    P1    D    
C49   C50   S    
O11   P5    S    
C30   C33   A    
C5    O11   S    
C5    C6    S    
C1    H16   S    
Ba1   O18   S    
C36   H46   S    
Ba1   O22   S    
C22   H41   S    
Ba2   O12   S    
C16   C17   A    
C52   H13   S    
C43   C44   A    
C10   C19   A    
Ba2   P4    S    
C6    H27   S    
Ba1   O12   S    
C17   C21   A    
C35   C36   A    
C45   H3    S    
C9    H35   S    
C29   C30   A    
Ba2   O4    S    
C31   C32   A    
C15   C21   A    
C41   P3    S    
C1    H22   S    
C7    H29   S    
C5    H24   S    
Ba1   O8    S    
C11   C13   A    
C2    H1    S    
C39   C42   A    
C6    H28   S    
O2    P2    S    
C49   H5    S    
C40   C41   A    
C1    C2    S    
O10   P5    D    
C35   H45   S    
C42   C43   A    
C4    H19   S    
C5    H25   S    
C13   P8    S    
Ba2   O13   S    
C38   C46   A    
C8    H32   S    
C14   C20   A    
C46   P7    S    
C16   C20   A    
O16   P8    D    
O9    P5    S    
Ba1   O23   S    
C12   H33   S    
C9    C10   A    
C21   H40   S    
C2    O21   S    
C52   H12   S    
C17   P1    S    
C3    O15   S    
C39   H50   S    
C16   H38   S    
C30   C31   A    
O26   H56   S    
C3    H17   S    
C50   H8    S    
O25   H55   S    
C38   H49   S    
Ba2   O6    S    
C48   O29   S    
O3    P3    S    
C3    C4    S    
C19   H39   S    
C43   C48   A    
O24   P3    D    
Ba2   O5    S    
C12   C23   S    
Ba1   O13   S    
C7    H30   S    
C27   C28   A    
C7    O17   S    
C13   C19   A    
C14   H37   S    
C27   C29   A    
C47   C48   A    
C10   P4    S    
C25   C26   A    
C6    H26   S    
O20   P1    S    
C34   O7    S    
Ba1   P2    S    
C45   H2    S    
C45   H4    S    
