data_mof_unit_29212.cif
_audit_creation_date              2012-12-11T17:43:20-0500
_audit_creation_method            fapswitch 2.2
_symmetry_space_group_name_H-M    P1
_symmetry_Int_Tables_number       1
_space_group_crystal_system       triclinic
_cell_length_a                    14.882664
_cell_length_b                    15.022611
_cell_length_c                    16.986363
_cell_angle_alpha                 109.413531
_cell_angle_beta                  106.324426
_cell_angle_gamma                 108.391046
_cell_volume                      3066.61107977

loop_
_atom_site_label
_atom_site_type_symbol
_atom_type_description
_atom_site_fract_x
_atom_site_fract_y
_atom_site_fract_z
_atom_type_partial_charge
C1    C     C_R   0.083667 0.290798 0.084318 -0.137289
C2    C     C_R   0.908297 0.723997 0.973893 -0.120299
C3    C     C_R   0.025601 0.577658 0.744330 0.068729
C4    C     C_R   0.970654 0.533303 0.274437 0.059510
C5    C     C_R   0.758104 0.195156 0.725292 0.057661
C6    C     C_R   0.339958 0.777696 0.253294 0.070234
C7    C     C_R   0.295551 0.463207 0.970178 0.059913
C8    C     C_R   0.634827 0.427187 0.930849 0.068437
C9    C     C_R   0.899540 0.932314 0.050940 -0.237183
C10   C     C_R   0.082696 0.119680 0.138183 -0.258119
C11   C     C_R   0.996070 0.928291 0.074539 0.063221
C12   C     C_R   0.988473 0.117719 0.091022 0.048283
C13   C     C_R   0.090133 0.026032 0.125008 0.053235
C14   C     C_R   0.894265 0.026277 0.059016 0.054524
C15   C     C_R   0.703015 0.950018 0.955128 -0.267943
C16   C     C_R   0.268237 0.093097 0.249669 -0.260035
C17   C     C_R   0.596454 0.031043 0.000910 -0.151979
C18   C     C_R   0.412159 0.086324 0.211608 -0.147176
C19   C     C_R   0.440418 0.371776 0.194955 -0.132919
C20   C     C_R   0.529538 0.398906 0.641376 -0.129040
C21   C     C_R   0.458912 0.395321 0.126552 -0.160671
C22   C     C_R   0.505630 0.378523 0.709276 -0.150797
C23   C     C_R   0.934454 0.517936 0.746348 -0.139643
C24   C     C_R   0.063994 0.548555 0.265493 -0.128665
C25   C     C_R   0.386469 0.329305 0.033394 0.110650
C26   C     C_R   0.489164 0.451388 0.773674 0.119167
C27   C     C_R   0.299357 0.237164 0.008136 -0.182089
C28   C     C_R   0.495624 0.544344 0.767874 -0.175681
C29   C     C_R   0.278938 0.216959 0.076745 -0.115940
C30   C     C_R   0.519145 0.564115 0.699381 -0.113903
C31   C     C_R   0.349316 0.283642 0.170195 -0.080646
C32   C     C_R   0.536229 0.491532 0.636264 -0.086928
C33   C     C_R   0.472538 0.333727 0.935196 -0.234122
C34   C     C_R   0.385611 0.445349 0.866345 -0.235376
C35   C     C_R   0.520362 0.387923 0.894957 0.044164
C36   C     C_R   0.360108 0.420398 0.932634 0.065758
C37   C     C_R   0.466448 0.429703 0.846829 0.033444
C38   C     C_R   0.401054 0.357997 0.962634 0.031114
C39   C     C_R   0.605638 0.952021 0.935527 0.311767
C40   C     C_R   0.375515 0.119512 0.278311 0.304100
C41   C     C_R   0.960532 0.576247 0.360963 0.132327
C42   C     C_R   0.032514 0.617646 0.677164 0.126865
C43   C     C_R   0.136790 0.691565 0.607322 -0.219804
C44   C     C_R   0.854374 0.555044 0.444634 -0.229094
C45   C     C_R   0.775485 0.202089 0.812279 -0.132803
C46   C     C_R   0.283072 0.781758 0.175668 -0.155504
C47   C     C_R   0.130709 0.674668 0.681669 -0.173884
C48   C     C_R   0.861557 0.541219 0.361972 -0.174455
C49   C     C_R   0.940480 0.589423 0.602355 -0.282496
C50   C     C_R   0.051210 0.639839 0.444864 -0.277896
C51   C     C_R   0.946023 0.601150 0.525874 0.191486
C52   C     C_R   0.045042 0.648428 0.526959 0.186520
C53   C     C_R   0.717281 0.097978 0.639378 0.132340
C54   C     C_R   0.450646 0.847989 0.319103 0.132454
C55   C     C_R   0.600324 0.019715 0.390028 -0.245949
C56   C     C_R   0.613891 0.907654 0.554995 -0.228301
C57   C     C_R   0.508642 0.938043 0.313769 -0.181551
C58   C     C_R   0.680004 0.998869 0.638228 -0.172103
C59   C     C_R   0.494767 0.832601 0.395039 -0.281419
C60   C     C_R   0.702283 0.102728 0.555796 -0.284218
C61   C     C_R   0.583067 0.915562 0.472984 0.192381
C62   C     C_R   0.632234 0.012301 0.472350 0.194079
C63   C     C_R   0.683367 0.107153 0.084475 -0.174157
C64   C     C_R   0.343501 0.029989 0.117717 -0.152379
C65   C     C_R   0.780170 0.105241 0.103569 -0.144040
C66   C     C_R   0.237966 0.007643 0.089351 -0.181936
C67   C     C_R   0.263231 0.535432 0.952231 -0.122370
C68   C     C_R   0.695449 0.399954 0.988398 -0.135260
C69   C     C_R   0.791007 0.027121 0.038757 0.088547
C70   C     C_R   0.198885 0.037753 0.155102 0.073871
C71   C     C_R   0.781151 0.296478 0.734368 -0.129629
C72   C     C_R   0.275371 0.687557 0.252066 -0.136185
C73   C     C_R   0.256137 0.441677 0.030729 -0.139516
C74   C     C_R   0.703353 0.497806 0.915250 -0.143558
C75   C     C_R   0.108107 0.602323 0.823662 -0.143138
C76   C     C_R   0.888988 0.462863 0.187070 -0.135233
C77   C     C_R   0.911717 0.205908 0.003166 -0.142622
C78   C     C_R   0.080934 0.803718 0.058766 -0.143930
C79   C     C_R   0.994156 0.200877 0.060496 0.061426
C80   C     C_R   0.994381 0.822675 0.039848 0.052124
H1    H     H_    0.161033 0.321010 0.137731 0.096870
H2    H     H_    0.826851 0.706774 0.942979 0.094223
H3    H     H_    0.710948 0.889925 0.904613 0.118481
H4    H     H_    0.239456 0.119864 0.300418 0.126974
H5    H     H_    0.333137 0.268639 0.223752 0.120226
H6    H     H_    0.554794 0.507116 0.583519 0.102376
H7    H     H_    0.494995 0.423191 0.267016 0.112366
H8    H     H_    0.543096 0.342710 0.593069 0.119121
H9    H     H_    0.527744 0.465827 0.145933 0.119347
H10   H     H_    0.500769 0.306247 0.712103 0.117840
H11   H     H_    0.243565 0.185907 0.936288 0.124693
H12   H     H_    0.484431 0.602338 0.817160 0.104749
H13   H     H_    0.206108 0.151347 0.055858 0.133651
H14   H     H_    0.524678 0.635996 0.695511 0.102601
H15   H     H_    0.503703 0.287960 0.961139 0.124996
H16   H     H_    0.345732 0.480104 0.832034 0.123145
H17   H     H_    0.127860 0.672335 0.446051 0.118334
H18   H     H_    0.863992 0.548640 0.598588 0.116356
H19   H     H_    0.789698 0.496176 0.298842 0.115404
H20   H     H_    0.203297 0.700546 0.739504 0.115755
H21   H     H_    0.213282 0.729547 0.609536 0.125854
H22   H     H_    0.777698 0.520574 0.443290 0.128401
H23   H     H_    0.854940 0.497491 0.703174 0.088142
H24   H     H_    0.143225 0.598178 0.318750 0.095071
H25   H     H_    0.734996 0.177730 0.555220 0.122189
H26   H     H_    0.454646 0.761667 0.399087 0.114334
H27   H     H_    0.694335 0.991510 0.701181 0.115187
H28   H     H_    0.479989 0.948925 0.253621 0.120829
H29   H     H_    0.639673 0.092222 0.387453 0.133104
H30   H     H_    0.578815 0.833096 0.555957 0.126172
H31   H     H_    0.521905 0.033528 0.987174 0.111901
H32   H     H_    0.494420 0.105683 0.232287 0.111087
H33   H     H_    0.675699 0.167831 0.134534 0.124449
H34   H     H_    0.372678 0.006005 0.066718 0.120240
H35   H     H_    0.846870 0.164959 0.168600 0.123147
H36   H     H_    0.186459 0.967630 0.016072 0.125743
H37   H     H_    0.765944 0.139177 0.831192 0.096194
H38   H     H_    0.313851 0.832666 0.147551 0.102537
H39   H     H_    0.279797 0.571409 0.909291 0.090702
H40   H     H_    0.668043 0.337351 0.006448 0.090959
H41   H     H_    0.776158 0.320909 0.681003 0.095631
H42   H     H_    0.297855 0.650145 0.293215 0.085390
H43   H     H_    0.262333 0.392020 0.062148 0.136482
H44   H     H_    0.684754 0.528902 0.867553 0.116061
H45   H     H_    0.188728 0.660223 0.851908 0.082842
H46   H     H_    0.805738 0.433497 0.167174 0.095400
H47   H     H_    0.829295 0.157076 0.977791 0.119983
H48   H     H_    0.157446 0.854187 0.114232 0.136163
H49   H     H_    0.827286 0.861415 0.023071 0.126470
H50   H     H_    0.153744 0.193159 0.175516 0.122308
N1    N     N_R   0.055660 0.348550 0.045620 -0.040183
N2    N     N_R   0.944340 0.651450 0.954380 -0.039944
N3    N     N_R   0.960830 0.507850 0.823700 -0.038343
N4    N     N_R   0.039170 0.492150 0.176300 -0.040949
N5    N     N_R   0.811290 0.303410 0.871650 -0.039704
N6    N     N_R   0.188710 0.696590 0.128350 -0.040447
N7    N     N_R   0.205200 0.552990 0.997670 -0.039319
N8    N     N_R   0.794800 0.447010 0.002330 -0.039814
N9    N     N_R   0.814800 0.361830 0.823700 -0.039905
N10   N     N_R   0.185200 0.638170 0.176300 -0.037906
N11   N     N_R   0.201680 0.494570 0.045620 -0.042888
N12   N     N_R   0.798320 0.505430 0.954380 -0.040295
N13   N     N_R   0.068420 0.560530 0.871650 -0.037235
N14   N     N_R   0.931580 0.439470 0.128350 -0.038617
N15   N     N_R   0.948070 0.295860 0.997670 -0.040178
N16   N     N_R   0.051930 0.704140 0.002330 -0.042355
Ni1   Ni    Ni4+2 0.119340 0.493420 0.109960 0.209960
Ni2   Ni    Ni4+2 0.880660 0.506580 0.890040 0.214497
Ni3   Ni    Ni4+2 0.872590 0.372590 0.000000 0.215323
Ni4   Ni    Ni4+2 0.127410 0.627410 0.000000 0.210455
C81   C     C_3   0.511784 0.870228 0.845285 -0.421914
C82   C     C_3   0.483688 0.918777 0.781836 -0.896131
H51   H     H_    0.461225 0.980667 0.813806 0.256642
H52   H     H_    0.551444 0.954379 0.767996 0.256418
H53   H     H_    0.416318 0.856306 0.715022 0.247873
H54   H     H_    0.527788 0.804679 0.808810 0.185326
H55   H     H_    0.443682 0.835257 0.859005 0.182516
C83   C     C_3   0.451577 0.186479 0.379147 -0.394799
C84   C     C_3   0.527446 0.295067 0.397279 -0.948274
H56   H     H_    0.569752 0.287312 0.352909 0.260559
H57   H     H_    0.483947 0.340326 0.383654 0.257408
H58   H     H_    0.586889 0.340278 0.470417 0.245380
H59   H     H_    0.409097 0.198095 0.423094 0.190910
H60   H     H_    0.496535 0.145520 0.400402 0.196994

loop_
_geom_bond_atom_site_label_1
_geom_bond_atom_site_label_2
_ccdc_geom_bond_type
C74   H44   S    
C63   C65   A    
C3    C42   S    
C31   H5    S    
C67   H39   S    
C27   C29   A    
C34   C37   A    
C76   H46   S    
C7    C36   S    
C3    C23   A    
N6    N10   A    
C19   C31   A    
C10   H50   S    
C7    C73   A    
C73   N11   A    
C6    C72   A    
N4    Ni1   S    
C66   H36   S    
C81   H55   S    
C40   C83   S    
C35   C37   A    
C34   H16   S    
C19   H7    S    
C4    C24   A    
C78   C80   A    
C43   C52   A    
C4    C41   S    
C45   H37   S    
C12   C79   S    
C39   C81   S    
C16   H4    S    
C46   H38   S    
C60   C62   A    
C58   H27   S    
C17   C39   A    
C17   H31   S    
C18   C40   A    
C21   C25   A    
C49   H18   S    
N16   Ni4   S    
C68   N8    A    
N13   Ni4   S    
C23   H23   S    
C49   C51   A    
C2    N2    A    
C81   C82   S    
C84   H57   S    
C27   H11   S    
C18   H32   S    
C3    C75   A    
C77   H47   S    
C83   H60   S    
C74   N12   A    
C45   N5    A    
C78   H48   S    
C55   H29   S    
C65   H35   S    
C6    C54   S    
C33   H15   S    
N10   Ni1   S    
C56   H30   S    
C29   H13   S    
C53   C60   A    
C10   C12   A    
C54   C59   A    
C77   C79   A    
N8    Ni3   S    
C15   C69   A    
N9    Ni2   S    
N3    N13   A    
C59   H26   S    
C59   C61   A    
C23   N3    A    
N11   Ni1   S    
C51   C52   A    
N2    Ni2   S    
N12   Ni2   S    
C64   H34   S    
N8    N12   A    
C44   H22   S    
C71   N9    A    
C73   H43   S    
N5    Ni3   S    
C5    C45   A    
C47   H20   S    
C24   H24   S    
C8    C35   S    
C64   C66   A    
N5    N9    A    
C9    C14   A    
C43   H21   S    
N14   Ni3   S    
C25   C38   S    
C50   C52   A    
C84   H56   S    
C82   H53   S    
C12   C14   A    
C29   C31   A    
C32   H6    S    
C8    C74   A    
C22   H10   S    
C84   H58   S    
C16   C70   A    
C28   H12   S    
N3    Ni2   S    
C81   H54   S    
C82   H51   S    
N1    Ni1   S    
C9    C11   A    
C15   C39   A    
C75   N13   A    
C83   H59   S    
C16   C40   A    
C76   N14   A    
C44   C51   A    
C82   H52   S    
C8    C68   A    
C55   C57   A    
C22   C26   A    
C83   C84   S    
C1    C79   A    
C14   C69   S    
N7    Ni4   S    
C2    H2    S    
C77   N15   A    
C41   C50   A    
N4    N14   A    
C20   C32   A    
C24   N4    A    
C65   C69   A    
C48   H19   S    
N7    N11   A    
C50   H17   S    
C6    C46   A    
C72   H42   S    
C71   H41   S    
C21   H9    S    
C20   C22   A    
C1    N1    A    
C10   C13   A    
N6    Ni4   S    
C53   C58   A    
C26   C37   S    
C9    H49   S    
C25   C27   A    
C26   C28   A    
C33   C38   A    
N2    N16   A    
C28   C30   A    
C5    C53   S    
C30   H14   S    
C17   C63   A    
C30   C32   A    
C11   C13   A    
C18   C64   A    
C66   C70   A    
C43   C47   A    
C15   H3    S    
C20   H8    S    
C36   C38   A    
C33   C35   A    
C41   C48   A    
C56   C58   A    
N1    N15   A    
C34   C36   A    
C42   C47   A    
C61   C62   A    
C67   N7    A    
N15   Ni3   S    
C4    C76   A    
C2    C80   A    
C11   C80   S    
C78   N16   A    
C42   C49   A    
C7    C67   A    
C63   H33   S    
C46   N6    A    
C72   N10   A    
C57   H28   S    
C55   C62   A    
C5    C71   A    
C13   C70   S    
C56   C61   A    
C75   H45   S    
C1    H1    S    
C68   H40   S    
C60   H25   S    
C44   C48   A    
C19   C21   A    
C54   C57   A    
