data_mof_unit_36704.cif
_audit_creation_date              2012-12-11T15:48:54-0500
_audit_creation_method            fapswitch 2.2
_symmetry_space_group_name_H-M    P1
_symmetry_Int_Tables_number       1
_space_group_crystal_system       triclinic
_cell_length_a                    11.021332
_cell_length_b                    11.030002
_cell_length_c                    18.836707
_cell_angle_alpha                 90.355806
_cell_angle_beta                  89.65207
_cell_angle_gamma                 60.220144
_cell_volume                      1987.33865437

loop_
_atom_site_label
_atom_site_type_symbol
_atom_type_description
_atom_site_fract_x
_atom_site_fract_y
_atom_site_fract_z
_atom_type_partial_charge
C1    C     C_R   0.236575 0.646828 0.609601 0.606338
C2    C     C_R   0.573336 0.151675 0.711610 -0.085087
C3    C     C_R   0.573959 0.152267 0.784446 -0.148479
C4    C     C_R   0.651079 0.620065 0.602095 0.671391
C5    C     C_3   0.935460 0.086219 0.783505 -0.281044
C6    C     C_3   0.929556 0.093764 0.703069 -0.269768
C7    C     C_R   0.672566 0.166287 0.672400 0.094593
C8    C     C_R   0.175712 0.670643 0.833644 0.018493
C9    C     C_R   0.152132 0.577199 0.793624 -0.026221
C10   C     C_R   0.159889 0.574267 0.719633 0.071486
C11   C     C_R   0.199460 0.769818 0.723815 -0.146646
C12   C     C_3   0.692226 0.539635 0.801004 -0.232759
C13   C     C_R   0.203565 0.764679 0.797497 -0.153113
C14   C     C_3   0.231986 0.422160 0.797986 -0.240705
C15   C     C_3   0.242535 0.419053 0.717781 0.107202
C16   C     C_R   0.629950 0.225713 0.601669 0.618759
C17   C     C_R   0.186232 0.669177 0.683341 0.059581
C18   C     C_R   0.659369 0.667196 0.167729 0.019157
C19   C     C_R   0.770691 0.608067 0.214430 -0.024273
C20   C     C_R   0.755219 0.592703 0.284326 0.068393
C21   C     C_R   0.507783 0.699829 0.269352 -0.109392
C22   C     C_R   0.523825 0.720783 0.196377 0.212241
C23   C     C_3   0.698164 0.674420 0.813088 -0.042820
C24   C     C_3   0.912939 0.482716 0.211371 -0.228809
C25   C     C_3   0.899097 0.472552 0.291080 -0.203938
C26   C     C_R   0.626544 0.626556 0.312827 0.012399
C27   C     C_R   0.636233 0.178090 0.170803 -0.000976
C28   C     C_R   0.226132 0.646046 0.400623 0.596613
C29   C     C_R   0.537498 0.165621 0.212339 0.039448
C30   C     C_R   0.539728 0.174469 0.284430 0.065661
C31   C     C_R   0.715335 0.241841 0.276359 -0.162458
C32   C     C_R   0.717748 0.228202 0.202505 -0.181060
C33   C     C_3   0.498100 0.053681 0.216329 0.146069
C34   C     C_3   0.664740 0.647752 0.677731 0.071793
C35   C     C_3   0.502866 0.063134 0.296673 0.126028
C36   C     C_R   0.633072 0.204455 0.318214 0.090388
C37   C     C_R   0.144594 0.680226 0.182761 0.006359
C38   C     C_R   0.129570 0.791366 0.224791 0.042743
C39   C     C_R   0.154434 0.777729 0.294886 -0.013097
C40   C     C_R   0.617318 0.591206 0.385990 0.536924
C41   C     C_R   0.205775 0.538163 0.286926 0.174686
C42   C     C_R   0.195610 0.549166 0.213090 -0.146752
C43   C     C_3   0.014945 0.939882 0.233200 -0.196502
C44   C     C_3   0.051069 0.926131 0.311521 0.101141
C45   C     C_3   0.799592 0.656430 0.689122 0.075462
C46   C     C_R   0.181076 0.656483 0.328728 0.067680
C47   C     C_R   0.702855 0.099122 0.895297 0.533503
C48   C     C_R   0.723978 0.688392 0.888459 0.542088
C49   C     C_R   0.117547 0.706556 0.905520 0.545070
C50   C     C_R   0.673028 0.109519 0.102622 0.536630
C51   C     C_R   0.694040 0.688157 0.095955 0.576751
C52   C     C_R   0.613281 0.236715 0.393014 0.625488
C53   C     C_R   0.091054 0.711463 0.112478 0.573512
C54   C     C_3   0.560355 0.802402 0.786781 -0.199746
C55   C     C_3   0.533581 0.779611 0.709243 0.127688
C56   C     C_3   0.678635 0.520107 0.721104 0.005058
C57   C     C_3   0.821130 0.666996 0.769065 -0.218216
C58   C     C_R   0.683597 0.152198 0.822611 0.026377
C59   C     C_R   0.781241 0.171661 0.784037 0.016957
C60   C     C_R   0.774796 0.180289 0.709942 0.054748
Cl1   Cl    Cl    0.154534 0.339401 0.675997 -0.621706
Cl2   Cl    Cl    0.377493 0.800650 0.141204 -0.557325
Cl3   Cl    Cl    0.324802 0.117719 0.184317 -0.540879
Cl4   Cl    Cl    0.641803 0.911800 0.335796 -0.541479
Cl5   Cl    Cl    0.232673 0.380968 0.323542 -0.626252
Cl6   Cl    Cl    0.469234 0.934758 0.658042 -0.543165
Cl7   Cl    Cl    0.917566 0.941744 0.370856 -0.522816
Cl8   Cl    Cl    0.802786 0.795079 0.641435 -0.554664
Cl9   Cl    Cl    0.532366 0.493661 0.708130 -0.744356
Cr1   Cr    Cr6+3 0.392960 0.397920 0.502240 1.167586
Cr2   Cr    Cr6+3 0.398340 0.708480 0.501250 1.137955
Cr3   Cr    Cr6+3 0.708670 0.393570 0.496460 1.097427
Cr4   Cr    Cr6+3 0.937650 0.938540 0.007610 1.053278
Cr5   Cr    Cr6+3 0.625330 0.937370 0.994520 1.081399
Cr6   Cr    Cr6+3 0.937940 0.625230 0.001190 1.031590
H1    H     H_    0.774209 0.423551 0.703143 0.168280
H2    H     H_    0.217709 0.842230 0.826098 0.139814
H3    H     H_    0.166848 0.379555 0.819593 0.170444
H4    H     H_    0.333306 0.385306 0.825089 0.133472
H5    H     H_    0.348394 0.383845 0.696872 0.188234
H6    H     H_    0.405100 0.736198 0.291425 0.142629
H7    H     H_    0.991426 0.510557 0.195058 0.185118
H8    H     H_    0.915471 0.394355 0.181322 0.156983
H9    H     H_    0.961034 0.506272 0.323003 0.234873
H10   H     H_    0.781615 0.275171 0.300901 0.136008
H11   H     H_    0.791769 0.243895 0.171475 0.134818
H12   H     H_    0.918892 0.572086 0.784647 0.144486
H13   H     H_    0.578179 0.952373 0.192980 0.164609
H14   H     H_    0.401014 0.099899 0.324082 0.227073
H15   H     H_    0.214424 0.459766 0.180765 0.184030
H16   H     H_    0.911014 0.950926 0.222129 0.173796
H17   H     H_    0.038841 0.014135 0.205231 0.169904
H18   H     H_    0.102066 0.986856 0.328169 0.161109
H19   H     H_    0.833533 0.759237 0.781108 0.164287
H20   H     H_    0.788786 0.447466 0.820820 0.134910
H21   H     H_    0.602849 0.545841 0.831916 0.179571
H22   H     H_    0.569024 0.898190 0.791241 0.182996
H23   H     H_    0.485645 0.152844 0.686362 0.227695
H24   H     H_    0.889852 0.559118 0.668110 0.197039
H25   H     H_    0.985700 0.142083 0.807866 0.153470
H26   H     H_    0.906475 0.373527 0.307960 0.148580
H27   H     H_    0.444981 0.760087 0.709556 0.181513
H28   H     H_    0.491021 0.142518 0.810013 0.150738
H29   H     H_    0.967343 0.981688 0.804728 0.167984
H30   H     H_    0.976971 0.153850 0.680643 0.190028
H31   H     H_    0.961364 0.992360 0.676094 0.177533
H32   H     H_    0.215374 0.848820 0.698691 0.164541
H33   H     H_    0.470236 0.818268 0.820534 0.115679
O1    O     O_R   0.507380 0.255700 0.581440 -0.477344
O2    O     O_R   0.837170 0.593410 0.915250 -0.522526
O3    O     O_R   0.065200 0.635530 0.931570 -0.500952
O4    O     O_R   0.280320 0.527350 0.578930 -0.462555
O5    O     O_R   0.068260 0.828890 0.091840 -0.470906
O6    O     O_R   0.798870 0.057410 0.079340 -0.516755
O7    O     O_R   0.584930 0.080350 0.076780 -0.479467
O8    O     O_R   0.626960 0.809650 0.067060 -0.450103
O9    O     O_R   0.816040 0.596610 0.076510 -0.530722
O10   O     O_R   0.045610 0.638500 0.081060 -0.517819
O11   O     O_3   0.833640 0.833710 0.001100 -0.281245
O12   O     O_R   0.524480 0.695810 0.424040 -0.453845
O13   O     O_R   0.260510 0.739590 0.584590 -0.503447
O14   O     O_R   0.532300 0.695080 0.573820 -0.424374
O15   O     O_R   0.744840 0.503500 0.576370 -0.504560
O16   O     O_R   0.699120 0.276560 0.571960 -0.482745
O17   O     O_R   0.498940 0.256500 0.419860 -0.457360
O18   O     O_R   0.272500 0.528080 0.429150 -0.455355
O19   O     O_R   0.252060 0.740380 0.423010 -0.521083
O20   O     O_R   0.736390 0.504290 0.414790 -0.497686
O21   O     O_R   0.691300 0.277290 0.422170 -0.517991
O22   O     O_3   0.499990 0.499990 0.499980 -0.333355
O23   O     O_R   0.089400 0.825690 0.930570 -0.516649
O24   O     O_R   0.818460 0.054440 0.929850 -0.504113
O25   O     O_R   0.606060 0.077150 0.915510 -0.532944
O26   O     O_R   0.646550 0.806680 0.917570 -0.505975

loop_
_geom_bond_atom_site_label_1
_geom_bond_atom_site_label_2
_ccdc_geom_bond_type
C48   O2    A    
C21   C26   A    
Cr4   O23   S    
C34   C56   S    
C8    C13   A    
C56   H1    S    
C27   C29   A    
C41   C42   A    
Cr2   O14   S    
C2    C7    A    
Cr6   O9    S    
C43   C44   S    
C26   C40   S    
Cr3   O21   S    
Cr5   O11   S    
C49   O23   A    
C12   C23   S    
C45   C57   S    
C37   C38   A    
Cr2   O12   S    
Cr3   O20   S    
C31   H10   S    
C52   O21   A    
C48   O26   A    
C24   H8    S    
C18   C19   A    
C10   C15   S    
C31   C36   A    
C1    O4    A    
C38   C39   A    
C20   C25   S    
C10   C17   A    
C40   O20   A    
Cr5   O25   S    
C29   C33   S    
Cr1   O22   S    
Cr4   O5    S    
C50   O7    A    
C37   C42   A    
C24   H7    S    
C44   H18   S    
C33   C35   S    
C15   H5    S    
C28   O18   A    
C8    C9    A    
C18   C51   S    
C25   H9    S    
C41   C46   A    
C54   H22   S    
C35   Cl4   S    
C9    C10   A    
C36   C52   S    
C27   C50   S    
C49   O3    A    
C37   C53   S    
Cr1   O18   S    
C5    H29   S    
Cr5   O8    S    
C34   C55   S    
C21   C22   A    
C47   O25   A    
Cr2   O19   S    
Cr6   O10   S    
C53   O5    A    
C16   O1    A    
C4    C34   S    
C15   Cl1   S    
C13   H2    S    
C5    C59   S    
C6    C60   S    
Cr6   O11   S    
C24   C25   S    
C45   H24   S    
C53   O10   A    
C41   Cl5   S    
C58   C59   A    
C43   H16   S    
Cr4   O6    S    
C57   H12   S    
C4    O15   A    
C42   H15   S    
C9    C14   S    
C29   C30   A    
Cr1   O1    S    
C22   Cl2   S    
C31   C32   A    
C55   H27   S    
C5    H25   S    
C33   Cl3   S    
C32   H11   S    
C45   Cl8   S    
C6    H31   S    
C4    O14   A    
C12   H20   S    
C34   C45   S    
C14   H4    S    
C12   C56   S    
Cr1   O4    S    
C39   C46   A    
C35   H14   S    
Cr1   O17   S    
C7    C16   S    
C40   O12   A    
C21   H6    S    
C57   H19   S    
Cr3   O15   S    
C11   H32   S    
C7    C60   A    
C55   Cl6   S    
C23   C54   S    
C3    H28   S    
C23   C57   S    
C54   C55   S    
C11   C17   A    
Cr6   O2    S    
C23   C48   S    
C27   C32   A    
C18   C22   A    
Cr6   O3    S    
C33   H13   S    
C51   O8    A    
C52   O17   A    
C28   O19   A    
Cr3   O22   S    
C39   C44   S    
C30   C36   A    
C30   C35   S    
C1    C17   S    
C43   H17   S    
C54   H33   S    
C47   O24   A    
C28   C46   S    
C19   C20   A    
C2    C3    A    
C16   O16   A    
C38   C43   S    
Cr2   O22   S    
C11   C13   A    
C25   H26   S    
C5    C6    S    
C20   C26   A    
Cr5   O7    S    
Cr5   O26   S    
C51   O9    A    
C6    H30   S    
C19   C24   S    
C14   H3    S    
C1    O13   A    
Cr4   O24   S    
Cr4   O11   S    
C3    C58   A    
Cr2   O13   S    
C59   C60   A    
C2    H23   S    
C56   Cl9   S    
C14   C15   S    
C12   H21   S    
C44   Cl7   S    
C50   O6    A    
C8    C49   S    
Cr3   O16   S    
C47   C58   S    
