data_mof_unit_25606.cif
_audit_creation_date              2013-03-05T16:22:16-0500
_audit_creation_method            fapswitch 2.2
_symmetry_space_group_name_H-M    P1
_symmetry_Int_Tables_number       1
_space_group_crystal_system       triclinic
_cell_length_a                    10.504339
_cell_length_b                    10.558305
_cell_length_c                    9.770549
_cell_angle_alpha                 89.867803
_cell_angle_beta                  89.83428
_cell_angle_gamma                 89.43528
_cell_volume                      1083.57221439

loop_
_atom_site_label
_atom_site_type_symbol
_atom_site_description
_atom_site_fract_x
_atom_site_fract_y
_atom_site_fract_z
_atom_type_partial_charge
O1    O     O_R   0.500010 0.313960 0.616610 -0.563225
O2    O     O_R   0.499990 0.686040 0.383390 -0.563225
O3    O     O_R   0.500060 0.313950 0.383350 -0.643580
O4    O     O_R   0.499940 0.686050 0.616650 -0.643580
C1    C     C_R   0.501203 0.257964 0.500305 1.000911
C2    C     C_R   0.498797 0.742036 0.499695 1.000910
O5    O     O_R   0.313930 0.499970 0.616610 -0.617859
O6    O     O_R   0.686070 0.500030 0.383390 -0.617859
O7    O     O_R   0.313980 0.499960 0.383350 -0.617246
O8    O     O_R   0.686020 0.500040 0.616650 -0.617246
C3    C     C_R   0.257506 0.501059 0.500254 0.931881
C4    C     C_R   0.742494 0.498941 0.499746 0.931881
Zn1   Zn    Zn3+2 0.499970 0.500010 0.655740 0.997899
Zn2   Zn    Zn3+2 0.500030 0.499990 0.344260 0.997899
C5    C     C_3   0.040228 0.501333 0.630465 -0.164103
C6    C     C_3   0.959772 0.498667 0.369535 -0.164103
C7    C     C_3   0.959661 0.395909 0.565793 -0.161475
C8    C     C_3   0.040339 0.604091 0.434207 -0.161475
H1    H     H_    0.924683 0.310588 0.619572 0.214550
H2    H     H_    0.075317 0.689412 0.380428 0.214550
H3    H     H_    0.076772 0.502353 0.736990 0.160266
H4    H     H_    0.923228 0.497647 0.263009 0.160266
C9    C     C_3   0.877654 0.498875 0.499023 0.009096
C10   C     C_3   0.122346 0.501125 0.500977 0.009096
C11   C     C_3   0.955581 0.604296 0.563506 -0.131527
C12   C     C_3   0.044419 0.395704 0.436494 -0.131527
H5    H     H_    0.914768 0.689250 0.614877 0.190359
H6    H     H_    0.085232 0.310750 0.385123 0.190359
C13   C     C_3   0.598491 0.037939 0.572065 0.315404
C14   C     C_3   0.401509 0.962061 0.427935 0.315400
C15   C     C_3   0.608122 0.957375 0.442513 -0.136546
C16   C     C_3   0.391878 0.042624 0.557487 -0.136546
C17   C     C_3   0.499231 0.876295 0.498492 -0.182455
C18   C     C_3   0.500769 0.123704 0.501508 -0.182456
C19   C     C_3   0.490642 0.956147 0.630420 -0.308883
C20   C     C_3   0.509357 0.043853 0.369580 -0.308883
H7    H     H_    0.484298 0.919618 0.736884 0.191281
H8    H     H_    0.515702 0.080382 0.263116 0.191281
C21   C     C_3   0.489573 0.386266 0.048840 -0.060312
C22   C     C_3   0.510427 0.613734 0.951160 -0.060312
C23   C     C_3   0.593828 0.433182 0.951175 -0.062068
C24   C     C_3   0.406172 0.566818 0.048825 -0.062068
H9    H     H_    0.672908 0.376932 0.905304 0.173381
H10   H     H_    0.327092 0.623068 0.094696 0.173381
H11   H     H_    0.480677 0.290347 0.094452 0.144457
H12   H     H_    0.519323 0.709653 0.905548 0.144457
N1    N     N_3   0.499910 0.500030 0.863290 -0.085442
N2    N     N_3   0.500090 0.499970 0.136710 -0.085442
C25   C     C_3   0.395656 0.453119 0.951877 -0.075929
C26   C     C_3   0.604344 0.546881 0.048122 -0.075929
H13   H     H_    0.307767 0.413569 0.906570 0.146693
H14   H     H_    0.692233 0.586431 0.093429 0.146693
C27   C     C_2   0.730700 0.914528 0.377676 0.978115
O9    O     O_2   0.808183 0.993361 0.341050 -0.573649
O10   O     O_R   0.755651 0.785699 0.358423 -0.822982
H15   H     H_    0.840244 0.769504 0.311164 0.340185
C28   C     C_2   0.269300 0.085472 0.622324 0.978115
O11   O     O_2   0.191817 0.006639 0.658950 -0.573649
O12   O     O_R   0.244349 0.214301 0.641576 -0.822982
H16   H     H_    0.159756 0.230495 0.688836 0.340185
N3    N     N_R   0.707817 0.075987 0.653260 0.216427
O13   O     O_R   0.784792 0.989990 0.702000 -0.369385
O14   O     O_R   0.724214 0.193923 0.685712 -0.434237
N4    N     N_R   0.292183 0.924012 0.346741 0.216424
O15   O     O_R   0.215205 0.010011 0.298000 -0.369381
O16   O     O_R   0.275787 0.806077 0.314287 -0.434236

loop_
_geom_bond_atom_site_label_1
_geom_bond_atom_site_label_2
_geom_bond_distance
_ccdc_geom_bond_type
C22   N1    1.482722 S    
O10   H15   1.013428 S    
C14   N4    1.457869 S    
N1    C25   1.482229 S    
C27   O9    1.222127 D    
C22   H12   1.110201 S    
C4    C9    1.419750 S    
C7    C9    1.526781 S    
O1    C1    1.282142 A    
C7    C12   1.543415 S    
C19   H7    1.110622 S    
C10   C12   1.526472 S    
C5    C11   1.543198 S    
C3    C10   1.419750 S    
O4    Zn1   2.000186 S    
N3    O14   1.298883 A    
C7    H1    1.107180 S    
C25   H13   1.110624 S    
C26   H14   1.110624 S    
C15   C17   1.534235 S    
C8    H2    1.107181 S    
C21   H11   1.110201 S    
C22   C24   1.535488 S    
O12   H16   1.013429 S    
C23   H9    1.110390 S    
O2    C2    1.282143 A    
C8    C11   1.543415 S    
C24   H10   1.110390 S    
C16   C28   1.499677 S    
C27   O10   1.395757 S    
C6    C12   1.543198 S    
C13   N3    1.457869 S    
C16   C19   1.549321 S    
O4    C2    1.285370 A    
Zn1   N1    2.027875 S    
Zn2   N2    2.027875 S    
C13   C18   1.527038 S    
C6    H4    1.110502 S    
C16   C18   1.534235 S    
O5    C3    1.283581 A    
O7    Zn2   1.990221 S    
O5    Zn1   1.992365 S    
O6    C4    1.283581 A    
C1    C18   1.417630 S    
C23   N1    1.482280 S    
C24   N2    1.482280 S    
C15   C27   1.499678 S    
O7    C3    1.285579 A    
O3    Zn2   2.000186 S    
O8    C4    1.285579 A    
C5    C10   1.529185 S    
C21   C25   1.535445 S    
C6    C9    1.529185 S    
C8    C10   1.526781 S    
O1    Zn1   2.002095 S    
C23   C26   1.535918 S    
C5    C7    1.542526 S    
O6    Zn2   1.992364 S    
C14   C17   1.527037 S    
O3    C1    1.285371 A    
O8    Zn1   1.990220 S    
C11   H5    1.110647 S    
C13   C19   1.538688 S    
C12   H6    1.110647 S    
C2    C17   1.417629 S    
C14   C20   1.538685 S    
N4    O15   1.300330 A    
C20   H8    1.110622 S    
C13   C15   1.529231 S    
C14   C16   1.529229 S    
C28   O11   1.222128 D    
C22   C26   1.535445 S    
N2    C26   1.482229 S    
C17   C19   1.543803 S    
C18   C20   1.543803 S    
C9    C11   1.526471 S    
N3    O13   1.300301 A    
O2    Zn2   2.002095 S    
C28   O12   1.395757 S    
C24   C25   1.535918 S    
C5    H3    1.110501 S    
C21   C23   1.535488 S    
C6    C8    1.542526 S    
C15   C20   1.549320 S    
N4    O16   1.298877 A    
C21   N2    1.482722 S    
