data_mof_unit_17032.cif
_audit_creation_date              2012-12-10T19:15:12-0500
_audit_creation_method            fapswitch 2.2
_symmetry_space_group_name_H-M    P1
_symmetry_Int_Tables_number       1
_space_group_crystal_system       triclinic
_cell_length_a                    11.269527
_cell_length_b                    9.808613
_cell_length_c                    22.990429
_cell_angle_alpha                 88.605469
_cell_angle_beta                  89.763328
_cell_angle_gamma                 89.545733
_cell_volume                      2540.47364832

loop_
_atom_site_label
_atom_site_type_symbol
_atom_type_description
_atom_site_fract_x
_atom_site_fract_y
_atom_site_fract_z
_atom_type_partial_charge
C1    C     C_R   0.256977 0.500372 0.501544 1.068979
C2    C     C_R   0.616083 0.246752 0.973501 0.078171
C3    C     C_R   0.612665 0.250440 0.034807 0.069797
C4    C     C_R   0.640975 0.372160 0.063319 -0.033615
C5    C     C_R   0.682748 0.485648 0.030563 -0.046573
C6    C     C_R   0.720044 0.603504 0.059104 -0.063899
C7    C     C_R   0.764317 0.714469 0.026538 -0.182680
C8    C     C_R   0.762307 0.715248 0.965929 0.299464
C9    C     C_R   0.624507 0.386671 0.123667 0.621964
C10   C     C_R   0.709380 0.608914 0.119742 0.626397
C11   C     C_R   0.685505 0.436015 0.252099 0.338387
C12   C     C_R   0.504093 0.500954 0.388267 0.964510
C13   C     C_R   0.637087 0.419475 0.307716 -0.059625
C14   C     C_R   0.539487 0.501423 0.325594 -0.250950
C15   C     C_R   0.483333 0.586820 0.283424 0.208573
C16   C     C_R   0.526635 0.593812 0.225951 0.258428
C17   C     C_R   0.628100 0.518724 0.210491 0.060236
C18   C     C_R   0.490168 0.472888 0.778734 0.054583
C19   C     C_R   0.450908 0.468400 0.720692 0.208046
C20   C     C_R   0.529871 0.498071 0.674481 -0.156553
C21   C     C_R   0.645764 0.534017 0.687955 -0.235242
C22   C     C_R   0.687380 0.533701 0.745099 0.134359
C23   C     C_R   0.742174 0.499303 0.501260 0.981718
C24   C     C_R   0.609567 0.501288 0.790742 0.259954
C25   C     C_3   0.063894 0.626117 0.538015 0.389682
C26   C     C_3   0.068558 0.361430 0.531604 0.383876
C27   C     C_3   0.926266 0.640831 0.525548 0.409803
C28   C     C_3   0.929793 0.375108 0.541694 0.359362
C29   C     C_3   0.069336 0.509548 0.436449 0.410641
C30   C     C_3   0.119365 0.500206 0.501948 -0.429761
C31   C     C_3   0.877695 0.498748 0.501131 -0.321070
C32   C     C_3   0.927898 0.484507 0.435567 0.047932
C33   C     C_3   0.390334 0.083442 0.472649 0.066054
C34   C     C_3   0.397303 0.924047 0.466371 -0.029762
C35   C     C_3   0.599795 0.079761 0.464426 -0.287266
C36   C     C_3   0.609737 0.920385 0.472788 -0.267768
C37   C     C_3   0.509853 0.075565 0.559438 -0.077435
C38   C     C_3   0.498345 0.913527 0.559338 0.009494
C39   C     C_R   0.498482 0.498784 0.611786 0.963581
C40   C     C_R   0.688512 0.607164 0.876714 0.583515
C41   C     C_R   0.641104 0.370486 0.879381 0.587882
C42   C     C_R   0.648083 0.364837 0.940512 -0.024070
C43   C     C_R   0.683029 0.483762 0.969216 -0.087099
C44   C     C_R   0.714010 0.602989 0.936660 -0.088362
H1    H     H_    0.704178 0.560654 0.653243 0.225645
H2    H     H_    0.318122 0.100864 0.503598 0.192948
H3    H     H_    0.318084 0.884644 0.486182 0.218600
H4    H     H_    0.590673 0.103052 0.417747 0.148233
H5    H     H_    0.634601 0.870009 0.431781 0.197623
H6    H     H_    0.599951 0.099503 0.576206 0.198377
H7    H     H_    0.577427 0.870652 0.582673 0.179245
H8    H     H_    0.682989 0.128076 0.475336 0.235227
H9    H     H_    0.684419 0.900244 0.502713 0.236297
H10   H     H_    0.798445 0.802925 0.048087 0.213091
N1    N     N_R   0.651134 0.492432 0.849841 -0.346528
N2    N     N_R   0.657483 0.503948 0.150153 -0.334367
N3    N     N_3   0.499750 0.138610 0.498760 -0.095002
N4    N     N_3   0.499750 0.861390 0.498760 -0.100817
O1    O     O_R   0.314910 0.616040 0.499990 -0.587290
O2    O     O_R   0.314910 0.383960 0.499990 -0.581955
O3    O     O_R   0.500080 0.616070 0.416130 -0.637650
O4    O     O_R   0.500080 0.383930 0.416130 -0.616120
O5    O     O_R   0.685320 0.616040 0.499970 -0.598526
O6    O     O_R   0.685320 0.383960 0.499970 -0.608364
O7    O     O_R   0.500150 0.616010 0.583820 -0.595256
O8    O     O_R   0.500150 0.383990 0.583820 -0.632173
O9    O     O_2   0.694242 0.725654 0.845977 -0.471483
O10   O     O_2   0.620048 0.256849 0.849264 -0.481716
O11   O     O_2   0.572358 0.286709 0.155770 -0.476453
O12   O     O_2   0.746491 0.719725 0.147965 -0.495765
Zn1   Zn    Zn3+2 0.500150 0.654960 0.499970 0.985394
Zn2   Zn    Zn3+2 0.500150 0.345040 0.499970 0.976227
N5    N     N_3   0.580208 0.125381 0.944825 -0.346273
H11   H     H_    0.491853 0.104809 0.955587 0.196820
H12   H     H_    0.633259 0.043715 0.959156 0.223717
Br1   Br    Br    0.289917 0.425379 0.708026 -0.381003
N6    N     N_3   0.808639 0.565144 0.757007 -0.372168
H13   H     H_    0.828487 0.658879 0.736775 0.268239
H14   H     H_    0.862586 0.490440 0.738753 0.266278
Br2   Br    Br    0.131231 0.806223 0.530677 -0.319859
Br3   Br    Br    0.110071 0.197414 0.488783 -0.402806
Br4   Br    Br    0.105638 0.612770 0.620519 -0.283812
Br5   Br    Br    0.147873 0.294476 0.601665 -0.283818
Br6   Br    Br    0.843093 0.718341 0.592483 -0.401793
Br7   Br    Br    0.885128 0.397070 0.622963 -0.384696
Br8   Br    Br    0.888065 0.798577 0.472586 -0.340528
Br9   Br    Br    0.855925 0.194492 0.539723 -0.357611
Br10  Br    Br    0.113357 0.684752 0.399709 -0.318068
Br11  Br    Br    0.155179 0.396224 0.380422 -0.387631
N7    N     N_3   0.870613 0.584707 0.395650 -0.340895
H15   H     H_    0.904040 0.574055 0.353444 0.259163
H16   H     H_    0.779671 0.566054 0.392913 0.186101
N8    N     N_3   0.895962 0.351132 0.412269 -0.454838
H17   H     H_    0.918977 0.344608 0.368325 0.268672
H18   H     H_    0.930219 0.266832 0.433365 0.284539
N9    N     N_3   0.358120 0.156666 0.418317 -0.321832
H19   H     H_    0.276908 0.119539 0.404013 0.270140
H20   H     H_    0.418124 0.137163 0.384876 0.200976
N10   N     N_3   0.390838 0.884081 0.405534 -0.410210
H21   H     H_    0.354922 0.786955 0.404674 0.296608
H22   H     H_    0.472506 0.885121 0.384223 0.212178
N11   N     N_3   0.581098 0.130092 0.068070 -0.342577
H23   H     H_    0.495984 0.099762 0.056341 0.213094
H24   H     H_    0.641665 0.052077 0.059076 0.206653
N12   N     N_3   0.422682 0.130975 0.600400 -0.435304
H25   H     H_    0.465015 0.167508 0.637249 0.240240
H26   H     H_    0.371168 0.207305 0.581111 0.286670
N13   N     N_3   0.394654 0.862021 0.591870 -0.352674
H27   H     H_    0.411765 0.868035 0.636429 0.222775
H28   H     H_    0.320193 0.922871 0.583531 0.250951
Br12  Br    Br    0.835793 0.869328 0.927315 -0.368357
Br13  Br    Br    0.825587 0.333972 0.231262 -0.352989
N14   N     N_3   0.679934 0.306891 0.342321 -0.393061
H29   H     H_    0.614713 0.232227 0.341307 0.220370
H30   H     H_    0.692400 0.336449 0.384912 0.221239
Br14  Br    Br    0.335303 0.674255 0.299345 -0.318658
Br15  Br    Br    0.442481 0.697624 0.166507 -0.341057
N15   N     N_3   0.409693 0.449554 0.826432 -0.428730
H31   H     H_    0.373785 0.352121 0.823114 0.254942
H32   H     H_    0.341103 0.521763 0.823656 0.239784

loop_
_geom_bond_atom_site_label_1
_geom_bond_atom_site_label_2
_ccdc_geom_bond_type
C26   Br5   S    
C12   O3    A    
C25   Br2   S    
N5    H12   S    
C41   C42   A    
C35   C36   S    
C29   Br11  S    
C7    C8    A    
N6    H13   S    
C24   N1    S    
N12   H26   S    
N8    H17   S    
C18   C24   A    
C19   Br1   S    
C37   C38   S    
C9    O11   S    
C29   C32   S    
C36   N4    S    
C1    O1    A    
C5    C6    A    
N4    Zn1   S    
O2    Zn2   S    
C15   C16   A    
N13   H27   S    
C27   Br6   S    
C18   C19   A    
N5    H11   S    
N15   H31   S    
C41   N1    A    
C29   Br10  S    
C36   H9    S    
C38   N4    S    
C32   N7    S    
C19   C20   A    
C16   C17   A    
C40   O9    S    
N9    H20   S    
C10   N2    A    
C18   N15   S    
O3    Zn1   S    
C23   O5    A    
C32   N8    S    
C5    C43   A    
N8    H18   S    
C13   C14   A    
C33   H2    S    
C39   O7    A    
C35   H4    S    
C34   N10   S    
C41   O10   S    
C21   H1    S    
N6    H14   S    
O8    Zn2   S    
C27   C31   S    
C1    O2    A    
C20   C39   S    
C38   H7    S    
O7    Zn1   S    
C23   C31   S    
C27   Br8   S    
C43   C44   A    
C37   N12   S    
C29   C30   S    
C12   O4    A    
N7    H16   S    
N10   H21   S    
C40   N1    A    
N9    H19   S    
C28   Br9   S    
C33   C34   S    
O4    Zn2   S    
C9    N2    A    
N11   H24   S    
C17   N2    S    
C2    N5    S    
C10   O12   S    
C3    N11   S    
C23   O6    A    
N10   H22   S    
C12   C14   S    
C26   C30   S    
C26   Br3   S    
C28   C31   S    
C25   Br4   S    
C39   O8    A    
C22   C24   A    
C8    Br12  S    
C42   C43   A    
C3    C4    A    
C33   N9    S    
C35   H8    S    
N14   H29   S    
C25   C30   S    
C11   C17   A    
C33   N3    S    
C11   Br13  S    
C14   C15   A    
C31   C32   S    
C8    C44   A    
C22   N6    S    
O5    Zn1   S    
C4    C5    A    
C6    C10   A    
C37   N3    S    
C6    C7    A    
C25   C27   S    
N12   H25   S    
C26   C28   S    
C35   N3    S    
C2    C3    A    
C16   Br15  S    
C37   H6    S    
C11   C13   A    
N7    H15   S    
C2    C42   A    
C1    C30   S    
N13   H28   S    
O6    Zn2   S    
N3    Zn2   S    
C38   N13   S    
N11   H23   S    
N15   H32   S    
C40   C44   A    
C20   C21   A    
C28   Br7   S    
C34   N4    S    
C15   Br14  S    
C34   H3    S    
C7    H10   S    
C4    C9    A    
C21   C22   A    
C13   N14   S    
C36   H5    S    
O1    Zn1   S    
N14   H30   S    
