data_mof_unit_60703.cif
_audit_creation_date              2013-03-05T15:43:59-0500
_audit_creation_method            fapswitch 2.2
_symmetry_space_group_name_H-M    P1
_symmetry_Int_Tables_number       1
_space_group_crystal_system       triclinic
_cell_length_a                    11.547393
_cell_length_b                    10.665828
_cell_length_c                    10.044067
_cell_angle_alpha                 88.341591
_cell_angle_beta                  90.222583
_cell_angle_gamma                 90.319166
_cell_volume                      1236.50655104

loop_
_atom_site_label
_atom_site_type_symbol
_atom_site_description
_atom_site_fract_x
_atom_site_fract_y
_atom_site_fract_z
_atom_type_partial_charge
O1    O     O_R   0.499980 0.319060 0.613040 -0.562072
O2    O     O_R   0.500020 0.319100 0.386900 -0.632920
C1    C     C_R   0.490614 0.262333 0.502209 0.838929
O3    O     O_R   0.334430 0.499990 0.613070 -0.606381
O4    O     O_R   0.334470 0.500030 0.386930 -0.589709
C2    C     C_R   0.281978 0.500100 0.499775 0.905715
Zn1   Zn    Zn3+2 0.499980 0.499970 0.650990 1.055839
Zn2   Zn    Zn3+2 0.500020 0.500030 0.349010 1.001659
O5    O     O_R   0.499980 0.680900 0.613100 -0.561305
O6    O     O_R   0.500020 0.680940 0.386960 -0.590422
O7    O     O_R   0.665530 0.499970 0.613070 -0.571047
O8    O     O_R   0.665570 0.500010 0.386930 -0.609645
C3    C     C_R   0.498287 0.737745 0.497566 0.957880
C4    C     C_R   0.718010 0.500064 0.500222 0.906147
C5    C     C_1   0.161503 0.500343 0.499427 -0.118666
C6    C     C_1   0.059331 0.500489 0.499716 0.046199
C7    C     C_1   0.940664 0.500487 0.500321 0.043485
C8    C     C_1   0.838490 0.500332 0.500584 -0.130805
C9    C     C_2   0.435399 0.934984 0.398443 0.340773
C10   C     C_2   0.498832 0.870799 0.489579 -0.320029
H1    H     H_    0.554611 0.917574 0.560226 0.166980
C11   C     C_2   0.443701 0.070298 0.395759 -0.292046
C12   C     C_2   0.453148 0.133146 0.509138 0.085585
H2    H     H_    0.454905 0.116343 0.298700 0.194053
C13   C     C_2   0.564511 0.574638 0.924185 0.315883
N1    N     N_2   0.501210 0.501330 0.852150 -0.200891
H3    H     H_    0.437289 0.449537 0.898953 0.152325
C14   C     C_2   0.555390 0.582304 0.073098 -0.118013
N2    N     N_2   0.501250 0.501360 0.147810 -0.197770
H4    H     H_    0.600640 0.658354 0.120869 0.199130
H5    H     H_    0.465572 0.424338 0.103977 0.170423
Br1   Br    Br    0.335347 0.860530 0.268166 -0.401347
N3    N     N_R   0.415733 0.079037 0.635678 0.215680
O9    O     O_R   0.473689 0.100046 0.744265 -0.344757
O10   O     O_R   0.320229 0.013803 0.643395 -0.336298
Br2   Br    Br    0.675840 0.685070 0.841603 -0.412562

loop_
_geom_bond_atom_site_label_1
_geom_bond_atom_site_label_2
_geom_bond_distance
_ccdc_geom_bond_type
C7    C8    1.179841 T    
O4    Zn2   1.950694 S    
C4    C8    1.391208 S    
C1    C12   1.441745 S    
C9    C10   1.344331 D    
Zn2   O8    1.947792 S    
C14   H4    1.084918 S    
N3    O9    1.301708 A    
C13   N1    1.300545 D    
N2    H5    1.026734 S    
C13   C14   1.504421 S    
Zn1   O7    1.950694 S    
N1    H3    1.026687 S    
Zn1   N1    2.020930 S    
O3    Zn1   1.947792 S    
Zn2   N2    2.020610 S    
O3    C2    1.286987 A    
C14   N2    1.288189 D    
N3    O10   1.302037 A    
O8    C4    1.286939 A    
O2    C1    1.295920 A    
O4    C2    1.287419 A    
O7    C4    1.287337 A    
C11   H2    1.086665 S    
C9    Br1   1.927645 S    
C13   Br2   1.913858 S    
C5    C6    1.179840 T    
C9    C11   1.445359 S    
C10   H1    1.086568 S    
Zn2   O6    1.977638 S    
Zn1   O5    1.956102 S    
O5    C3    1.293758 A    
C11   C12   1.341819 D    
C3    C10   1.419057 S    
C12   N3    1.447111 S    
C2    C5    1.391187 S    
O1    Zn1   1.977637 S    
O2    Zn2   1.956101 S    
C6    C7    1.370335 S    
O1    C1    1.286196 A    
O6    C3    1.280983 A    
