data_mof_unit_37229.cif
_audit_creation_date              2013-03-05T16:02:58-0500
_audit_creation_method            fapswitch 2.2
_symmetry_space_group_name_H-M    P1
_symmetry_Int_Tables_number       1
_space_group_crystal_system       triclinic
_cell_length_a                    14.954024
_cell_length_b                    14.183849
_cell_length_c                    10.60152
_cell_angle_alpha                 90.657599
_cell_angle_beta                  84.090905
_cell_angle_gamma                 89.823731
_cell_volume                      2236.52595723

loop_
_atom_site_label
_atom_site_type_symbol
_atom_site_description
_atom_site_fract_x
_atom_site_fract_y
_atom_site_fract_z
_atom_type_partial_charge
O1    O     O_R   0.367850 0.580280 0.500030 -0.592193
O2    O     O_R   0.632150 0.419720 0.499970 -0.592255
O3    O     O_R   0.632150 0.580280 0.499970 -0.578718
O4    O     O_R   0.367850 0.419720 0.500030 -0.578699
C1    C     C_R   0.327154 0.500065 0.500662 0.933064
C2    C     C_R   0.672849 0.499936 0.499298 0.933197
O5    O     O_R   0.499970 0.580260 0.313950 -0.604052
O6    O     O_R   0.500030 0.419740 0.686050 -0.604030
O7    O     O_R   0.500030 0.580260 0.686050 -0.596934
O8    O     O_R   0.499970 0.419740 0.313950 -0.596880
C3    C     C_R   0.507037 0.499414 0.256895 0.972296
C4    C     C_R   0.492967 0.500588 0.743103 0.972251
Zn1   Zn    Zn3+2 0.500000 0.607200 0.500000 1.089236
Zn2   Zn    Zn3+2 0.500000 0.392800 0.500000 1.089236
C5    C     C_3   0.486783 0.587682 0.049127 -0.162408
C6    C     C_3   0.513236 0.412331 0.950863 -0.162569
C7    C     C_3   0.561378 0.559230 0.942466 -0.211562
C8    C     C_3   0.438635 0.440786 0.057521 -0.211622
C9    C     C_3   0.418611 0.529450 0.983858 0.332767
C10   C     C_3   0.581406 0.470568 0.016125 0.332759
H1    H     H_    0.474186 0.659724 0.089133 0.240940
H2    H     H_    0.525843 0.340289 0.910863 0.240809
H3    H     H_    0.611706 0.607554 0.893816 0.224692
H4    H     H_    0.388305 0.392464 0.106170 0.224664
C11   C     C_3   0.491522 0.501607 0.878454 -0.167738
C12   C     C_3   0.508494 0.498404 0.121536 -0.167653
C13   C     C_R   0.822735 0.511432 0.381984 0.304118
C14   C     C_R   0.177278 0.488660 0.617987 0.304154
C15   C     C_R   0.768518 0.500542 0.496775 -0.139133
C16   C     C_R   0.231485 0.499479 0.503183 -0.139079
C17   C     C_R   0.804863 0.487275 0.610239 -0.224836
C18   C     C_R   0.195133 0.512813 0.389736 -0.224829
C19   C     C_R   0.897161 0.483961 0.611209 0.089490
C20   C     C_R   0.102836 0.516214 0.388798 0.089504
C21   C     C_R   0.953363 0.500950 0.498542 0.016017
C22   C     C_R   0.046637 0.499241 0.501476 0.016039
C23   C     C_R   0.916233 0.518946 0.383103 -0.072081
C24   C     C_R   0.083769 0.481259 0.616920 -0.072088
C25   C     C_R   0.933462 0.461396 0.722891 -0.157247
C26   C     C_R   0.066533 0.538882 0.277147 -0.157282
C27   C     C_R   0.025854 0.457121 0.726319 0.318720
C28   C     C_R   0.974140 0.543210 0.273751 0.318910
H5    H     H_    0.760864 0.476407 0.696876 0.174257
H6    H     H_    0.239128 0.523670 0.303093 0.174140
H7    H     H_    0.889669 0.443855 0.807194 0.227747
H8    H     H_    0.110325 0.556474 0.192859 0.227591
C29   C     C_R   0.557607 0.796699 0.413513 0.340343
C30   C     C_R   0.442381 0.203297 0.586467 0.340322
C31   C     C_R   0.445836 0.798953 0.589573 0.348071
C32   C     C_R   0.554200 0.201052 0.410472 0.347981
N1    N     N_R   0.500000 0.750030 0.500000 -0.216537
N2    N     N_R   0.500000 0.249970 0.500000 -0.216530
C33   C     C_R   0.440978 0.899545 0.587797 -0.182455
C34   C     C_R   0.559029 0.100455 0.412196 -0.182549
C35   C     C_R   0.559221 0.897855 0.410406 -0.185132
C36   C     C_R   0.440772 0.102141 0.589577 -0.185108
C37   C     C_R   0.499915 0.949374 0.499314 0.006244
C38   C     C_R   0.500088 0.050625 0.500676 0.006289
C39   C     C_R   0.379535 0.951505 0.672902 0.229917
C40   C     C_R   0.620436 0.048485 0.327042 0.229884
C41   C     C_R   0.618948 0.949317 0.323574 0.230325
C42   C     C_R   0.381025 0.050674 0.676384 0.230240
N3    N     N_R   0.327540 0.563106 0.975709 0.261063
O9    O     O_R   0.260435 0.513063 0.025391 -0.335527
O10   O     O_R   0.314271 0.651701 0.953648 -0.228343
N4    N     N_R   0.672488 0.436942 0.024236 0.260905
O11   O     O_R   0.739598 0.486779 0.974091 -0.336240
O12   O     O_R   0.685759 0.348504 0.047423 -0.227460
N5    N     N_R   0.784600 0.496354 0.265417 0.230538
O13   O     O_R   0.812992 0.425573 0.192824 -0.236008
O14   O     O_R   0.717335 0.547304 0.236809 -0.312021
N6    N     N_R   0.215466 0.503701 0.734511 0.230371
O15   O     O_R   0.282563 0.452546 0.763198 -0.311663
O16   O     O_R   0.187498 0.574789 0.806756 -0.235910
Br1   Br    Br    0.064590 0.404317 0.878505 -0.203243
Br2   Br    Br    0.935369 0.596328 0.121763 -0.203083
N7    N     N_R   0.621788 0.742011 0.334655 0.250337
O17   O     O_R   0.702121 0.730108 0.368800 -0.299104
O18   O     O_R   0.605690 0.718517 0.220327 -0.316574
N8    N     N_R   0.378198 0.257983 0.665320 0.250343
O19   O     O_R   0.394294 0.281480 0.779648 -0.316517
O20   O     O_R   0.297866 0.269884 0.631172 -0.299028
N9    N     N_R   0.405328 0.748514 0.695935 0.242819
O21   O     O_R   0.331397 0.701862 0.688459 -0.268901
O22   O     O_R   0.439954 0.754293 0.803400 -0.323156
N10   N     N_R   0.594793 0.251522 0.304208 0.242856
O23   O     O_R   0.560120 0.245953 0.196760 -0.323108
O24   O     O_R   0.668861 0.297933 0.311731 -0.269059
N11   N     N_R   0.309374 0.905017 0.750846 0.259214
O25   O     O_R   0.309120 0.906328 0.873623 -0.221382
O26   O     O_R   0.238273 0.876273 0.700785 -0.259756
N12   N     N_R   0.690522 0.094958 0.248945 0.259211
O27   O     O_R   0.761873 0.123329 0.298727 -0.259453
O28   O     O_R   0.690498 0.093817 0.126202 -0.221603
N13   N     N_R   0.680159 0.902877 0.229960 0.260414
O29   O     O_R   0.656498 0.889909 0.116347 -0.254412
O30   O     O_R   0.764912 0.897720 0.247277 -0.233249
N14   N     N_R   0.319772 0.097114 0.769944 0.260423
O31   O     O_R   0.235028 0.102239 0.752565 -0.233347
O32   O     O_R   0.343389 0.110116 0.883574 -0.254360

loop_
_geom_bond_atom_site_label_1
_geom_bond_atom_site_label_2
_geom_bond_distance
_ccdc_geom_bond_type
N4    O12   1.299579 A    
N3    O10   1.299211 A    
C13   C15   1.401456 A    
C21   C22   1.398513 A    
C8    C12   1.535675 S    
O3    C2    1.289867 A    
C33   C39   1.418210 A    
C25   C27   1.387004 A    
C34   C40   1.418256 A    
N7    O17   1.300901 A    
C5    C9    1.528915 S    
C32   C34   1.428888 A    
C17   H5    1.086155 S    
C8    H4    1.110668 S    
C10   N4    1.452965 S    
C21   C23   1.420357 A    
N10   O24   1.299221 A    
C7    C10   1.532764 S    
C30   C36   1.435768 A    
C8    C9    1.532802 S    
C39   N11   1.434096 S    
C23   C28   1.420061 A    
N5    O14   1.299761 A    
O7    Zn1   2.013431 S    
Zn1   N1    2.025879 S    
Zn2   N2    2.025881 S    
N13   O29   1.301092 A    
C9    N3    1.453009 S    
C31   N1    1.364687 A    
C32   N2    1.364632 A    
C17   C19   1.381974 A    
C14   C24   1.403788 A    
N11   O26   1.300881 A    
C20   C22   1.411510 A    
C13   N5    1.427556 S    
C6    C10   1.528882 S    
C25   H7    1.084036 S    
C26   C28   1.387009 A    
N4    O11   1.300984 A    
C42   N14   1.432109 S    
C14   N6    1.427450 S    
O2    Zn2   2.013845 S    
N7    O18   1.299752 A    
C24   C27   1.420053 A    
N6    O16   1.300739 A    
O8    Zn2   2.013432 S    
C33   C37   1.415994 A    
N10   O23   1.300954 A    
N6    O15   1.299662 A    
C5    C12   1.539258 S    
C29   N1    1.369589 A    
O6    Zn2   2.004821 S    
C3    C12   1.432838 S    
O2    C2    1.291725 A    
C40   C41   1.406945 A    
C18   C20   1.381970 A    
O5    C3    1.289241 A    
C27   Br1   1.927965 S    
N9    O21   1.299120 A    
C7    H3    1.110669 S    
C30   N2    1.369589 A    
O6    C4    1.289250 A    
N12   O28   1.301210 A    
C18   H6    1.086158 S    
C19   C25   1.392458 A    
O4    C1    1.289889 A    
N8    O20   1.300901 A    
N9    O22   1.300930 A    
N14   O32   1.301091 A    
C35   C37   1.420212 A    
O1    C1    1.291697 A    
O1    Zn1   2.013847 S    
C29   N7    1.427254 S    
C29   C35   1.435763 A    
C1    C16   1.428190 S    
C34   C38   1.416023 A    
C6    C11   1.539245 S    
C5    C7    1.553335 S    
N13   O30   1.301153 A    
C39   C42   1.406967 A    
C6    H2    1.109930 S    
N8    O19   1.299757 A    
O3    Zn1   2.011538 S    
C41   N13   1.432116 S    
C28   Br2   1.928115 S    
C4    C11   1.432778 S    
C7    C11   1.535665 S    
C30   N8    1.427238 S    
C14   C16   1.401383 A    
C15   C17   1.384543 A    
C16   C18   1.384551 A    
C31   N9    1.425057 S    
C37   C38   1.436042 A    
C5    H1    1.109925 S    
C10   C12   1.526395 S    
C13   C23   1.403817 A    
C31   C33   1.428854 A    
C26   H8    1.084081 S    
C35   C41   1.424117 A    
C22   C24   1.420385 A    
N12   O27   1.301014 A    
C19   C21   1.411477 A    
C36   C38   1.420226 A    
C36   C42   1.424155 A    
O4    Zn2   2.011539 S    
N5    O13   1.301078 A    
C9    C11   1.526360 S    
O7    C4    1.287359 A    
O8    C3    1.287396 A    
C32   N10   1.424934 S    
N3    O9    1.300909 A    
O5    Zn1   2.004822 S    
C2    C15   1.428192 S    
C6    C8    1.553387 S    
N14   O31   1.301154 A    
C20   C26   1.392520 A    
N11   O25   1.301147 A    
C40   N12   1.434066 S    
