data_mof_unit_16072.cif
_audit_creation_date              2012-12-11T15:29:36-0500
_audit_creation_method            fapswitch 2.2
_symmetry_space_group_name_H-M    P1
_symmetry_Int_Tables_number       1
_space_group_crystal_system       triclinic
_cell_length_a                    13.49716
_cell_length_b                    13.479868
_cell_length_c                    27.579317
_cell_angle_alpha                 90.595004
_cell_angle_beta                  90.157922
_cell_angle_gamma                 60.13609
_cell_volume                      4351.21960321

loop_
_atom_site_label
_atom_site_type_symbol
_atom_type_description
_atom_site_fract_x
_atom_site_fract_y
_atom_site_fract_z
_atom_type_partial_charge
C1    C     C_R   0.620778 0.101487 0.569617 0.544848
C2    C     C_1   0.630883 0.730216 0.615513 -0.017699
C3    C     C_3   0.686459 0.560039 0.766543 -0.131837
C4    C     C_3   0.675626 0.650918 0.803838 0.067839
C5    C     C_3   0.580071 0.653695 0.739789 -0.111406
C6    C     C_3   0.659484 0.679869 0.709314 0.005982
C7    C     C_3   0.569284 0.744135 0.777865 -0.143595
C8    C     C_3   0.647707 0.771587 0.746507 -0.101191
C9    C     C_1   0.686611 0.630534 0.856071 -0.031869
C10   C     C_1   0.647524 0.701893 0.657284 -0.064852
C11   C     C_3   0.063609 0.177594 0.735019 -0.119681
C12   C     C_R   0.599783 0.778901 0.568301 0.544359
C13   C     C_3   0.135530 0.082448 0.772060 -0.108316
C14   C     C_1   0.094254 0.202052 0.899720 -0.013624
C15   C     C_1   0.228534 0.137859 0.616696 -0.022826
C16   C     C_3   0.067894 0.268077 0.769009 -0.090915
C17   C     C_3   0.140550 0.172502 0.805066 0.043838
C18   C     C_3   0.179258 0.245800 0.743966 0.036273
C19   C     C_3   0.174867 0.156490 0.710571 0.058021
C20   C     C_3   0.251513 0.151853 0.780739 -0.102468
C21   C     C_3   0.247163 0.061490 0.746904 -0.113302
C22   C     C_1   0.119581 0.184541 0.857416 -0.057546
C23   C     C_R   0.277634 0.121645 0.569293 0.546008
C24   C     C_1   0.199345 0.147111 0.658485 -0.066578
C25   C     C_3   0.669660 0.268395 0.735354 -0.123961
C26   C     C_3   0.580434 0.277297 0.772765 0.264409
C27   C     C_1   0.696316 0.209198 0.900270 -0.003622
C28   C     C_1   0.638542 0.135085 0.616777 -0.017536
C29   C     C_3   0.766228 0.178755 0.768096 -0.171752
C30   C     C_3   0.675719 0.189795 0.805149 0.075040
C31   C     C_3   0.757392 0.080616 0.742114 -0.085697
C32   C     C_3   0.660053 0.170311 0.710414 -0.020389
C33   C     C_3   0.666706 0.093993 0.779406 0.265348
C34   C     C_R   0.621928 0.100419 0.431632 0.543690
C35   C     C_3   0.568588 0.181022 0.747278 -0.111374
C36   C     C_1   0.683728 0.199763 0.857644 -0.001787
C37   C     C_1   0.650014 0.154802 0.658435 -0.061444
C38   C     C_R   0.642420 0.713196 0.385042 -0.034964
C39   C     C_R   0.729396 0.717933 0.359538 -0.128133
C40   C     C_R   0.749848 0.684298 0.310954 0.259005
C41   C     C_R   0.678943 0.649711 0.287643 0.041591
C42   C     C_R   0.599382 0.632711 0.314431 -0.041477
C43   C     C_R   0.582655 0.664421 0.363336 -0.136952
C44   C     C_R   0.790322 0.553596 0.214460 -0.089232
C45   C     C_R   0.602014 0.775977 0.430766 0.546304
C46   C     C_R   0.799311 0.539861 0.164707 -0.124863
C47   C     C_R   0.601035 0.688981 0.155699 -0.135374
C48   C     C_R   0.593565 0.705979 0.205717 -0.111988
C49   C     C_R   0.687247 0.635681 0.235115 0.065335
C50   C     C_R   0.704056 0.605523 0.135168 0.031474
C51   C     C_R   0.226110 0.136258 0.383338 0.026253
C52   C     C_R   0.253754 0.039473 0.354445 -0.127243
C53   C     C_R   0.229955 0.051109 0.305268 -0.123642
C54   C     C_R   0.175357 0.159931 0.284405 0.036365
C55   C     C_R   0.139421 0.257390 0.314092 -0.124202
C56   C     C_R   0.278995 0.119928 0.430981 0.542030
C57   C     C_R   0.165829 0.245566 0.363237 -0.129860
C58   C     C_R   0.167976 0.256955 0.206960 -0.128062
C59   C     C_R   0.140824 0.275111 0.158044 -0.140063
C60   C     C_R   0.107244 0.114336 0.156660 -0.140523
C61   C     C_R   0.131427 0.098047 0.205788 -0.131592
C62   C     C_R   0.158584 0.171431 0.231677 0.035836
C63   C     C_R   0.105804 0.206740 0.133055 0.017872
C64   C     C_R   0.643447 0.142062 0.386273 0.022720
C65   C     C_R   0.557104 0.243651 0.365706 -0.127305
C66   C     C_R   0.567539 0.271127 0.318237 -0.130398
C67   C     C_3   0.765937 0.586034 0.735115 -0.107394
C68   C     C_R   0.664725 0.198048 0.290995 0.034938
C69   C     C_R   0.753902 0.100229 0.312573 -0.109024
C70   C     C_R   0.743568 0.072684 0.359901 -0.121961
C71   C     C_R   0.776436 0.197360 0.220311 -0.136567
C72   C     C_R   0.789597 0.200633 0.170911 -0.128463
C73   C     C_R   0.589858 0.256364 0.157992 -0.012418
C74   C     C_R   0.578098 0.250463 0.208328 -0.101732
C75   C     C_R   0.671906 0.218740 0.239359 0.018077
C76   C     C_R   0.698387 0.227282 0.139249 0.043420
C77   C     C_R   0.049346 0.235121 0.947843 0.546098
C78   C     C_3   0.752911 0.677108 0.772667 0.310462
C79   C     C_R   0.712009 0.561507 0.946330 0.545656
C80   C     C_R   0.723216 0.224391 0.948912 0.539950
C81   C     C_R   0.048380 0.243527 0.086229 0.530757
C82   C     C_R   0.710824 0.569224 0.085087 0.536722
C83   C     C_R   0.721492 0.234230 0.088139 0.527362
C84   C     C_1   0.697093 0.605535 0.898264 -0.007402
Cr1   Cr    Cr6+3 0.417550 0.169090 0.500530 1.015181
Cr2   Cr    Cr6+3 0.669180 0.913420 0.499920 1.014553
Cr3   Cr    Cr6+3 0.413260 0.917540 0.499520 1.017597
Cr4   Cr    Cr6+3 0.909770 0.175810 0.018240 1.019245
Cr5   Cr    Cr6+3 0.913300 0.427650 0.016090 1.025516
Cr6   Cr    Cr6+3 0.657770 0.431010 0.016900 1.020391
H1    H     H_    0.326247 0.144689 0.800497 0.084557
H2    H     H_    0.994389 0.353148 0.778729 0.114582
H3    H     H_    0.671784 0.339465 0.716332 0.098752
H4    H     H_    0.487781 0.182034 0.738579 0.079566
H5    H     H_    0.830342 0.998721 0.728910 0.105580
H6    H     H_    0.846943 0.177386 0.777437 0.111710
H7    H     H_    0.775621 0.756011 0.376035 0.132370
H8    H     H_    0.845241 0.521294 0.716743 0.085968
H9    H     H_    0.862943 0.498949 0.236933 0.116953
H10   H     H_    0.878907 0.472640 0.149609 0.134695
H11   H     H_    0.514667 0.772212 0.221554 0.110027
H12   H     H_    0.526807 0.738959 0.133271 0.115420
H13   H     H_    0.518795 0.656199 0.383850 0.135100
H14   H     H_    0.301643 0.953880 0.368939 0.133581
H15   H     H_    0.192878 0.312111 0.225701 0.099292
H16   H     H_    0.141075 0.346522 0.140605 0.120566
H17   H     H_    0.631678 0.858137 0.737010 0.120844
H18   H     H_    0.259688 0.974390 0.283319 0.095832
H19   H     H_    0.123202 0.031552 0.223825 0.098304
H20   H     H_    0.081441 0.059611 0.138150 0.126210
H21   H     H_    0.093873 0.342487 0.299081 0.092354
H22   H     H_    0.143447 0.321223 0.385016 0.116653
H23   H     H_    0.479000 0.298996 0.385353 0.127069
H24   H     H_    0.848861 0.176312 0.243644 0.110913
H25   H     H_    0.871675 0.183922 0.157301 0.130936
H26   H     H_    0.498547 0.347517 0.302396 0.093654
H27   H     H_    0.496824 0.266985 0.223021 0.106025
H28   H     H_    0.489063 0.808414 0.795988 0.101662
H29   H     H_    0.829323 0.041641 0.292065 0.111493
H30   H     H_    0.811251 0.993774 0.374767 0.128179
H31   H     H_    0.508414 0.644239 0.725282 0.109332
H32   H     H_    0.701630 0.473542 0.775659 0.120260
H33   H     H_    0.117359 0.014927 0.784336 0.106483
H34   H     H_    0.986786 0.188091 0.715677 0.103179
H35   H     H_    0.320959 0.976459 0.737383 0.104375
O1    O     O_R   0.301780 0.195490 0.553940 -0.511586
O2    O     O_R   0.658840 0.818280 0.449970 -0.504671
O3    O     O_R   0.503160 0.801780 0.445740 -0.522810
O4    O     O_R   0.319320 0.022190 0.450230 -0.505629
O5    O     O_3   0.499990 0.000010 0.499990 -0.241702
O6    O     O_R   0.819250 0.149410 0.965240 -0.505643
O7    O     O_R   0.006940 0.180310 0.968270 -0.494355
O8    O     O_R   0.028420 0.332670 0.963010 -0.502492
O9    O     O_R   0.810130 0.520390 0.966030 -0.488140
O10   O     O_R   0.636050 0.541380 0.962520 -0.505952
O11   O     O_R   0.666480 0.323610 0.968170 -0.491496
O12   O     O_R   0.522450 0.158840 0.550250 -0.497078
O13   O     O_R   0.817280 0.156800 0.072180 -0.519309
O14   O     O_R   0.005110 0.187160 0.067410 -0.508781
O15   O     O_R   0.026450 0.340060 0.069950 -0.526820
O16   O     O_R   0.808300 0.527240 0.065170 -0.504824
O17   O     O_R   0.634070 0.548770 0.069460 -0.517080
O18   O     O_R   0.664650 0.330470 0.067300 -0.501477
O19   O     O_3   0.826940 0.344820 0.017080 -0.248620
O20   O     O_R   0.694460 0.003360 0.553820 -0.508487
O21   O     O_R   0.657750 0.819520 0.549120 -0.496595
O22   O     O_R   0.501990 0.803120 0.552700 -0.508388
O23   O     O_R   0.318230 0.023430 0.549370 -0.493036
O24   O     O_R   0.302950 0.194150 0.446980 -0.518485
O25   O     O_R   0.523540 0.157600 0.451100 -0.503746
O26   O     O_R   0.695630 0.002030 0.446860 -0.522551
O27   O     O_3   0.843584 0.687054 0.793029 -0.545677
C85   C     C_3   0.888208 0.729767 0.757983 0.003200
H36   H     H_    0.824878 0.819720 0.749098 0.167540
H37   H     H_    0.912554 0.677253 0.724112 0.111877
C86   C     C_3   0.994086 0.727482 0.778308 -0.364624
H38   H     H_    0.058800 0.638549 0.787909 0.152678
H39   H     H_    0.030965 0.759571 0.750811 0.081525
H40   H     H_    0.971446 0.782723 0.811238 0.180823
C87   C     C_3   0.208526 0.336455 0.728008 -0.256075
C88   C     C_3   0.114236 0.426985 0.696308 -0.297028
C89   C     C_3   0.148953 0.510103 0.676069 -0.458486
H41   H     H_    0.165551 0.555175 0.706070 0.145590
H42   H     H_    0.226988 0.463640 0.653313 0.159380
H43   H     H_    0.078779 0.574652 0.653388 0.142991
H44   H     H_    0.094781 0.385735 0.665526 0.173878
H45   H     H_    0.035871 0.475485 0.718499 0.160228
H46   H     H_    0.220233 0.378174 0.760777 0.146730
H47   H     H_    0.290306 0.293268 0.707499 0.139925
O28   O     O_3   0.490251 0.378754 0.792854 -0.556197
C90   C     C_3   0.424524 0.452767 0.755384 -0.009618
H48   H     H_    0.385696 0.412830 0.732420 0.125805
H49   H     H_    0.477163 0.476024 0.732318 0.122977
C91   C     C_3   0.329471 0.562582 0.777744 -0.374907
H50   H     H_    0.366503 0.603120 0.801323 0.167754
H51   H     H_    0.278838 0.623455 0.748745 0.082625
H52   H     H_    0.272360 0.543520 0.799782 0.154384
O29   O     O_3   0.675231 0.998670 0.803825 -0.563315
C92   C     C_3   0.569094 0.026415 0.824611 -0.016047
H53   H     H_    0.517723 0.010908 0.797254 0.121711
H54   H     H_    0.519785 0.116780 0.837884 0.133208
C93   C     C_3   0.589286 0.949345 0.867706 -0.358481
H55   H     H_    0.635049 0.968119 0.896695 0.160379
H56   H     H_    0.506235 0.964180 0.882165 0.090718
H57   H     H_    0.641668 0.858448 0.856491 0.192130
O30   O     O_3   0.828227 0.699083 0.284016 -0.550071
C94   C     C_3   0.938848 0.634189 0.303951 -0.017986
H58   H     H_    0.955798 0.548988 0.316907 0.109029
H59   H     H_    0.950009 0.682009 0.334559 0.127674
C95   C     C_3   0.027371 0.613615 0.265230 -0.375528
H60   H     H_    0.015043 0.696577 0.252049 0.162008
H61   H     H_    0.114610 0.563500 0.280607 0.084297
H62   H     H_    0.019124 0.564931 0.234250 0.150514
C96   C     C_3   0.532679 0.580073 0.292500 -0.255026
C97   C     C_3   0.404444 0.667435 0.289464 -0.295526
C98   C     C_3   0.340011 0.617985 0.262190 -0.459329
H63   H     H_    0.373451 0.593551 0.224610 0.151227
H64   H     H_    0.348863 0.541746 0.281132 0.141803
H65   H     H_    0.247881 0.683181 0.260429 0.137913
H66   H     H_    0.367786 0.693082 0.326535 0.155177
H67   H     H_    0.390932 0.745448 0.270550 0.155924
H68   H     H_    0.565526 0.543303 0.255934 0.158757
H69   H     H_    0.545320 0.507414 0.315455 0.143576
C99   C     C_3   0.487179 0.290744 0.125817 -0.253457
C100  C     C_3   0.404691 0.419994 0.129574 -0.295513
C101  C     C_3   0.306042 0.458008 0.093908 -0.444549
H70   H     H_    0.258617 0.411874 0.100724 0.152457
H71   H     H_    0.246374 0.551258 0.098361 0.142851
H72   H     H_    0.338762 0.440789 0.056057 0.159332
H73   H     H_    0.369416 0.442795 0.166983 0.146757
H74   H     H_    0.451035 0.466947 0.121671 0.187060
H75   H     H_    0.513440 0.266357 0.087434 0.150833
H76   H     H_    0.442710 0.243839 0.136958 0.139213

loop_
_geom_bond_atom_site_label_1
_geom_bond_atom_site_label_2
_ccdc_geom_bond_type
C44   C49   A    
C58   C62   A    
C81   O15   A    
C66   C68   A    
C90   H48   S    
Cr2   O20   S    
C25   H3    S    
C95   H60   S    
C41   C42   A    
Cr1   O24   S    
C1    O20   A    
C11   H34   S    
C101  H72   S    
C82   O17   A    
C2    C12   S    
O29   C92   S    
C34   O25   A    
C78   O27   S    
C7    C8    S    
C53   C54   A    
C68   C75   S    
C90   H49   S    
C72   H25   S    
C11   C19   S    
C89   H41   S    
C66   H26   S    
C63   C81   S    
C60   C63   A    
C28   C37   T    
C12   O22   A    
C86   H38   S    
C19   C21   S    
C51   C56   S    
C4    C7    S    
C5    C6    S    
C13   H33   S    
C44   H9    S    
C101  H71   S    
C39   H7    S    
C57   H22   S    
C40   O30   S    
O28   C90   S    
C100  H74   S    
C45   O3    A    
C48   H11   S    
C96   H68   S    
C5    H31   S    
C17   C20   S    
C18   C19   S    
C73   C74   A    
C14   C77   S    
C12   O21   A    
C42   C96   S    
C91   H50   S    
C38   C45   S    
C95   H62   S    
C93   H55   S    
Cr5   O16   S    
C31   C32   S    
C70   H30   S    
C16   C17   S    
C94   C95   S    
C1    C28   S    
C68   C69   A    
C87   H47   S    
C31   C33   S    
C51   C57   A    
C64   C70   A    
C85   H37   S    
C88   H44   S    
C67   H8    S    
C3    H32   S    
C72   C76   A    
C92   C93   S    
C25   C32   S    
C15   C23   S    
C96   C97   S    
C33   O29   S    
C61   H19   S    
C47   H12   S    
C8    C78   S    
C7    H28   S    
Cr1   O1    S    
C61   C62   A    
C67   C78   S    
C77   O8    A    
C82   O16   A    
Cr2   O21   S    
C76   C83   S    
C41   C49   S    
Cr3   O3    S    
C20   H1    S    
C44   C46   A    
C88   C89   S    
C47   C50   A    
C89   H42   S    
C25   C29   S    
C38   C39   A    
C90   C91   S    
C71   C75   A    
C59   H16   S    
Cr5   O8    S    
C74   C75   A    
C51   C52   A    
C32   C35   S    
C18   C87   S    
C98   H64   S    
C27   C80   S    
Cr3   O23   S    
C56   O4    A    
C39   C40   A    
C5    C7    S    
C101  H70   S    
Cr2   O5    S    
C6    C8    S    
C54   C62   S    
C50   C82   S    
C58   C59   A    
C100  C101  S    
C99   H76   S    
C69   H29   S    
C92   H53   S    
C71   H24   S    
C60   C61   A    
C93   H57   S    
Cr4   O14   S    
C4    C78   S    
C29   C30   S    
Cr1   O5    S    
C89   H43   S    
Cr6   O11   S    
C11   C16   S    
C47   C48   A    
C91   H52   S    
C4    C9    S    
C48   C49   A    
Cr5   O15   S    
C99   H75   S    
C34   C64   S    
C13   C21   S    
C88   H45   S    
C32   C37   S    
O27   C85   S    
C85   C86   S    
C73   C99   S    
Cr4   O13   S    
Cr6   O17   S    
Cr3   O22   S    
O30   C94   S    
C23   O1    A    
C16   C18   S    
C15   C24   T    
C16   H2    S    
C55   C57   A    
C73   C76   A    
C42   C43   A    
Cr4   O7    S    
C21   H35   S    
C3    C4    S    
C2    C10   T    
C8    H17   S    
Cr1   O12   S    
C1    O12   A    
C52   C53   A    
Cr3   O5    S    
C97   H66   S    
C35   H4    S    
C81   O14   A    
C79   O9    A    
C46   H10   S    
C54   C55   A    
C52   H14   S    
C95   H61   S    
Cr5   O9    S    
Cr1   O25   S    
C30   C33   S    
C55   H21   S    
Cr2   O2    S    
C65   H23   S    
C74   H27   S    
C86   H40   S    
C3    C67   S    
Cr6   O18   S    
C98   H63   S    
C3    C5    S    
C43   H13   S    
C6    C10   S    
C29   H6    S    
C34   O26   A    
C26   C30   S    
C97   H67   S    
C30   C36   S    
C27   C36   T    
Cr5   O19   S    
C79   O10   A    
C23   O23   A    
C46   C50   A    
C59   C63   A    
C17   C22   S    
C80   O11   A    
C13   C17   S    
C58   H15   S    
C64   C65   A    
C14   C22   T    
C86   H39   S    
C19   C24   S    
C25   C26   S    
C94   H58   S    
C29   C31   S    
C6    C67   S    
Cr2   O26   S    
C87   C88   S    
C83   O18   A    
Cr6   O10   S    
C11   C13   S    
C53   H18   S    
Cr3   O4    S    
C79   C84   S    
C100  H73   S    
C45   O2    A    
C31   H5    S    
C96   H69   S    
C33   C35   S    
C91   H51   S    
Cr4   O19   S    
C18   C20   S    
C87   H46   S    
C69   C70   A    
C93   H56   S    
C94   H59   S    
C60   H20   S    
C9    C84   T    
C97   C98   S    
C26   C35   S    
C38   C43   A    
C71   C72   A    
C99   C100  S    
C26   O28   S    
C20   C21   S    
C65   C66   A    
C56   O24   A    
C80   O6    A    
C40   C41   A    
Cr4   O6    S    
C85   H36   S    
C77   O7    A    
C83   O13   A    
Cr6   O19   S    
C98   H65   S    
C92   H54   S    
