data_mof_unit_10529.cif
_audit_creation_date              2012-12-10T17:09:50-0500
_audit_creation_method            fapswitch 2.2
_symmetry_space_group_name_H-M    P1
_symmetry_Int_Tables_number       1
_space_group_crystal_system       triclinic
_cell_length_a                    10.779745
_cell_length_b                    13.03053
_cell_length_c                    11.696573
_cell_angle_alpha                 99.814288
_cell_angle_beta                  93.777553
_cell_angle_gamma                 90.524023
_cell_volume                      1615.05996186

loop_
_atom_site_label
_atom_site_type_symbol
_atom_type_description
_atom_site_fract_x
_atom_site_fract_y
_atom_site_fract_z
_atom_type_partial_charge
C1    C     C_R   0.496773 0.299279 0.478856 0.902995
C2    C     C_R   0.071461 0.593547 0.570663 0.095486
C3    C     C_R   0.128950 0.509705 0.501912 -0.105092
C4    C     C_R   0.058083 0.430846 0.430468 -0.145231
C5    C     C_R   0.930075 0.431316 0.429552 -0.178230
C6    C     C_R   0.871131 0.510618 0.500185 -0.087775
C7    C     C_R   0.501699 0.813193 0.533371 -0.203759
C8    C     C_R   0.498277 0.186057 0.467192 -0.176889
C9    C     C_R   0.562991 0.022184 0.360435 0.464483
C10   C     C_R   0.545590 0.128346 0.368796 -0.312538
C11   C     C_R   0.459477 0.136759 0.556727 0.398772
C12   C     C_R   0.262550 0.503003 0.500697 0.814711
C13   C     C_R   0.468721 0.027650 0.547268 -0.096613
C14   C     C_R   0.528994 0.970590 0.451629 -0.101236
C15   C     C_R   0.553771 0.864507 0.450721 0.417456
C16   C     C_R   0.436137 0.867837 0.622028 -0.335186
C17   C     C_R   0.418446 0.974513 0.630299 0.458347
C18   C     C_R   0.386314 0.401670 0.020173 -0.290740
C19   C     C_R   0.395632 0.410164 0.141613 0.581853
C20   C     C_R   0.549866 0.543740 0.157996 0.040019
C21   C     C_R   0.543224 0.537655 0.034763 -0.028246
C22   C     C_R   0.459769 0.465104 0.965765 -0.066620
C23   C     C_R   0.503687 0.700432 0.521269 0.785882
C24   C     C_R   0.451210 0.457342 0.843304 0.055964
C25   C     C_R   0.604585 0.590268 0.855392 0.034671
C26   C     C_R   0.616568 0.601101 0.977746 0.291640
C27   C     C_R   0.737460 0.503460 0.500034 0.768428
C28   C     C_R   0.140910 0.678294 0.637104 -0.169590
C29   C     C_R   0.081532 0.761024 0.701858 -0.102501
C30   C     C_R   0.952408 0.761698 0.700568 -0.084799
C31   C     C_R   0.881907 0.679628 0.634566 -0.182011
C32   C     C_R   0.940214 0.594125 0.569569 0.101519
Cu1   Cu    Cu3+1 0.509250 0.507730 0.615930 0.965673
Cu2   Cu    Cu3+1 0.490750 0.492270 0.384070 1.015560
H1    H     H_    0.102304 0.367278 0.377033 0.202259
H2    H     H_    0.573738 0.166846 0.299197 0.215869
H3    H     H_    0.386728 0.401839 0.790278 0.174265
H4    H     H_    0.660877 0.639060 0.812200 0.156575
H5    H     H_    0.321525 0.345347 0.968530 0.191264
H6    H     H_    0.613328 0.598596 0.212941 0.205154
H7    H     H_    0.241066 0.682520 0.638277 0.143489
H8    H     H_    0.135924 0.825454 0.752156 0.144626
H9    H     H_    0.906572 0.826671 0.749838 0.160112
H10   H     H_    0.781855 0.685130 0.633401 0.133028
H11   H     H_    0.876669 0.368074 0.375541 0.164219
H12   H     H_    0.395057 0.826438 0.683519 0.162387
N1    N     N_R   0.523180 0.519350 0.790130 -0.215925
N2    N     N_R   0.476820 0.480650 0.209890 -0.232263
O1    O     O_R   0.506570 0.354460 0.582000 -0.552238
O2    O     O_R   0.490940 0.341410 0.386200 -0.551017
O3    O     O_R   0.327470 0.506530 0.597920 -0.590106
O4    O     O_R   0.311840 0.493480 0.402120 -0.530329
O5    O     O_R   0.509060 0.658590 0.613800 -0.601111
O6    O     O_R   0.493430 0.645540 0.418000 -0.563201
O7    O     O_R   0.688160 0.506520 0.597880 -0.586424
O8    O     O_R   0.672530 0.493470 0.402080 -0.588743
O9    O     O_3   0.345928 0.025987 0.714389 -0.689100
H13   H     H_    0.318338 0.977016 0.764356 0.326744
O10   O     O_3   0.414062 0.196959 0.652897 -0.672940
H14   H     H_    0.465144 0.181900 0.721566 0.352160
Cl1   Cl    Cl    0.723843 0.694616 0.055059 -0.530290
Cl2   Cl    Cl    0.298943 0.326877 0.201107 -0.593180
O11   O     O_3   0.632175 0.813372 0.371974 -0.630082
H15   H     H_    0.676118 0.758420 0.406703 0.316014
Cl3   Cl    Cl    0.621136 0.959594 0.229216 -0.447619

loop_
_geom_bond_atom_site_label_1
_geom_bond_atom_site_label_2
_ccdc_geom_bond_type
Cu1   O7    S    
C6    C32   A    
C9    C14   A    
Cu2   O8    S    
C29   C30   A    
C25   H4    S    
Cu1   O3    S    
C1    C8    S    
C9    C10   A    
C25   N1    A    
C27   O7    A    
Cu2   O4    S    
C31   C32   A    
C6    C27   S    
C13   C17   A    
C18   H5    S    
C27   O8    A    
Cu1   N1    S    
C7    C15   A    
C2    C3    A    
C4    H1    S    
C29   H8    S    
O10   H14   S    
C18   C22   A    
C13   C14   A    
C11   C13   A    
Cu2   O6    S    
O9    H13   S    
C20   N2    A    
C5    H11   S    
C8    C11   A    
C11   O10   S    
C5    C6    A    
C2    C32   A    
C7    C16   A    
C12   O4    A    
C21   C26   A    
Cu1   Cu2   S    
C23   O5    A    
C22   C24   A    
Cu1   O5    S    
C30   C31   A    
C20   H6    S    
C7    C23   S    
C30   H9    S    
Cu2   O2    S    
Cu2   N2    S    
C31   H10   S    
C19   Cl2   S    
Cu1   O1    S    
O11   H15   S    
C28   H7    S    
C12   O3    A    
C20   C21   A    
C23   O6    A    
C8    C10   A    
C18   C19   A    
C1    O2    A    
C16   H12   S    
C24   H3    S    
C15   O11   S    
C14   C15   A    
C28   C29   A    
C2    C28   A    
C3    C12   S    
C19   N2    A    
C9    Cl3   S    
C25   C26   A    
C21   C22   A    
C24   N1    A    
C1    O1    A    
C26   Cl1   S    
C3    C4    A    
C16   C17   A    
C17   O9    S    
C4    C5    A    
C10   H2    S    
