data_mof_unit_29269.cif
_audit_creation_date              2012-10-26T20:19:35-0400
_audit_creation_method            fapswitch 2.2
_symmetry_space_group_name_H-M    P1
_symmetry_Int_Tables_number       1
_space_group_crystal_system       triclinic
_cell_length_a                    10.741617
_cell_length_b                    10.786597
_cell_length_c                    9.581946
_cell_angle_alpha                 88.358022
_cell_angle_beta                  89.785599
_cell_angle_gamma                 93.594275
_cell_volume                      1107.56106724

loop_
_atom_site_label
_atom_site_type_symbol
_atom_type_description
_atom_site_fract_x
_atom_site_fract_y
_atom_site_fract_z
_atom_type_partial_charge
C1    C     C_R   0.486609 0.261572 0.502194 0.546009
C2    C     C_R   0.412376 0.054518 0.623400 0.021152
C3    C     C_R   0.458570 0.125633 0.504684 -0.035260
C4    C     C_R   0.260038 0.499541 0.500447 0.531433
C5    C     C_R   0.464752 0.066855 0.377085 -0.143252
C6    C     C_R   0.448365 0.938658 0.368344 -0.014055
C7    C     C_R   0.443965 0.865726 0.494079 -0.012520
C8    C     C_R   0.675085 0.658121 0.138532 -0.081654
C9    C     C_R   0.765023 0.732616 0.063320 0.060228
C10   C     C_R   0.764207 0.731471 0.919152 -0.144883
C11   C     C_R   0.674761 0.658449 0.850138 -0.123592
C12   C     C_3   0.878395 0.497811 0.500010 0.073556
C13   C     C_R   0.586816 0.577007 0.922402 0.148619
C14   C     C_R   0.586860 0.576952 0.071976 0.132472
C15   C     C_R   0.415670 0.428729 0.076784 -0.006235
C16   C     C_R   0.480513 0.735131 0.497991 0.532201
C17   C     C_R   0.414929 0.429825 0.928897 -0.010365
C18   C     C_R   0.740122 0.499177 0.499978 0.567594
C19   C     C_3   0.071495 0.508131 0.652402 -0.240842
C20   C     C_3   0.928938 0.509167 0.651531 -0.256374
C21   C     C_3   0.079602 0.610600 0.412633 -0.231999
C22   C     C_3   0.066559 0.376423 0.439122 -0.223923
C23   C     C_3   0.936157 0.610491 0.412704 -0.238390
C24   C     C_3   0.122294 0.498721 0.501317 0.036248
C25   C     C_3   0.420569 0.889079 0.224138 -0.266702
C26   C     C_3   0.530538 0.915401 0.124093 -0.424285
C27   C     C_3   0.921801 0.373748 0.441072 -0.012222
C28   C     C_R   0.364406 0.109602 0.742843 -0.104318
C29   C     C_R   0.316351 0.037621 0.855817 -0.134439
C30   C     C_R   0.308658 0.909121 0.849877 -0.133088
C31   C     C_R   0.349839 0.852002 0.731420 -0.104151
C32   C     C_R   0.405451 0.922666 0.617902 0.014426
Cu1   Cu    Cu3+1 0.499990 0.499990 0.640660 0.893156
Cu2   Cu    Cu3+1 0.500010 0.500010 0.359340 0.912198
H1    H     H_    0.111381 0.594594 0.700384 0.127137
H2    H     H_    0.099455 0.427930 0.718341 0.121096
H3    H     H_    0.674245 0.670969 0.247883 0.179965
H4    H     H_    0.830989 0.791152 0.859426 0.123380
H5    H     H_    0.677891 0.671708 0.740015 0.185792
H6    H     H_    0.343319 0.374634 0.876406 0.090563
H7    H     H_    0.888944 0.431019 0.719479 0.131832
H8    H     H_    0.901149 0.597164 0.696943 0.122583
H9    H     H_    0.119837 0.699187 0.455417 0.110465
H10   H     H_    0.906957 0.698526 0.456933 0.091426
H11   H     H_    0.102571 0.367502 0.331016 0.122691
H12   H     H_    0.113709 0.606000 0.303166 0.133901
H13   H     H_    0.097715 0.295325 0.501236 0.089182
H14   H     H_    0.886437 0.296401 0.513172 0.133892
H15   H     H_    0.913749 0.409268 0.227282 0.232734
H16   H     H_    0.890184 0.258686 0.276031 0.216126
H17   H     H_    0.533104 0.012825 0.083009 0.145344
H18   H     H_    0.619230 0.901352 0.179051 0.163809
H19   H     H_    0.521160 0.853105 0.034031 0.158048
H20   H     H_    0.388883 0.789654 0.224671 0.180685
H21   H     H_    0.339667 0.936778 0.181107 0.123931
H22   H     H_    0.837479 0.812936 0.239318 0.206532
H23   H     H_    0.902296 0.607653 0.303563 0.156103
H24   H     H_    0.841735 0.904959 0.096229 0.227103
H25   H     H_    0.478632 0.121567 0.281135 0.148398
H26   H     H_    0.354506 0.207475 0.747848 0.132863
H27   H     H_    0.279979 0.081966 0.945985 0.097661
H28   H     H_    0.266196 0.853463 0.935236 0.110727
H29   H     H_    0.329245 0.752961 0.727209 0.148913
H30   H     H_    0.346498 0.370354 0.134282 0.104096
N1    N     N_R   0.501200 0.501210 0.147910 -0.241998
N2    N     N_R   0.501250 0.501290 0.852040 -0.238728
N3    N     N_3   0.870130 0.348807 0.302223 -0.608194
N4    N     N_3   0.854739 0.814174 0.131890 -0.650414
O1    O     O_R   0.499990 0.319640 0.618810 -0.500206
O2    O     O_R   0.500000 0.319660 0.381240 -0.492429
O3    O     O_R   0.317680 0.499970 0.618790 -0.524661
O4    O     O_R   0.317700 0.499990 0.381210 -0.518593
O5    O     O_R   0.500000 0.680340 0.618760 -0.530231
O6    O     O_R   0.500010 0.680360 0.381190 -0.529321
O7    O     O_R   0.682300 0.500010 0.618790 -0.528227
O8    O     O_R   0.682320 0.500030 0.381210 -0.480717

loop_
_geom_bond_atom_site_label_1
_geom_bond_atom_site_label_2
_ccdc_geom_bond_type
C27   H14   S    
C18   O7    A    
C19   C20   S    
C20   H7    S    
C12   C23   S    
C17   N2    A    
C16   O6    A    
C28   C29   A    
C19   H2    S    
C30   C31   A    
C4    C24   S    
C6    C25   S    
C15   N1    A    
C2    C32   A    
C21   H9    S    
Cu1   O7    S    
C8    C9    A    
C18   O8    A    
C15   H30   S    
H16   N3    S    
Cu2   O2    S    
Cu1   O1    S    
C22   H13   S    
C13   C14   A    
Cu2   N1    S    
Cu1   N2    S    
C13   N2    A    
C28   H26   S    
C29   H27   S    
C5    H25   S    
C12   C27   S    
C16   O5    A    
C31   H29   S    
C25   H20   S    
C25   C26   S    
H22   N4    S    
C1    O1    A    
C23   H10   S    
C1    C3    S    
C17   H6    S    
C29   C30   A    
C26   H18   S    
C31   C32   A    
C12   C20   S    
Cu1   Cu2   S    
C11   H5    S    
Cu2   O6    S    
C23   H23   S    
Cu1   O5    S    
C7    C16   S    
C22   C27   S    
C30   H28   S    
C22   C24   S    
C8    H3    S    
C26   H19   S    
Cu2   O4    S    
C4    O4    A    
C21   H12   S    
C9    C10   A    
H24   N4    S    
C15   C17   A    
C8    C14   A    
C7    C32   A    
H15   N3    S    
C25   H21   S    
C3    C5    A    
C20   H8    S    
C6    C7    A    
C1    O2    A    
C10   H4    S    
C21   C23   S    
C2    C3    A    
C9    N4    S    
C19   H1    S    
C26   H17   S    
C11   C13   A    
C5    C6    A    
C14   N1    A    
C19   C24   S    
C27   N3    S    
C10   C11   A    
Cu1   O3    S    
C22   H11   S    
C21   C24   S    
C12   C18   S    
C2    C28   A    
C4    O3    A    
Cu2   O8    S    
