data_mof_unit_30624.cif
_audit_creation_date              2012-12-11T20:51:19-0500
_audit_creation_method            fapswitch 2.2
_symmetry_space_group_name_H-M    P1
_symmetry_Int_Tables_number       1
_space_group_crystal_system       triclinic
_cell_length_a                    30.74342
_cell_length_b                    33.595112
_cell_length_c                    8.495384
_cell_angle_alpha                 89.804537
_cell_angle_beta                  89.851685
_cell_angle_gamma                 90.114372
_cell_volume                      8774.17779572

loop_
_atom_site_label
_atom_site_type_symbol
_atom_type_description
_atom_site_fract_x
_atom_site_fract_y
_atom_site_fract_z
_atom_type_partial_charge
Ba1   Ba    Ba6+2 0.999930 0.472870 0.844940 1.687650
Ba2   Ba    Ba6+2 0.999930 0.527130 0.344940 1.710863
Ba3   Ba    Ba6+2 0.499930 0.972870 0.844940 1.687649
Ba4   Ba    Ba6+2 0.499930 0.027130 0.344940 1.710849
C1    C     C_3   0.005747 0.273101 0.739134 1.061328
C2    C     C_3   0.036653 0.685495 0.121668 1.039285
C3    C     C_3   0.505748 0.773101 0.739135 1.061329
C4    C     C_3   0.536667 0.185481 0.121685 1.039269
C5    C     C_R   0.244801 0.694160 0.070273 -0.012818
C6    C     C_R   0.244435 0.306156 0.573792 -0.015307
C7    C     C_R   0.744802 0.194159 0.070276 -0.012821
C8    C     C_R   0.744433 0.806157 0.573812 -0.015305
C9    C     C_R   0.213672 0.665872 0.022456 0.570226
C10   C     C_R   0.212928 0.334442 0.528215 0.575227
C11   C     C_R   0.713673 0.165871 0.022460 0.570238
C12   C     C_R   0.712927 0.834442 0.528231 0.575229
C13   C     C_R   0.162814 0.717917 0.962695 0.616926
C14   C     C_R   0.164694 0.282172 0.447420 0.598309
C15   C     C_R   0.662815 0.217917 0.962691 0.616917
C16   C     C_R   0.664696 0.782172 0.447408 0.598308
C17   C     C_R   0.192914 0.747421 0.013954 -0.035599
C18   C     C_R   0.194511 0.252670 0.500648 -0.032253
C19   C     C_R   0.692915 0.247420 0.013950 -0.035593
C20   C     C_R   0.694512 0.752670 0.500635 -0.032253
C21   C     C_R   0.234479 0.735092 0.065904 -0.084682
C22   C     C_R   0.235104 0.265110 0.561107 -0.085660
C23   C     C_R   0.734479 0.235091 0.065904 -0.084682
C24   C     C_R   0.735104 0.765110 0.561111 -0.085659
C25   C     C_R   0.286115 0.682255 0.122923 -0.077959
C26   C     C_R   0.285163 0.318123 0.632228 -0.083167
C27   C     C_R   0.786115 0.182255 0.122929 -0.077959
C28   C     C_R   0.785158 0.818124 0.632269 -0.083168
C29   C     C_R   0.816820 0.210299 0.170058 -0.060197
C30   C     C_R   0.816230 0.790054 0.676344 -0.081073
C31   C     C_R   0.316820 0.710300 0.170051 -0.060198
C32   C     C_R   0.316235 0.290054 0.676298 -0.081073
C33   C     C_R   0.807279 0.251220 0.165987 -0.007833
C34   C     C_R   0.807478 0.749028 0.665180 -0.006644
C35   C     C_R   0.307279 0.751220 0.165983 -0.007834
C36   C     C_R   0.307482 0.249028 0.665151 -0.006645
C37   C     C_R   0.766033 0.263683 0.113906 -0.057697
C38   C     C_R   0.766731 0.736505 0.608545 -0.057671
C39   C     C_R   0.266033 0.763683 0.113906 -0.057697
C40   C     C_R   0.266732 0.236504 0.608538 -0.057671
C41   C     C_R   0.183046 0.788815 0.015093 0.191864
C42   C     C_R   0.185294 0.211132 0.494964 0.195676
C43   C     C_R   0.683048 0.288815 0.015087 0.191865
C44   C     C_R   0.685298 0.711132 0.494934 0.195675
C45   C     C_3   0.983446 0.337643 0.087584 0.345002
C46   C     C_3   0.990135 0.667788 0.592420 0.384551
C47   C     C_3   0.483447 0.837642 0.087586 0.345005
C48   C     C_3   0.490132 0.167789 0.592349 0.384551
C49   C     C_R   0.714770 0.316598 0.061129 -0.105484
C50   C     C_R   0.716842 0.683377 0.542696 -0.107289
C51   C     C_R   0.214769 0.816598 0.061135 -0.105483
C52   C     C_R   0.216839 0.183377 0.542726 -0.107288
C53   C     C_R   0.756282 0.304555 0.110776 -0.045444
C54   C     C_R   0.757642 0.695529 0.599382 -0.045383
C55   C     C_R   0.256281 0.804555 0.110778 -0.045445
C56   C     C_R   0.257641 0.195529 0.599393 -0.045383
C57   C     C_R   0.788046 0.332577 0.159266 0.595567
C58   C     C_R   0.789296 0.667503 0.649137 0.591631
C59   C     C_R   0.288045 0.832577 0.159268 0.595566
C60   C     C_R   0.289295 0.167503 0.649147 0.591630
C61   C     C_R   0.838321 0.279784 0.212843 0.588926
C62   C     C_R   0.838851 0.720415 0.708930 0.576094
C63   C     C_R   0.338320 0.779784 0.212839 0.588926
C64   C     C_R   0.338854 0.220415 0.708896 0.576096
C65   C     C_2   0.120808 0.646996 0.779638 -0.081742
C66   C     C_2   0.121879 0.354323 0.275061 -0.094790
C67   C     C_2   0.620807 0.146996 0.779642 -0.081767
C68   C     C_2   0.621879 0.854324 0.275059 -0.094788
C69   C     C_3   0.094413 0.613306 0.736747 -0.099918
C70   C     C_3   0.093549 0.386885 0.234463 -0.053601
C71   C     C_3   0.594411 0.113307 0.736755 -0.099894
C72   C     C_3   0.593550 0.886886 0.234462 -0.053602
C73   C     C_1   0.097355 0.588069 0.002523 0.107800
C74   C     C_1   0.096103 0.411165 0.503696 0.044737
C75   C     C_1   0.597355 0.088070 0.002527 0.107819
C76   C     C_1   0.596103 0.911165 0.503696 0.044735
C77   C     C_2   0.128544 0.615777 0.044273 -0.015448
C78   C     C_2   0.125996 0.382324 0.546248 -0.098184
C79   C     C_2   0.628546 0.115776 0.044274 -0.015501
C80   C     C_2   0.625996 0.882323 0.546249 -0.098185
C81   C     C_2   0.140990 0.647702 0.929318 0.202867
C82   C     C_2   0.140631 0.352233 0.427264 0.203486
C83   C     C_2   0.640991 0.147701 0.929320 0.202827
C84   C     C_2   0.640631 0.852233 0.427264 0.203480
C85   C     C_R   0.883918 0.345684 0.389441 -0.111721
C86   C     C_R   0.883689 0.654130 0.888760 -0.113172
C87   C     C_R   0.383918 0.845683 0.389440 -0.111723
C88   C     C_R   0.383689 0.154131 0.888756 -0.113190
C89   C     C_3   0.958214 0.298722 0.099717 -0.262560
C90   C     C_3   0.971126 0.709376 0.590282 -0.314876
C91   C     C_3   0.458216 0.798721 0.099720 -0.262558
C92   C     C_3   0.471122 0.209377 0.590145 -0.314827
C93   C     C_R   0.918395 0.374388 0.431494 -0.000575
C94   C     C_R   0.918040 0.625399 0.932802 -0.039367
C95   C     C_R   0.418395 0.874388 0.431494 -0.000576
C96   C     C_R   0.418038 0.125398 0.932805 -0.039356
C97   C     C_R   0.901899 0.412595 0.195739 -0.042615
C98   C     C_R   0.903094 0.587916 0.694344 0.015976
C99   C     C_R   0.401898 0.912595 0.195739 -0.042615
C100  C     C_R   0.403093 0.087916 0.694345 0.015981
C101  C     C_R   0.871562 0.382842 0.152583 -0.144186
C102  C     C_R   0.873306 0.618024 0.649645 -0.143455
C103  C     C_R   0.371562 0.882842 0.152583 -0.144184
C104  C     C_R   0.373306 0.118023 0.649644 -0.143445
C105  C     C_R   0.862184 0.349577 0.251596 0.211652
C106  C     C_R   0.862951 0.650711 0.748776 0.217167
C107  C     C_R   0.362183 0.849577 0.251595 0.211655
C108  C     C_R   0.362952 0.150711 0.748771 0.217185
C109  C     C_2   0.073021 0.595811 0.869977 -0.245092
C110  C     C_2   0.072170 0.403719 0.369628 -0.284185
C111  C     C_2   0.573019 0.095812 0.869986 -0.245152
C112  C     C_2   0.572170 0.903720 0.369627 -0.284185
C113  C     C_3   0.128865 0.476682 0.187404 0.288659
C114  C     C_3   0.129438 0.522979 0.687773 0.296988
C115  C     C_3   0.628866 0.976682 0.187404 0.288656
C116  C     C_3   0.629437 0.022979 0.687776 0.296988
C117  C     C_3   0.170020 0.451301 0.176668 -0.068125
C118  C     C_3   0.170368 0.548745 0.674486 -0.068285
C119  C     C_3   0.670021 0.951302 0.176668 -0.068123
C120  C     C_3   0.670367 0.048745 0.674489 -0.068288
C121  C     C_3   0.832950 0.484638 0.984372 0.473333
C122  C     C_3   0.838317 0.506163 0.466221 0.455460
C123  C     C_3   0.332950 0.984639 0.984371 0.473332
C124  C     C_3   0.338317 0.006163 0.466221 0.455462
C125  C     C_3   0.797113 0.468978 0.093625 -0.402075
C126  C     C_3   0.814924 0.546192 0.443761 -0.373368
C127  C     C_3   0.297113 0.968978 0.093623 -0.402076
C128  C     C_3   0.314924 0.046191 0.443760 -0.373373
C129  C     C_3   0.995828 0.312489 0.650363 0.392435
C130  C     C_3   0.988166 0.692022 0.091652 0.544853
C131  C     C_3   0.495830 0.812490 0.650364 0.392433
C132  C     C_3   0.488184 0.192013 0.091611 0.544883
C133  C     C_R   0.925044 0.408765 0.328035 -0.246359
C134  C     C_R   0.925484 0.591426 0.828414 -0.236315
C135  C     C_R   0.425044 0.908765 0.328034 -0.246359
C136  C     C_R   0.425482 0.091425 0.828417 -0.236318
H1    H     H_    0.023218 0.333872 0.667191 0.026566
H2    H     H_    0.981261 0.682879 0.968321 -0.225925
H3    H     H_    0.523219 0.833873 0.667194 0.026568
H4    H     H_    0.481287 0.182859 0.968286 -0.225952
H5    H     H_    0.199199 0.470171 0.197854 0.112070
H6    H     H_    0.199756 0.530138 0.694455 0.112061
H7    H     H_    0.699200 0.970172 0.197854 0.112071
H8    H     H_    0.699755 0.030138 0.694456 0.112061
H9    H     H_    0.169130 0.428225 0.270378 0.066704
H10   H     H_    0.169644 0.571758 0.767862 0.056554
H11   H     H_    0.669130 0.928225 0.270378 0.066701
H12   H     H_    0.669643 0.071758 0.767867 0.056559
H13   H     H_    0.839734 0.460719 0.897972 0.047434
H14   H     H_    0.856076 0.498455 0.357067 0.064794
H15   H     H_    0.339734 0.960720 0.897970 0.047436
H16   H     H_    0.356076 0.998454 0.357067 0.064794
H17   H     H_    0.809182 0.443250 0.162129 0.130732
H18   H     H_    0.835014 0.567074 0.373354 0.109847
H19   H     H_    0.309182 0.943250 0.162126 0.130732
H20   H     H_    0.335014 0.067073 0.373352 0.109840
H21   H     H_    0.768671 0.459086 0.023432 0.105679
H22   H     H_    0.784136 0.542070 0.377710 0.088843
H23   H     H_    0.268671 0.959086 0.023429 0.105678
H24   H     H_    0.284136 0.042069 0.377709 0.088843
H25   H     H_    0.786335 0.492220 0.176891 0.122493
H26   H     H_    0.806808 0.559255 0.559922 0.144555
H27   H     H_    0.286336 0.992220 0.176890 0.122494
H28   H     H_    0.306808 0.059255 0.559920 0.144551
H29   H     H_    0.020886 0.250506 0.661801 -0.060475
H30   H     H_    0.055727 0.697033 0.020353 -0.032107
H31   H     H_    0.520888 0.750507 0.661802 -0.060473
H32   H     H_    0.555751 0.197006 0.020371 -0.032117
H33   H     H_    0.945942 0.295046 0.220631 0.114852
H34   H     H_    0.982223 0.726196 0.694970 0.117483
H35   H     H_    0.445943 0.795046 0.220634 0.114850
H36   H     H_    0.482214 0.226205 0.694820 0.117497
H37   H     H_    0.706373 0.347916 0.060050 0.117515
H38   H     H_    0.708901 0.651971 0.536890 0.118004
H39   H     H_    0.206372 0.847916 0.060058 0.117515
H40   H     H_    0.208897 0.151971 0.536934 0.118004
H41   H     H_    0.848232 0.199732 0.209586 0.132141
H42   H     H_    0.847222 0.800682 0.719915 0.117073
H43   H     H_    0.348232 0.699732 0.209577 0.132141
H44   H     H_    0.347229 0.300681 0.719852 0.117075
H45   H     H_    0.876314 0.321721 0.470471 0.124358
H46   H     H_    0.875252 0.677629 0.969846 0.092084
H47   H     H_    0.376314 0.821720 0.470470 0.124357
H48   H     H_    0.375253 0.177631 0.969837 0.092071
H49   H     H_    0.294917 0.651068 0.127975 0.123191
H50   H     H_    0.293291 0.349374 0.643505 0.118726
H51   H     H_    0.794918 0.151068 0.127984 0.123191
H52   H     H_    0.793285 0.849374 0.643560 0.118724
H53   H     H_    0.142629 0.615333 0.161247 0.104601
H54   H     H_    0.138778 0.381436 0.665126 0.117182
H55   H     H_    0.642631 0.115331 0.161247 0.104619
H56   H     H_    0.638776 0.881435 0.665129 0.117190
H57   H     H_    0.129540 0.669099 0.691475 0.115790
H58   H     H_    0.132612 0.333984 0.183930 0.118167
H59   H     H_    0.629539 0.169100 0.691478 0.115809
H60   H     H_    0.632614 0.833986 0.183928 0.118171
H61   H     H_    0.854421 0.386069 0.042169 0.105002
H62   H     H_    0.857506 0.616028 0.536875 0.108213
H63   H     H_    0.354421 0.886069 0.042170 0.105000
H64   H     H_    0.357506 0.116028 0.536874 0.108204
H65   H     H_    0.948020 0.431499 0.362912 0.082309
H66   H     H_    0.947983 0.568468 0.864797 0.079714
H67   H     H_    0.448020 0.931499 0.362911 0.082309
H68   H     H_    0.447982 0.068467 0.864802 0.079714
H69   H     H_    0.037991 0.591590 0.872313 0.065657
H70   H     H_    0.037088 0.407351 0.372274 0.058334
H71   H     H_    0.537990 0.091593 0.872327 0.065646
H72   H     H_    0.537088 0.907351 0.372272 0.058334
H73   H     H_    0.972101 0.353700 0.981042 0.096607
H74   H     H_    0.974872 0.650744 0.495147 0.092189
H75   H     H_    0.472102 0.853699 0.981043 0.096606
H76   H     H_    0.474880 0.150740 0.495070 0.092227
H77   H     H_    0.975996 0.355575 0.193352 -0.048072
H78   H     H_    0.982327 0.653491 0.707184 -0.081714
H79   H     H_    0.475996 0.855575 0.193353 -0.048072
H80   H     H_    0.482312 0.153498 0.707114 -0.081684
H81   H     H_    0.929785 0.299164 0.019298 0.155271
H82   H     H_    0.935215 0.707317 0.589694 0.117152
H83   H     H_    0.429786 0.799163 0.019299 0.155274
H84   H     H_    0.435211 0.207318 0.589534 0.117129
H85   H     H_    0.978881 0.272628 0.073268 0.223482
H86   H     H_    0.981724 0.725454 0.482683 0.153149
H87   H     H_    0.478883 0.772627 0.073273 0.223479
H88   H     H_    0.481726 0.225446 0.482534 0.153175
H89   H     H_    0.122129 0.483090 0.312534 0.008978
H90   H     H_    0.123592 0.516027 0.813290 0.000879
H91   H     H_    0.622129 0.983090 0.312533 0.008977
H92   H     H_    0.623592 0.016026 0.813293 0.000881
H93   H     H_    0.100955 0.460535 0.134719 0.037052
H94   H     H_    0.101125 0.539187 0.638344 0.025413
H95   H     H_    0.600956 0.960535 0.134717 0.037051
H96   H     H_    0.601124 0.039187 0.638350 0.025416
N1    N     N_R   0.173102 0.677799 0.970792 -0.430495
N2    N     N_R   0.173326 0.322388 0.467417 -0.427702
N3    N     N_R   0.673103 0.177799 0.970792 -0.430490
N4    N     N_R   0.673326 0.822389 0.467418 -0.427702
N5    N     N_R   0.829110 0.320267 0.206798 -0.421979
N6    N     N_R   0.829918 0.679903 0.701485 -0.418428
N7    N     N_R   0.329109 0.820267 0.206797 -0.421979
N8    N     N_R   0.329919 0.179903 0.701476 -0.418430
O1    O     O_2   0.914200 0.445720 0.903420 -0.446767
O2    O     O_2   0.914200 0.554280 0.403420 -0.471825
O3    O     O_2   0.414200 0.945720 0.903420 -0.446767
O4    O     O_2   0.414200 0.054280 0.403420 -0.471831
O5    O     O_3   0.136478 0.487834 0.605039 -0.650787
O6    O     O_3   0.136346 0.512178 0.106665 -0.664070
O7    O     O_3   0.636477 0.987834 0.605039 -0.650787
O8    O     O_3   0.636347 0.012178 0.106666 -0.664072
O9    O     O_3   0.028532 0.330616 0.079408 -0.544086
O10   O     O_3   0.035288 0.670506 0.571392 -0.539468
O11   O     O_3   0.528533 0.830616 0.079410 -0.544085
O12   O     O_3   0.535287 0.170507 0.571389 -0.539485
O13   O     O_3   0.049930 0.518940 0.045960 -0.490326
O14   O     O_3   0.049930 0.481060 0.545960 -0.484443
O15   O     O_3   0.549930 0.018940 0.045960 -0.490324
O16   O     O_3   0.549930 0.981060 0.545960 -0.484441
O17   O     O_2   0.222880 0.630484 0.025012 -0.612087
O18   O     O_2   0.221051 0.369933 0.540428 -0.609241
O19   O     O_2   0.722881 0.130484 0.025018 -0.612083
O20   O     O_2   0.721048 0.869933 0.540455 -0.609245
O21   O     O_2   0.127438 0.727849 0.911095 -0.570686
O22   O     O_2   0.131137 0.272075 0.382541 -0.580719
O23   O     O_2   0.627440 0.227849 0.911086 -0.570689
O24   O     O_2   0.631140 0.772076 0.382519 -0.580715
O25   O     O_2   0.778786 0.367913 0.161570 -0.618154
O26   O     O_2   0.780330 0.632076 0.647803 -0.625776
O27   O     O_2   0.278786 0.867913 0.161574 -0.618153
O28   O     O_2   0.280327 0.132076 0.647828 -0.625774
O29   O     O_2   0.873732 0.268388 0.258829 -0.612722
O30   O     O_2   0.874449 0.731786 0.752480 -0.646247
O31   O     O_2   0.373732 0.768388 0.258823 -0.612722
O32   O     O_2   0.374456 0.231785 0.752419 -0.646247
O33   O     O_3   0.950020 0.480960 0.143730 -0.452237
O34   O     O_3   0.950020 0.519040 0.643730 -0.450745
O35   O     O_3   0.450020 0.980960 0.143730 -0.452236
O36   O     O_3   0.450020 0.019040 0.643730 -0.450743
O37   O     O_3   0.985090 0.412220 0.642040 -0.476247
O38   O     O_3   0.985090 0.587780 0.142040 -0.410384
O39   O     O_3   0.485090 0.912220 0.642040 -0.476246
O40   O     O_3   0.485090 0.087780 0.142040 -0.410386
O41   O     O_2   0.906701 0.388900 0.734292 -0.483598
O42   O     O_2   0.908360 0.613812 0.245203 -0.493873
O43   O     O_2   0.406701 0.888899 0.734292 -0.483597
O44   O     O_2   0.408364 0.113818 0.245222 -0.493878
O45   O     O_3   0.870019 0.495805 0.072553 -0.622672
O46   O     O_3   0.867608 0.506337 0.594131 -0.613464
O47   O     O_3   0.370019 0.995806 0.072554 -0.622673
O48   O     O_3   0.367608 0.006337 0.594130 -0.613464
O49   O     O_3   0.957182 0.328975 0.711903 -0.586749
O50   O     O_3   0.963432 0.670489 0.203705 -0.600778
O51   O     O_3   0.457183 0.828975 0.711902 -0.586749
O52   O     O_3   0.463438 0.170492 0.203668 -0.600813
O53   O     O_2   0.085560 0.445380 0.786390 -0.466308
O54   O     O_2   0.085560 0.554620 0.286390 -0.449964
O55   O     O_2   0.585560 0.945380 0.786390 -0.466310
O56   O     O_2   0.585560 0.054620 0.286390 -0.449944
O57   O     O_3   0.014550 0.412170 0.047860 -0.502860
O58   O     O_3   0.014550 0.587830 0.547860 -0.504503
O59   O     O_3   0.514550 0.912170 0.047860 -0.502859
O60   O     O_3   0.514550 0.087830 0.547860 -0.504503
O61   O     O_2   0.078999 0.374716 0.905833 -0.455674
O62   O     O_2   0.083027 0.622381 0.411442 -0.374333
O63   O     O_2   0.578999 0.874716 0.905833 -0.455674
O64   O     O_2   0.583030 0.122380 0.411458 -0.374309
P1    P     P_3+3 0.909970 0.458430 0.077330 0.995835
P2    P     P_3+3 0.909970 0.541570 0.577330 1.019050
P3    P     P_3+3 0.409970 0.958430 0.077330 0.995834
P4    P     P_3+3 0.409970 0.041570 0.577330 1.019048
P5    P     P_3+3 0.089830 0.458070 0.612460 0.985763
P6    P     P_3+3 0.089830 0.541930 0.112460 1.000389
P7    P     P_3+3 0.589830 0.958070 0.612460 0.985764
P8    P     P_3+3 0.589830 0.041930 0.112460 1.000405
P9    P     P_3+3 0.055316 0.376543 0.066696 1.005217
P10   P     P_3+3 0.057052 0.622460 0.567440 1.058178
P11   P     P_3+3 0.555317 0.876544 0.066696 1.005219
P12   P     P_3+3 0.557051 0.122461 0.567448 1.058166
P13   P     P_3+3 0.944563 0.624972 0.127111 1.011414
P14   P     P_3+3 0.944086 0.375304 0.626166 0.970480
P15   P     P_3+3 0.444564 0.124973 0.127110 1.011378
P16   P     P_3+3 0.444086 0.875304 0.626166 0.970480
N9    N     N_2   0.173060 0.432807 0.023002 -0.419174
H97   H     H_    0.173072 0.452862 0.930728 0.229962
C137  C     C_3   0.206531 0.402894 0.008057 -0.217969
H98   H     H_    0.204295 0.388774 0.890335 0.135423
H99   H     H_    0.202201 0.379346 0.098897 0.118305
H100  H     H_    0.239196 0.416714 0.020675 0.113606
N10   N     N_2   0.172673 0.567364 0.520387 -0.418529
H101  H     H_    0.173083 0.547342 0.428551 0.227751
C138  C     C_3   0.205269 0.598184 0.504229 -0.208181
H102  H     H_    0.202761 0.612039 0.385739 0.128618
H103  H     H_    0.238315 0.585323 0.518022 0.115035
H104  H     H_    0.200119 0.621752 0.593738 0.119677
N11   N     N_2   0.673061 0.932807 0.023002 -0.419175
H105  H     H_    0.673072 0.952862 0.930728 0.229962
C139  C     C_3   0.706532 0.902894 0.008057 -0.217973
H106  H     H_    0.704296 0.888775 0.890336 0.135433
H107  H     H_    0.702203 0.879347 0.098898 0.118302
H108  H     H_    0.739197 0.916715 0.020674 0.113605
N12   N     N_2   0.672672 0.067365 0.520392 -0.418525
H109  H     H_    0.673081 0.047344 0.428554 0.227751
C140  C     C_3   0.705268 0.098185 0.504235 -0.208175
H110  H     H_    0.702758 0.112041 0.385747 0.128617
H111  H     H_    0.738314 0.085323 0.518020 0.115032
H112  H     H_    0.700120 0.121752 0.593748 0.119680
N13   N     N_2   0.817390 0.518809 0.895076 -0.411077
H113  H     H_    0.790704 0.512796 0.825871 0.167208
C141  C     C_3   0.814516 0.556813 0.974827 -0.190489
H114  H     H_    0.806167 0.580319 0.888048 0.132286
H115  H     H_    0.846119 0.564991 0.028814 0.133265
H116  H     H_    0.788740 0.556011 0.066421 0.088885
N14   N     N_2   0.805343 0.475858 0.495445 -0.446497
H117  H     H_    0.782354 0.483550 0.578502 0.189072
C142  C     C_3   0.820669 0.435574 0.515827 -0.199810
H118  H     H_    0.792474 0.414931 0.522263 0.122044
H119  H     H_    0.839736 0.432878 0.626022 0.141529
H120  H     H_    0.840910 0.426902 0.414558 0.085846
N15   N     N_2   0.317390 0.018809 0.895078 -0.411077
H121  H     H_    0.290705 0.012797 0.825870 0.167209
C143  C     C_3   0.314516 0.056814 0.974831 -0.190492
H122  H     H_    0.306168 0.080320 0.888054 0.132295
H123  H     H_    0.346118 0.064991 0.028823 0.133259
H124  H     H_    0.288739 0.056011 0.066422 0.088885
N16   N     N_2   0.305343 0.975858 0.495445 -0.446497
H125  H     H_    0.282354 0.983550 0.578504 0.189072
C144  C     C_3   0.320668 0.935573 0.515826 -0.199810
H126  H     H_    0.292474 0.914931 0.522265 0.122045
H127  H     H_    0.339736 0.932878 0.626020 0.141528
H128  H     H_    0.340909 0.926902 0.414555 0.085847
N17   N     N_2   0.990704 0.303266 0.485180 -0.517954
H129  H     H_    0.967573 0.281572 0.465423 0.213136
C145  C     C_3   0.031233 0.296821 0.402122 -0.300387
H130  H     H_    0.025880 0.278364 0.296255 0.187928
H131  H     H_    0.055494 0.281209 0.475587 0.138393
H132  H     H_    0.044966 0.325919 0.369294 0.138744
N18   N     N_2   0.978900 0.734227 0.107680 -0.464999
H133  H     H_    0.984810 0.745669 0.218021 0.220403
C146  C     C_3   0.938034 0.747481 0.043616 -0.227784
H134  H     H_    0.934932 0.780154 0.059225 0.114017
H135  H     H_    0.910486 0.732539 0.104765 0.127599
H136  H     H_    0.937292 0.741124 0.916265 0.176299
N19   N     N_2   0.490706 0.803266 0.485181 -0.517953
H137  H     H_    0.467576 0.781572 0.465423 0.213133
C147  C     C_3   0.531235 0.796822 0.402124 -0.300384
H138  H     H_    0.525883 0.778365 0.296259 0.187930
H139  H     H_    0.555497 0.781211 0.475592 0.138382
H140  H     H_    0.544968 0.825921 0.369295 0.138744
N20   N     N_2   0.478922 0.234219 0.107568 -0.464996
H141  H     H_    0.484836 0.245674 0.217887 0.220390
C148  C     C_3   0.438056 0.247469 0.043498 -0.227767
H142  H     H_    0.434964 0.280146 0.058997 0.114037
H143  H     H_    0.410508 0.232546 0.104723 0.127589
H144  H     H_    0.437303 0.241083 0.916172 0.176300
F1    F     F_    0.034693 0.279420 0.859992 -0.708545
F2    F     F_    0.044678 0.645581 0.138738 -0.720835
F3    F     F_    0.534695 0.779421 0.859993 -0.708542
F4    F     F_    0.544684 0.145568 0.138826 -0.720796
N21   N     N_2   0.141084 0.803073 0.972765 -0.384053
H145  H     H_    0.141795 0.829671 0.911704 0.188641
C149  C     C_3   0.110451 0.804035 0.102342 -0.140548
H146  H     H_    0.121077 0.826061 0.191777 0.076274
H147  H     H_    0.107573 0.774217 0.158481 0.168677
H148  H     H_    0.077895 0.812761 0.057864 0.113822
N22   N     N_2   0.143989 0.196701 0.445281 -0.380925
H149  H     H_    0.145567 0.170336 0.383592 0.191023
C150  C     C_3   0.111690 0.195131 0.569420 -0.144551
H150  H     H_    0.121170 0.172830 0.659930 0.086478
H151  H     H_    0.079773 0.186428 0.519120 0.115991
H152  H     H_    0.108013 0.224722 0.625938 0.138387
N23   N     N_2   0.641085 0.303072 0.972755 -0.384050
H153  H     H_    0.641797 0.329670 0.911694 0.188641
C151  C     C_3   0.610452 0.304035 0.102330 -0.140544
H154  H     H_    0.621077 0.326061 0.191766 0.076271
H155  H     H_    0.607573 0.274217 0.158470 0.168679
H156  H     H_    0.577896 0.312761 0.057850 0.113823
N24   N     N_2   0.643995 0.696701 0.445231 -0.380922
H157  H     H_    0.645575 0.670338 0.383532 0.191022
C152  C     C_3   0.611692 0.695126 0.569360 -0.144551
H158  H     H_    0.621171 0.672823 0.659863 0.086474
H159  H     H_    0.579777 0.686423 0.519046 0.115992
H160  H     H_    0.608012 0.724715 0.625890 0.138381
F5    F     F_    0.967884 0.255887 0.795805 -0.702096
F6    F     F_    0.050077 0.704679 0.257061 -0.698813
F7    F     F_    0.467886 0.755887 0.795806 -0.702097
F8    F     F_    0.550085 0.204677 0.257061 -0.698842

loop_
_geom_bond_atom_site_label_1
_geom_bond_atom_site_label_2
_ccdc_geom_bond_type
C142  H118  S    
C121  N13   S    
O54   P6    D    
C147  H140  S    
Ba4   P8    S    
Ba2   O33   S    
N11   H105  S    
O3    P3    D    
C138  H102  S    
O4    P4    D    
C94   C134  S    
C149  H147  S    
C51   C55   A    
O1    P1    D    
C31   H43   S    
C70   C110  A    
C11   N3    Am   
C2    F6    S    
C91   H35   S    
N21   C149  S    
C7    C11   A    
C95   P16   S    
C8    C12   A    
C66   C70   A    
Ba2   P6    S    
C70   P9    S    
C122  N14   S    
C115  H91   S    
C43   C49   A    
C144  H128  S    
C103  C107  A    
O15   P8    S    
N23   C151  S    
C97   C101  A    
C38   C54   A    
C73   C109  A    
C19   C23   A    
C57   N5    Am   
O63   P11   D    
Ba2   O38   S    
O64   P12   D    
C14   O22   D    
C97   C133  D    
C9    N1    Am   
C86   H46   S    
O47   P3    S    
C13   C17   A    
C50   H38   S    
C45   H77   S    
C28   C30   A    
C15   C19   A    
O48   P4    S    
C3    F7    S    
C120  H8    S    
C74   C78   A    
N14   H117  S    
C7    C23   A    
C145  H130  S    
O49   P14   S    
Ba2   O58   S    
C140  H112  S    
Ba3   O55   S    
C58   O26   D    
C122  H14   S    
C115  H95   S    
C142  H120  S    
C146  H134  S    
C25   H49   S    
C71   C111  A    
C75   P8    S    
C147  H138  S    
Ba1   O14   S    
C138  H104  S    
C107  N7    S    
C24   C38   A    
C80   C84   S    
C49   H37   S    
C123  O47   S    
C113  O6    S    
C53   C57   A    
C115  C119  S    
C2    F2    S    
C148  H142  S    
C25   C31   A    
C55   C59   A    
C26   C32   A    
C56   C60   A    
Ba1   O1    S    
Ba1   O37   S    
O56   P8    D    
Ba3   O15   S    
O16   P7    S    
O57   P9    S    
C82   N2    S    
C117  H9    S    
C108  N8    S    
C118  H6    S    
C48   O12   S    
C123  C127  S    
C11   O19   D    
C124  H16   S    
C77   H53   S    
O41   P14   D    
C121  C125  S    
C137  H98   S    
C132  H4    S    
C96   P15   S    
O8    P8    S    
C51   H39   S    
C99   C103  A    
Ba4   O56   S    
C45   C89   S    
C150  H150  S    
C121  O45   S    
C47   C91   S    
N19   C147  S    
O33   P1    S    
C152  H158  S    
C45   H73   S    
C149  H146  S    
N24   H157  S    
C116  H92   S    
N21   H145  S    
C141  H116  S    
C22   C40   A    
C4    F4    S    
C1    C129  S    
O58   P10   S    
C92   H88   S    
C43   N23   S    
C99   P3    S    
O6    P6    S    
C102  H62   S    
C98   P2    S    
C114  C118  S    
C89   H33   S    
N9    C137  S    
C131  O51   S    
C5    C9    A    
C132  O52   S    
C114  H94   S    
C33   C61   A    
C146  H136  S    
C151  H155  S    
C89   H85   S    
C39   C55   A    
C126  H22   S    
C131  H3    S    
C127  H27   S    
C66   H58   S    
C79   H55   S    
C95   C135  S    
C93   C133  S    
C17   C41   A    
O2    P2    D    
O45   P1    S    
C148  H144  S    
C83   N3    S    
C61   O29   D    
C20   C44   A    
C76   C112  A    
O40   P15   S    
C6    C10   A    
C137  H99   S    
C1    F5    S    
C46   C90   S    
C47   H79   S    
C16   N4    Am   
C61   N5    Am   
C91   H83   S    
Ba3   P7    S    
C130  O50   S    
C103  H63   S    
C15   N3    Am   
C101  H61   S    
C113  H93   S    
C30   H42   S    
C125  H21   S    
C44   N24   S    
C150  H152  S    
C127  H19   S    
C135  H67   S    
C130  N18   S    
C119  N11   S    
N14   C142  S    
C152  H160  S    
N12   C140  S    
C36   C64   A    
O62   P10   D    
C143  H124  S    
C6    C26   A    
C131  N19   S    
N13   C141  S    
Ba3   Ba4   S    
C65   C81   A    
C15   O23   D    
C2    H30   S    
C145  H132  S    
N20   C148  S    
C17   C21   A    
Ba2   O14   S    
C14   C18   A    
O38   P13   S    
C85   H45   S    
C20   C24   A    
C147  H139  S    
C93   P14   S    
O9    P9    S    
C88   H48   S    
O35   P3    S    
C111  H71   S    
C19   C43   A    
C109  H69   S    
O13   P6    S    
C124  N16   S    
C80   H56   S    
C113  H89   S    
Ba4   O40   S    
C117  H5    S    
N22   C150  S    
C33   C37   A    
C69   P10   S    
C36   C40   A    
C139  H108  S    
C52   C56   A    
C41   C51   A    
Ba4   O16   S    
C42   C52   A    
C90   H82   S    
C87   C95   S    
C77   C81   S    
C14   N2    Am   
C144  H127  S    
C54   C58   A    
C79   C83   S    
N23   H153  S    
C3    H31   S    
C4    C132  S    
C1    F1    S    
C76   C80   A    
C47   O11   S    
C16   O24   D    
C71   P12   S    
C134  H66   S    
C5    C21   A    
N18   H133  S    
O34   P2    S    
C72   P11   S    
C132  N20   S    
C73   P6    S    
N15   C143  S    
N13   H113  S    
C8    C24   A    
C118  H10   S    
Ba1   O53   S    
N24   C152  S    
C75   C111  A    
N17   C145  S    
C52   H40   S    
C123  N15   S    
C122  C126  S    
C84   N4    S    
C27   H51   S    
C48   H76   S    
C69   C109  A    
C28   H52   S    
Ba4   O60   S    
O10   P10   S    
C101  C105  A    
O39   P16   S    
C122  O46   S    
C141  H114  S    
C94   P13   S    
O52   P15   S    
C143  H122  S    
C65   C69   A    
C140  H111  S    
C142  H119  S    
C21   C39   A    
C74   C110  A    
Ba3   O3    S    
C136  H68   S    
C57   O25   D    
N11   C139  S    
Ba1   O13   S    
C138  H103  S    
C119  H11   S    
C149  H148  S    
C123  H15   S    
C10   N2    Am   
C63   N7    Am   
C88   C108  D    
C78   C82   S    
C29   C33   A    
C104  C108  A    
C31   C35   A    
N10   H101  S    
C128  H24   S    
C46   O10   S    
C130  H2    S    
C126  H26   S    
C139  H106  S    
O50   P13   S    
C105  N5    S    
N16   C144  S    
O44   P15   D    
C41   N21   S    
C18   C42   A    
O46   P2    S    
Ba4   O15   S    
C29   H41   S    
C62   O30   D    
C100  C104  A    
N19   H137  S    
C47   H75   S    
Ba1   P1    S    
C49   C53   A    
C92   H36   S    
Ba3   P3    S    
C129  N17   S    
C114  O5    S    
C141  H115  S    
C67   H59   S    
C60   N8    Am   
O36   P4    S    
C129  H1    S    
C125  H25   S    
C126  H18   S    
Ba2   O2    S    
C37   C53   A    
Ba1   O34   S    
C112  H72   S    
Ba4   P4    S    
C75   C79   A    
C117  N9    S    
Ba3   O36   S    
C40   C56   A    
C4    F8    S    
C81   N1    S    
C63   O31   D    
N9    H97   S    
C78   H54   S    
O42   P13   D    
N18   C146  S    
C90   H86   S    
C100  C136  D    
C104  H64   S    
C18   C22   A    
C146  H135  S    
Ba4   O35   S    
C1    H29   S    
N17   H129  S    
C87   H47   S    
C4    H32   S    
N12   H109  S    
Ba1   P5    S    
O51   P16   S    
N16   H125  S    
C116  O7    S    
C68   C72   A    
C125  H17   S    
O14   P5    S    
N20   H141  S    
C133  H65   S    
C44   C50   A    
C148  H143  S    
C128  H20   S    
C76   P7    S    
C64   N8    Am   
C34   C38   A    
O59   P11   S    
O60   P12   S    
C46   H74   S    
Ba3   O16   S    
C85   C105  D    
Ba1   Ba2   S    
C98   C134  D    
C87   C107  D    
C113  C117  S    
Ba4   O4    S    
C59   O27   D    
C96   C136  S    
C100  P4    S    
C16   C20   A    
C92   H84   S    
C13   O21   D    
N22   H149  S    
C27   C29   A    
C98   C102  A    
C32   H44   S    
C73   C77   A    
C150  H151  S    
C60   O28   D    
O55   P7    D    
C6    C22   A    
C26   H50   S    
C120  H12   S    
C7    C27   A    
C152  H159  S    
C74   P5    S    
C8    C28   A    
C65   H57   S    
C143  H123  S    
Ba1   O57   S    
Ba2   O54   S    
C124  C128  S    
Ba3   O59   S    
C68   C84   A    
C121  H13   S    
C58   N6    Am   
C145  H131  S    
O7    P7    S    
O43   P16   D    
C106  N6    S    
C48   H80   S    
O61   P9    D    
C34   C62   A    
C32   C36   A    
C91   H87   S    
C10   O18   D    
C35   C39   A    
C62   N6    Am   
C46   H78   S    
C85   C93   S    
C3    C131  S    
C99   C135  D    
C68   H60   S    
C45   O9    S    
C23   C37   A    
C151  H154  S    
C64   O32   D    
C124  O48   S    
C59   N7    Am   
Ba2   O13   S    
C3    F3    S    
C151  H156  S    
N10   C138  S    
C12   N4    Am   
C90   H34   S    
C139  H107  S    
C119  H7    S    
C129  O49   S    
C67   C83   A    
C86   C106  D    
C66   C82   A    
C88   C96   S    
C144  H126  S    
C50   C54   A    
C30   C34   A    
C35   C63   A    
O37   P14   S    
C128  H28   S    
C120  N12   S    
C118  N10   S    
C137  H100  S    
C5    C25   A    
N15   H121  S    
C110  H70   S    
C42   N22   S    
O53   P5    D    
C2    C130  S    
C115  O8    S    
C116  H96   S    
C67   C71   A    
C114  H90   S    
Ba3   O39   S    
C72   C112  A    
C48   C92   S    
O5    P5    S    
C12   O20   D    
C97   P1    S    
C102  C106  A    
C127  H23   S    
Ba2   P2    S    
C89   H81   S    
C140  H110  S    
C9    O17   D    
C86   C94   S    
O11   P11   S    
C116  C120  S    
O12   P12   S    
C13   N1    Am   
