data_mof_unit_25179.cif
_audit_creation_date              2012-12-10T17:19:27-0500
_audit_creation_method            fapswitch 2.2
_symmetry_space_group_name_H-M    P1
_symmetry_Int_Tables_number       1
_space_group_crystal_system       triclinic
_cell_length_a                    15.063674
_cell_length_b                    10.824563
_cell_length_c                    9.589411
_cell_angle_alpha                 90.834363
_cell_angle_beta                  89.587582
_cell_angle_gamma                 93.857496
_cell_volume                      1559.88901153

loop_
_atom_site_label
_atom_site_type_symbol
_atom_type_description
_atom_site_fract_x
_atom_site_fract_y
_atom_site_fract_z
_atom_type_partial_charge
C1    C     C_R   0.493892 0.262206 0.498997 0.770966
C2    C     C_R   0.908453 0.552717 0.603699 0.107969
C3    C     C_R   0.953824 0.361803 0.287011 -0.209504
C4    C     C_R   0.046268 0.371809 0.284734 -0.225161
C5    C     C_R   0.093167 0.438609 0.389108 0.101920
C6    C     C_R   0.047098 0.496477 0.497465 0.074457
C7    C     C_R   0.094742 0.559323 0.606695 0.112359
C8    C     C_R   0.048828 0.618802 0.712774 -0.214733
C9    C     C_R   0.956256 0.616486 0.710578 -0.202033
C10   C     C_R   0.185701 0.445857 0.388529 -0.257472
C11   C     C_R   0.232720 0.504049 0.499250 -0.056877
C12   C     C_R   0.329157 0.503483 0.500247 0.793080
C13   C     C_R   0.187520 0.560762 0.608176 -0.250482
C14   C     C_R   0.354562 0.112548 0.668165 0.152450
C15   C     C_R   0.320472 0.051702 0.787031 -0.139275
C16   C     C_R   0.337166 0.929400 0.809044 -0.188951
C17   C     C_R   0.387874 0.866917 0.713138 -0.185886
C18   C     C_R   0.434435 0.930894 0.603857 0.079173
C19   C     C_R   0.423850 0.059574 0.589698 0.064734
C20   C     C_R   0.480840 0.127504 0.494877 -0.110155
C21   C     C_R   0.533203 0.065840 0.399507 -0.203858
C22   C     C_R   0.535096 0.938888 0.402100 -0.205372
C23   C     C_R   0.496192 0.737261 0.501576 0.773762
C24   C     C_R   0.488605 0.870769 0.504992 -0.089740
C25   C     C_R   0.617910 0.668454 0.145425 -0.169359
C26   C     C_R   0.675198 0.751279 0.073663 -0.216441
C27   C     C_R   0.674955 0.751443 0.929855 -0.208989
C28   C     C_R   0.617461 0.668733 0.856930 -0.143555
C29   C     C_R   0.557597 0.583255 0.925788 0.208999
C30   C     C_R   0.557653 0.583192 0.075425 0.210428
C31   C     C_R   0.445267 0.420552 0.073318 -0.061407
C32   C     C_R   0.445365 0.420522 0.925396 -0.062526
C33   C     C_R   0.670899 0.494835 0.499197 0.799404
C34   C     C_R   0.816301 0.551249 0.601655 -0.289993
C35   C     C_R   0.767528 0.486171 0.497362 -0.104386
C36   C     C_R   0.811148 0.415820 0.394075 0.099566
C37   C     C_R   0.905542 0.422340 0.391459 0.084850
C38   C     C_R   0.953508 0.490882 0.497082 0.020956
Cu1   Cu    Cu3+1 0.499990 0.499990 0.640660 0.918264
Cu2   Cu    Cu3+1 0.500010 0.500010 0.359340 0.925539
H1    H     H_    0.782141 0.602643 0.681221 0.153999
H2    H     H_    0.272821 0.094429 0.854239 0.129265
H3    H     H_    0.304926 0.879960 0.894926 0.144012
H4    H     H_    0.388527 0.768910 0.728502 0.178848
H5    H     H_    0.576661 0.894120 0.326671 0.150884
H6    H     H_    0.400426 0.355432 0.128071 0.131955
H7    H     H_    0.625138 0.673510 0.255456 0.197119
H8    H     H_    0.720666 0.815122 0.130344 0.146290
H9    H     H_    0.720110 0.815573 0.874059 0.144943
H10   H     H_    0.623236 0.675272 0.746846 0.195062
H11   H     H_    0.400790 0.355118 0.869828 0.128184
H12   H     H_    0.921745 0.306743 0.204893 0.155140
H13   H     H_    0.081192 0.325445 0.202048 0.142535
H14   H     H_    0.221127 0.400894 0.305224 0.150300
H15   H     H_    0.224595 0.607174 0.692609 0.144882
H16   H     H_    0.084507 0.667620 0.796899 0.143230
H17   H     H_    0.921921 0.663982 0.793024 0.143689
H18   H     H_    0.575094 0.116603 0.324563 0.151880
N1    N     N_R   0.500860 0.501210 0.147910 -0.196315
N2    N     N_R   0.500890 0.501290 0.852040 -0.201735
O1    O     O_R   0.499990 0.319640 0.618810 -0.569014
O2    O     O_R   0.500000 0.319660 0.381240 -0.584165
O3    O     O_R   0.370250 0.499960 0.618800 -0.600628
O4    O     O_R   0.370260 0.499980 0.381230 -0.578407
O5    O     O_R   0.500000 0.680340 0.618760 -0.614461
O6    O     O_R   0.500010 0.680360 0.381190 -0.587822
O7    O     O_R   0.629740 0.500020 0.618770 -0.592098
O8    O     O_R   0.629750 0.500040 0.381200 -0.593577
C39   C     C_3   0.300553 0.213833 0.612470 -0.398153
C40   C     C_3   0.205384 0.163598 0.579032 -0.841657
H19   H     H_    0.169584 0.130300 0.674285 0.247186
H20   H     H_    0.167292 0.237508 0.535099 0.254681
H21   H     H_    0.206432 0.086434 0.501478 0.257047
H22   H     H_    0.298061 0.289483 0.691257 0.210283
H23   H     H_    0.328346 0.251730 0.513959 0.192451
C41   C     C_3   0.757739 0.327425 0.295718 -0.396327
C42   C     C_3   0.746955 0.382833 0.151372 -0.763154
H24   H     H_    0.810682 0.389289 0.092682 0.230002
H25   H     H_    0.697761 0.323683 0.090269 0.234385
H26   H     H_    0.723278 0.477091 0.160554 0.269919
H27   H     H_    0.789145 0.237805 0.285845 0.178397
H28   H     H_    0.691071 0.300659 0.339676 0.208221

loop_
_geom_bond_atom_site_label_1
_geom_bond_atom_site_label_2
_ccdc_geom_bond_type
C4    H13   S    
C35   C36   A    
C1    O2    A    
C8    H16   S    
C7    C8    A    
C42   H24   S    
C26   C27   A    
C29   C30   A    
C18   C24   A    
C23   O6    A    
C36   C37   A    
C34   C35   A    
C5    C6    A    
C12   O4    A    
C15   C16   A    
Cu2   O2    S    
C18   C19   A    
C31   N1    A    
C36   C41   S    
C28   H10   S    
C19   C20   A    
C8    C9    A    
C31   H6    S    
C23   C24   S    
C6    C38   A    
C40   H19   S    
C25   H7    S    
C26   H8    S    
C2    C34   A    
Cu2   N1    S    
Cu2   O6    S    
C21   C22   A    
Cu1   O5    S    
C34   H1    S    
C42   H25   S    
Cu1   O1    S    
C41   C42   S    
C41   H28   S    
Cu1   Cu2   S    
C12   O3    A    
C16   C17   A    
C25   C26   A    
C32   H11   S    
C37   C38   A    
C2    C38   A    
C31   C32   A    
C29   N2    A    
C7    C13   A    
C3    H12   S    
C30   N1    A    
C40   H21   S    
C17   C18   A    
C39   H22   S    
C16   H3    S    
C14   C39   S    
C22   C24   A    
C32   N2    A    
C3    C4    A    
C33   O7    A    
C42   H26   S    
C25   C30   A    
C28   C29   A    
C1    C20   S    
Cu1   O7    S    
C14   C19   A    
C15   H2    S    
C4    C5    A    
C1    O1    A    
C41   H27   S    
C11   C12   S    
C6    C7    A    
Cu1   O3    S    
Cu2   O4    S    
C23   O5    A    
C17   H4    S    
C21   H18   S    
C11   C13   A    
Cu1   N2    S    
C33   C35   S    
C39   H23   S    
C9    H17   S    
C39   C40   S    
C10   H14   S    
C10   C11   A    
C5    C10   A    
C22   H5    S    
C20   C21   A    
C3    C37   A    
Cu2   O8    S    
C27   C28   A    
C14   C15   A    
C40   H20   S    
C2    C9    A    
C27   H9    S    
C33   O8    A    
C13   H15   S    
