data_mof_unit_68210.cif
_audit_creation_date              2012-12-11T16:32:33-0500
_audit_creation_method            fapswitch 2.2
_symmetry_space_group_name_H-M    P1
_symmetry_Int_Tables_number       1
_space_group_crystal_system       triclinic
_cell_length_a                    7.154981
_cell_length_b                    14.618784
_cell_length_c                    16.248877
_cell_angle_alpha                 90.332335
_cell_angle_beta                  91.085277
_cell_angle_gamma                 89.873804
_cell_volume                      1699.24857371

loop_
_atom_site_label
_atom_site_type_symbol
_atom_type_description
_atom_site_fract_x
_atom_site_fract_y
_atom_site_fract_z
_atom_type_partial_charge
O1    O     O_R   0.361630 0.167340 0.164570 -0.537708
O2    O     O_R   0.638370 0.832660 0.835430 -0.520956
O3    O     O_R   0.690860 0.157560 0.338690 -0.498164
O4    O     O_R   0.309140 0.842440 0.661310 -0.519011
O5    O     O_R   0.861260 0.336420 0.339380 -0.522006
O6    O     O_R   0.138740 0.663580 0.660620 -0.535598
C1    C     C_R   0.523757 0.137350 0.369920 0.819969
C2    C     C_R   0.476326 0.863988 0.631413 0.804120
O7    O     O_R   0.691330 0.156310 0.165190 -0.524185
O8    O     O_R   0.308670 0.843690 0.834810 -0.544285
O9    O     O_R   0.861730 0.335160 0.164640 -0.554180
O10   O     O_R   0.138270 0.664840 0.835360 -0.551586
C3    C     C_R   0.522233 0.133610 0.136912 0.751298
C4    C     C_R   0.479892 0.872563 0.856731 0.748364
O11   O     O_R   0.361150 0.168600 0.339320 -0.512003
O12   O     O_R   0.638850 0.831400 0.660680 -0.493900
O13   O     O_3   0.527950 0.310560 0.252000 -0.378065
O14   O     O_3   0.472050 0.689440 0.748000 -0.392475
V1    V     V_3+5 0.802770 0.240990 0.251980 1.554209
V2    V     V_3+5 0.197230 0.759010 0.748020 1.515704
O15   O     O_R   0.191450 0.346190 0.165260 -0.547300
O16   O     O_R   0.808550 0.653810 0.834740 -0.549844
C5    C     C_R   0.020904 0.370221 0.138992 0.662659
C6    C     C_R   0.978832 0.626280 0.858514 0.659722
O17   O     O_R   0.190980 0.347440 0.338770 -0.536875
O18   O     O_R   0.809020 0.652560 0.661230 -0.522864
C7    C     C_R   0.024049 0.367357 0.369052 0.714313
C8    C     C_R   0.977162 0.631508 0.632158 0.714584
V3    V     V_3+5 0.302780 0.262760 0.251980 1.499548
V4    V     V_3+5 0.697220 0.737240 0.748020 1.531495
O19   O     O_3   0.027730 0.193200 0.251960 -0.342599
O20   O     O_3   0.972270 0.806800 0.748040 -0.331970
C9    C     C_3   0.057667 0.417815 0.530603 -0.253565
C10   C     C_3   0.950144 0.581409 0.471191 -0.235309
C11   C     C_3   0.168072 0.508378 0.538615 0.373880
C12   C     C_3   0.839212 0.491168 0.462909 0.393346
H1    H     H_    0.104277 0.351033 0.555999 0.141015
H2    H     H_    0.904155 0.648369 0.445972 0.144983
C13   C     C_3   0.989432 0.560392 0.562824 -0.091650
C14   C     C_3   0.017148 0.438877 0.438800 -0.087799
C15   C     C_3   0.877171 0.470298 0.555048 -0.184179
C16   C     C_3   0.129710 0.528958 0.447002 -0.182405
H3    H     H_    0.777132 0.445328 0.600677 0.176093
H4    H     H_    0.237152 0.557145 0.406384 0.182810
C17   C     C_R   0.963006 0.689253 0.021766 -0.246248
C18   C     C_R   0.979673 0.306840 0.979428 -0.243744
C19   C     C_R   0.985092 0.733090 0.097609 0.195369
C20   C     C_R   0.032743 0.261954 0.908763 0.189796
C21   C     C_R   0.992315 0.679608 0.170721 0.113915
C22   C     C_R   0.049712 0.312108 0.835311 0.124809
C23   C     C_R   0.011454 0.582090 0.162177 0.031152
C24   C     C_R   0.041024 0.410884 0.840260 0.034275
C25   C     C_R   0.002215 0.537208 0.082091 0.029811
C26   C     C_R   0.005888 0.458235 0.917663 0.034544
C27   C     C_R   0.982591 0.593758 0.010819 -0.021735
C28   C     C_R   0.991327 0.402380 0.988795 -0.012356
C29   C     C_R   0.004592 0.439137 0.069993 -0.114314
C30   C     C_R   0.990306 0.557148 0.928769 -0.117248
H5    H     H_    0.949867 0.734028 0.969294 0.145944
H6    H     H_    0.955639 0.263110 0.031461 0.137999
C31   C     C_3   0.335400 0.013190 0.464348 0.373056
C32   C     C_3   0.666168 0.987262 0.536880 0.390526
C33   C     C_3   0.439915 0.920242 0.469403 -0.246788
C34   C     C_3   0.562330 0.080441 0.532266 -0.254704
H7    H     H_    0.387532 0.855047 0.442459 0.158016
H8    H     H_    0.615865 0.145710 0.558401 0.147703
C35   C     C_3   0.485455 0.937550 0.561755 -0.097433
C36   C     C_3   0.516083 0.063179 0.439802 -0.093026
C37   C     C_3   0.379162 0.030631 0.557151 -0.150118
C38   C     C_3   0.621774 0.970063 0.444911 -0.126836
H9    H     H_    0.280066 0.057671 0.602923 0.173157
H10   H     H_    0.729023 0.941177 0.404385 0.208871
C39   C     C_R   0.573344 0.191619 0.971696 -0.228784
C40   C     C_R   0.516526 0.812863 0.019397 -0.233932
C41   C     C_R   0.567065 0.231950 0.893666 0.167315
C42   C     C_R   0.493572 0.773554 0.095822 0.160247
C43   C     C_R   0.572568 0.174328 0.822809 0.089399
C44   C     C_R   0.490382 0.831208 0.166190 0.110078
C45   C     C_R   0.567281 0.077940 0.835675 0.084409
C46   C     C_R   0.510532 0.926215 0.156117 0.119086
C47   C     C_R   0.532027 0.038435 0.914112 0.025772
C48   C     C_R   0.506054 0.968010 0.077203 0.018517
C49   C     C_R   0.540915 0.097927 0.984038 -0.042151
C50   C     C_R   0.504217 0.908250 0.007325 -0.035636
C51   C     C_R   0.500628 0.942175 0.925992 -0.100126
C52   C     C_R   0.517894 0.065067 0.065684 -0.108031
H11   H     H_    0.592061 0.235528 0.024440 0.137476
H12   H     H_    0.522317 0.765816 0.967997 0.137872
Br1   Br    Br    0.415130 0.520819 0.585941 -0.610187
Br2   Br    Br    0.608680 0.486227 0.400629 -0.612480
C53   C     C_3   0.413703 0.799748 0.247547 -0.370797
C54   C     C_3   0.524434 0.732776 0.299153 -0.757869
H13   H     H_    0.430370 0.699664 0.343582 0.221673
H14   H     H_    0.584126 0.679306 0.259167 0.250528
H15   H     H_    0.627737 0.769138 0.337975 0.248975
H16   H     H_    0.368040 0.856672 0.287804 0.233621
H17   H     H_    0.289999 0.765240 0.229233 0.189212
C55   C     C_3   0.581782 0.205830 0.731689 -0.319099
C56   C     C_3   0.611164 0.304640 0.704790 -0.824464
H18   H     H_    0.478959 0.341543 0.697711 0.242185
H19   H     H_    0.712434 0.342627 0.743136 0.230824
H20   H     H_    0.667774 0.303578 0.641585 0.224545
H21   H     H_    0.699203 0.170877 0.702378 0.237023
H22   H     H_    0.457078 0.179508 0.697988 0.189088
C57   C     C_3   0.539209 0.334402 0.888373 -0.333796
C58   C     C_3   0.482000 0.383807 0.967504 -0.787091
H23   H     H_    0.601434 0.388220 0.011844 0.232314
H24   H     H_    0.438190 0.454461 0.953001 0.221957
H25   H     H_    0.363602 0.348693 0.996687 0.234907
H26   H     H_    0.667506 0.367953 0.867795 0.194681
H27   H     H_    0.423495 0.344057 0.844185 0.213039
C59   C     C_3   0.421586 0.676251 0.093292 -0.401946
C60   C     C_3   0.565496 0.604743 0.074484 -0.754823
H28   H     H_    0.625329 0.617631 0.013455 0.243563
H29   H     H_    0.668476 0.603487 0.125287 0.248196
H30   H     H_    0.498804 0.536820 0.071350 0.211985
H31   H     H_    0.354929 0.657540 0.149846 0.212302
H32   H     H_    0.315296 0.670477 0.043618 0.196673
Br3   Br    Br    0.671684 0.004966 0.751293 -0.615569
Br4   Br    Br    0.612262 0.985414 0.249869 -0.632182
C61   C     C_3   0.085700 0.265492 0.751415 -0.410898
C62   C     C_3   0.060906 0.162481 0.739091 -0.692741
H33   H     H_    0.190785 0.123299 0.751066 0.218238
H34   H     H_    0.948799 0.137247 0.777396 0.276465
H35   H     H_    0.022502 0.148087 0.673732 0.240461
H36   H     H_    0.989360 0.295415 0.704979 0.185964
H37   H     H_    0.226571 0.282636 0.732479 0.196049
C63   C     C_3   0.978877 0.719230 0.259464 -0.428497
C64   C     C_3   0.939413 0.820135 0.273089 -0.673353
H38   H     H_    0.058780 0.865979 0.264798 0.239707
H39   H     H_    0.823267 0.838966 0.232567 0.289374
H40   H     H_    0.902635 0.831260 0.338258 0.229578
H41   H     H_    0.867458 0.682082 0.290097 0.196412
H42   H     H_    0.100682 0.701566 0.299194 0.183802
C65   C     C_3   0.067018 0.828697 0.090327 -0.403285
C66   C     C_3   0.934807 0.903860 0.067278 -0.728092
H43   H     H_    0.875883 0.893567 0.004335 0.241899
H44   H     H_    0.829798 0.907299 0.113809 0.266604
H45   H     H_    0.010927 0.969552 0.071090 0.225431
H46   H     H_    0.143023 0.851285 0.144693 0.203173
H47   H     H_    0.168693 0.827960 0.040291 0.192446
C67   C     C_3   0.129428 0.171498 0.925269 -0.352835
C68   C     C_3   0.003092 0.091595 0.944077 -0.741123
H48   H     H_    0.929865 0.103675 0.002664 0.229734
H49   H     H_    0.900974 0.078998 0.894598 0.261540
H50   H     H_    0.090895 0.029214 0.949426 0.226056
H51   H     H_    0.226663 0.152854 0.877225 0.206148
H52   H     H_    0.217696 0.180812 0.981330 0.183957
C69   C     C_3   0.070077 0.529961 0.238530 -0.363211
C70   C     C_3   0.281780 0.516960 0.239729 -0.671497
H53   H     H_    0.334504 0.497548 0.178726 0.229222
H54   H     H_    0.347993 0.580251 0.261104 0.207339
H55   H     H_    0.330358 0.465781 0.283121 0.280873
H56   H     H_    0.032445 0.561597 0.296637 0.159950
H57   H     H_    0.984867 0.469744 0.246881 0.172835
C71   C     C_3   0.101429 0.464123 0.766225 -0.404779
C72   C     C_3   0.295174 0.504080 0.781552 -0.615970
H58   H     H_    0.320789 0.528069 0.845324 0.210988
H59   H     H_    0.408176 0.457721 0.765221 0.196527
H60   H     H_    0.308600 0.560395 0.739864 0.286657
H61   H     H_    0.110218 0.425906 0.708026 0.181882
H62   H     H_    0.993618 0.514783 0.750370 0.152450
Br5   Br    Br    0.101469 0.025827 0.403339 -0.528491
Br6   Br    Br    0.914242 0.964830 0.582330 -0.517512

loop_
_geom_bond_atom_site_label_1
_geom_bond_atom_site_label_2
_ccdc_geom_bond_type
C68   H50   S    
C59   H32   S    
C57   H26   S    
C33   H7    S    
C72   H58   S    
O6    C8    A    
O13   V3    S    
C10   C16   S    
O4    C2    A    
V1    O19   S    
C63   C64   S    
C46   Br4   S    
C65   C66   S    
C13   C15   S    
C64   H39   S    
O9    V1    S    
C40   C42   A    
C32   C35   S    
C34   C36   S    
C71   C72   S    
C42   C44   A    
C61   H37   S    
O3    C1    A    
V2    O20   S    
C59   H31   S    
C44   C46   A    
C58   H23   S    
C31   C37   S    
C55   H21   S    
C68   H49   S    
C28   C29   A    
C32   C38   S    
C31   C33   S    
C17   C19   A    
C37   H9    S    
C11   C16   S    
O7    C3    A    
C39   H11   S    
C32   C34   S    
C9    C11   S    
C53   H16   S    
O5    C7    A    
O7    V1    S    
C32   Br6   S    
O8    V2    S    
C21   C23   A    
C70   H55   S    
C45   Br3   S    
C3    C52   S    
C22   C24   A    
O3    V1    S    
O14   V4    S    
C10   C12   S    
C60   H30   S    
C19   C65   S    
C25   C27   A    
C57   H27   S    
C71   H62   S    
C72   H59   S    
C10   H2    S    
C15   H3    S    
C12   C15   S    
C22   C61   S    
C16   H4    S    
C66   H45   S    
C54   H14   S    
C59   C60   S    
C47   C49   A    
C24   C26   A    
O11   V3    S    
C18   C20   A    
C43   C45   A    
O17   V3    S    
C65   H46   S    
C33   C35   S    
C9    C14   S    
C10   C13   S    
C67   H52   S    
C12   C14   S    
C50   C51   A    
C46   C48   A    
O8    C4    A    
C53   C54   S    
C45   C47   A    
C25   C29   A    
C1    C36   S    
C1    O11   A    
C8    C13   S    
C48   C52   A    
O15   V3    S    
C54   H15   S    
C9    H1    S    
C35   C37   S    
C34   H8    S    
C11   C13   S    
C69   H56   S    
C70   H54   S    
C63   H42   S    
C14   C16   S    
C56   H18   S    
C33   C38   S    
C7    C14   S    
C42   C59   S    
O10   V2    S    
O1    V3    S    
C20   C67   S    
C43   C55   S    
C34   C37   S    
C53   H17   S    
C20   C22   A    
C41   C43   A    
C23   C69   S    
C61   C62   S    
C11   Br1   S    
C6    C30   S    
C56   H19   S    
C71   H61   S    
C41   C57   S    
C72   H60   S    
C48   C50   A    
O15   C5    A    
O16   C6    A    
O17   C7    A    
C39   C41   A    
C62   H34   S    
C66   H44   S    
C60   H28   S    
C26   C30   A    
C12   Br2   S    
C5    C29   S    
C21   C63   S    
C17   H5    S    
O16   V4    S    
C18   H6    S    
C31   Br5   S    
C67   H51   S    
C4    C51   S    
C40   C50   A    
C66   H43   S    
C26   C28   A    
O18   V4    S    
O5    V1    S    
C44   C53   S    
C19   C21   A    
O6    V2    S    
C57   C58   S    
O10   C6    A    
O18   C8    A    
O2    V4    S    
C9    C15   S    
C64   H40   S    
C62   H35   S    
C64   H38   S    
C61   H36   S    
V3    O19   S    
C40   H12   S    
C69   C70   S    
V4    O20   S    
C31   C36   S    
C58   H24   S    
C55   H22   S    
O9    C5    A    
C54   H13   S    
O13   V1    S    
O14   V2    S    
C69   H57   S    
C24   C71   S    
O2    C4    A    
O4    V2    S    
C65   H47   S    
C49   C52   A    
O1    C3    A    
C17   C27   A    
C2    C35   S    
C2    O12   A    
C55   C56   S    
C27   C30   A    
C18   C28   A    
C67   C68   S    
C36   C38   S    
C70   H53   S    
C38   H10   S    
C23   C25   A    
C62   H33   S    
C63   H41   S    
O12   V4    S    
C39   C49   A    
C47   C51   A    
C56   H20   S    
C68   H48   S    
C60   H29   S    
C58   H25   S    
