data_mof_unit_9626.cif
_audit_creation_date              2013-03-05T15:45:46-0500
_audit_creation_method            fapswitch 2.2
_symmetry_space_group_name_H-M    P1
_symmetry_Int_Tables_number       1
_space_group_crystal_system       triclinic
_cell_length_a                    18.901942
_cell_length_b                    11.199598
_cell_length_c                    18.671242
_cell_angle_alpha                 89.312828
_cell_angle_beta                  90.691094
_cell_angle_gamma                 90.560782
_cell_volume                      3951.83717377

loop_
_atom_site_label
_atom_site_type_symbol
_atom_site_description
_atom_site_fract_x
_atom_site_fract_y
_atom_site_fract_z
_atom_type_partial_charge
O1    O     O_R   0.214270 0.709000 0.827470 -0.425632
O2    O     O_R   0.785730 0.709000 0.172530 -0.425700
O3    O     O_R   0.714270 0.209000 0.827470 -0.420327
O4    O     O_R   0.285730 0.209000 0.172530 -0.444819
O5    O     O_R   0.236160 0.958490 0.823130 -0.485459
O6    O     O_R   0.763840 0.958490 0.176870 -0.487037
O7    O     O_R   0.736160 0.458490 0.823130 -0.490576
O8    O     O_R   0.263840 0.458490 0.176870 -0.508927
C1    C     C_R   0.272776 0.039855 0.854845 0.576778
C2    C     C_R   0.725062 0.035326 0.143417 0.577271
C3    C     C_R   0.772988 0.538633 0.855260 0.552766
C4    C     C_R   0.209807 0.498488 0.139385 0.595605
O9    O     O_R   0.332080 0.075470 0.831280 -0.538955
O10   O     O_R   0.667920 0.075470 0.168720 -0.566215
O11   O     O_R   0.832080 0.575470 0.831280 -0.556759
O12   O     O_R   0.167920 0.575470 0.168720 -0.568140
O13   O     O_R   0.446300 0.918110 0.826620 -0.468927
O14   O     O_R   0.553700 0.918110 0.173380 -0.468101
O15   O     O_R   0.946300 0.418110 0.826620 -0.473679
O16   O     O_R   0.053700 0.418110 0.173380 -0.497525
C5    C     C_R   0.466423 0.820282 0.856385 0.605176
C6    C     C_R   0.530453 0.821058 0.144804 0.607991
C7    C     C_R   0.937496 0.315837 0.861289 0.613265
C8    C     C_R   0.031621 0.321155 0.143847 0.598418
O17   O     O_R   0.457110 0.716200 0.831760 -0.518523
O18   O     O_R   0.542890 0.716200 0.168240 -0.542394
O19   O     O_R   0.957110 0.216200 0.831760 -0.515684
O20   O     O_R   0.042890 0.216200 0.168240 -0.536735
O21   O     O_R   0.320980 0.624310 0.823030 -0.502704
O22   O     O_R   0.679020 0.624310 0.176970 -0.508923
O23   O     O_R   0.820980 0.124310 0.823030 -0.530790
O24   O     O_R   0.179020 0.124310 0.176970 -0.506743
C9    C     C_R   0.258757 0.629877 0.849370 0.616194
C10   C     C_R   0.741228 0.630982 0.151051 0.618134
C11   C     C_R   0.758418 0.130213 0.848693 0.597607
C12   C     C_R   0.241068 0.130813 0.150802 0.611633
O25   O     O_R   0.213890 0.710430 0.665540 -0.469492
O26   O     O_R   0.786110 0.710430 0.334460 -0.471274
O27   O     O_R   0.713890 0.210430 0.665540 -0.490821
O28   O     O_R   0.286110 0.210430 0.334460 -0.457844
O29   O     O_R   0.235810 0.959820 0.673020 -0.544258
O30   O     O_R   0.764190 0.959820 0.326980 -0.543190
O31   O     O_R   0.735810 0.459820 0.673020 -0.539273
O32   O     O_R   0.264190 0.459820 0.326980 -0.541619
C13   C     C_R   0.269754 0.051843 0.647497 0.532149
C14   C     C_R   0.730216 0.049935 0.352160 0.521473
C15   C     C_R   0.770258 0.550841 0.647708 0.526161
C16   C     C_R   0.230514 0.550376 0.352085 0.531671
O33   O     O_R   0.331700 0.076900 0.669350 -0.468719
O34   O     O_R   0.668300 0.076900 0.330650 -0.498368
O35   O     O_R   0.831700 0.576900 0.669350 -0.487575
O36   O     O_R   0.168300 0.576900 0.330650 -0.467101
O37   O     O_R   0.445950 0.919440 0.676520 -0.433500
O38   O     O_R   0.554050 0.919440 0.323480 -0.449703
O39   O     O_R   0.945950 0.419440 0.676520 -0.427866
O40   O     O_R   0.054050 0.419440 0.323480 -0.430885
C17   C     C_R   0.470602 0.824367 0.647281 0.553364
C18   C     C_R   0.530479 0.821447 0.352827 0.577004
C19   C     C_R   0.970495 0.323995 0.647259 0.569251
C20   C     C_R   0.028946 0.322438 0.352178 0.566273
O41   O     O_R   0.456730 0.717630 0.669840 -0.555337
O42   O     O_R   0.543270 0.717630 0.330160 -0.556988
O43   O     O_R   0.956730 0.217630 0.669840 -0.553204
O44   O     O_R   0.043270 0.217630 0.330160 -0.558071
O45   O     O_R   0.320620 0.625640 0.672920 -0.522330
O46   O     O_R   0.679380 0.625640 0.327080 -0.523155
O47   O     O_R   0.820620 0.125640 0.672920 -0.530263
O48   O     O_R   0.179380 0.125640 0.327080 -0.516145
C21   C     C_R   0.275732 0.691574 0.636652 0.562854
C22   C     C_R   0.724021 0.691396 0.362664 0.566066
C23   C     C_R   0.775557 0.190809 0.636683 0.564680
C24   C     C_R   0.223290 0.193210 0.362459 0.573819
Cr1   Cr    Cr6+3 0.229630 0.835900 0.747350 1.083611
Cr2   Cr    Cr6+3 0.770370 0.835900 0.252650 1.076181
Cr3   Cr    Cr6+3 0.729630 0.335900 0.747350 1.059306
Cr4   Cr    Cr6+3 0.270370 0.335900 0.252650 1.064161
Cr5   Cr    Cr6+3 0.387410 0.989850 0.750850 1.113805
Cr6   Cr    Cr6+3 0.612590 0.989850 0.249150 1.085022
Cr7   Cr    Cr6+3 0.887410 0.489850 0.750850 1.094165
Cr8   Cr    Cr6+3 0.112590 0.489850 0.249150 1.084876
Cr9   Cr    Cr6+3 0.385800 0.677120 0.749340 1.004254
Cr10  Cr    Cr6+3 0.614200 0.677120 0.250660 0.997127
Cr11  Cr    Cr6+3 0.885800 0.177120 0.749340 0.986428
Cr12  Cr    Cr6+3 0.114200 0.177120 0.250660 0.990672
O49   O     O_3   0.334280 0.834290 0.749180 -0.286430
O50   O     O_3   0.665720 0.834290 0.250820 -0.283159
O51   O     O_3   0.834280 0.334290 0.749180 -0.310980
O52   O     O_3   0.165720 0.334290 0.250820 -0.310585
C25   C     C_3   0.470526 0.924488 0.029518 -0.150471
C26   C     C_3   0.525793 0.919930 0.969084 -0.158632
C27   C     C_3   0.963068 0.427860 0.033402 -0.154764
C28   C     C_3   0.009560 0.414786 0.966010 -0.145040
C29   C     C_3   0.427552 0.827614 0.991345 0.229232
C30   C     C_3   0.564363 0.821120 0.009439 0.192996
C31   C     C_3   0.912537 0.332797 0.002860 0.213878
C32   C     C_3   0.050104 0.314766 0.003340 0.196978
H1    H     H_    0.457354 0.009275 0.052271 0.223546
H2    H     H_    0.543149 0.998215 0.940604 0.218724
H3    H     H_    0.958069 0.516921 0.054609 0.214301
H4    H     H_    0.028135 0.489267 0.933229 0.227566
C33   C     C_3   0.482247 0.823787 0.931815 0.020579
C34   C     C_3   0.509992 0.825731 0.069658 -0.002859
C35   C     C_3   0.957938 0.320472 0.936682 0.014115
C36   C     C_3   0.004608 0.327292 0.070210 -0.001713
C37   C     C_3   0.521482 0.723971 0.971403 -0.160957
C38   C     C_3   0.465737 0.728071 0.032138 -0.155206
C39   C     C_3   0.999883 0.220027 0.973418 -0.152814
C40   C     C_3   0.953048 0.232393 0.040699 -0.158264
H5    H     H_    0.547421 0.647865 0.945652 0.127996
H6    H     H_    0.435178 0.656435 0.058785 0.127619
H7    H     H_    0.020650 0.139307 0.947731 0.135246
H8    H     H_    0.923524 0.164515 0.071971 0.127240
C41   C     C_R   0.293399 0.491867 0.956031 -0.020705
C42   C     C_R   0.701131 0.511705 0.043530 0.006479
C43   C     C_R   0.796207 0.008197 0.956507 -0.006360
C44   C     C_R   0.201413 0.010263 0.042207 0.003890
C45   C     C_R   0.279532 0.467466 0.028683 -0.079089
C46   C     C_R   0.703247 0.508276 0.968275 -0.054558
C47   C     C_R   0.793046 0.005696 0.031503 -0.071370
C48   C     C_R   0.204737 0.006499 0.967331 -0.046375
H9    H     H_    0.314933 0.412362 0.060283 0.160201
H10   H     H_    0.662727 0.459201 0.939190 0.143532
H11   H     H_    0.834400 0.962553 0.062695 0.151122
H12   H     H_    0.164637 0.957206 0.937709 0.142999
C49   C     C_R   0.220620 0.514294 0.062251 0.024389
C50   C     C_R   0.759308 0.563258 0.930958 0.034840
C51   C     C_R   0.734678 0.052325 0.066250 0.038152
C52   C     C_R   0.259938 0.063916 0.930729 0.044998
C53   C     C_R   0.166889 0.562984 0.020562 -0.089909
C54   C     C_R   0.814311 0.617421 0.969602 -0.077248
C55   C     C_R   0.676274 0.089345 0.025209 -0.075371
C56   C     C_R   0.314683 0.118606 0.969988 -0.080764
H13   H     H_    0.116568 0.582499 0.044432 0.144421
H14   H     H_    0.860831 0.651290 0.942771 0.184901
H15   H     H_    0.626365 0.107599 0.050155 0.156229
H16   H     H_    0.360262 0.156132 0.942957 0.181006
C57   C     C_R   0.175651 0.583762 0.947922 0.234621
C58   C     C_R   0.814633 0.620667 0.043325 0.226680
C59   C     C_R   0.679486 0.100899 0.951637 0.228450
C60   C     C_R   0.315563 0.116586 0.044206 0.208449
C61   C     C_R   0.241965 0.560862 0.915923 0.041900
C62   C     C_R   0.754619 0.577852 0.080896 0.075852
C63   C     C_R   0.742477 0.069079 0.916894 0.049216
C64   C     C_R   0.254838 0.075030 0.080943 0.066521
C65   C     C_R   0.517374 0.727312 0.542028 -0.189322
C66   C     C_R   0.518541 0.721285 0.468764 -0.191218
C67   C     C_R   0.998752 0.222358 0.537005 -0.188685
C68   C     C_R   0.999408 0.220671 0.463837 -0.191682
H17   H     H_    0.525742 0.645582 0.572519 0.146638
H18   H     H_    0.530721 0.635934 0.445709 0.144632
H19   H     H_    0.997756 0.136644 0.564331 0.147344
H20   H     H_    0.002309 0.134341 0.438541 0.142384
C69   C     C_R   0.506215 0.823347 0.426151 -0.010325
C70   C     C_R   0.499983 0.834110 0.575054 -0.013054
C71   C     C_R   0.000589 0.327515 0.424468 -0.001918
C72   C     C_R   0.996600 0.330813 0.573910 -0.014881
C73   C     C_R   0.487724 0.930622 0.457634 0.188619
C74   C     C_R   0.490280 0.938197 0.532503 0.197382
C75   C     C_R   0.995612 0.436876 0.460178 0.209625
C76   C     C_R   0.000712 0.439507 0.535107 0.192396
C77   C     C_R   0.228757 0.740646 0.515751 -0.079012
C78   C     C_R   0.771675 0.739682 0.479859 -0.115681
C79   C     C_R   0.726640 0.236092 0.517175 -0.115343
C80   C     C_R   0.263457 0.253028 0.481827 -0.096266
H21   H     H_    0.197401 0.809470 0.539650 0.116393
H22   H     H_    0.801838 0.809985 0.453849 0.115425
H23   H     H_    0.694673 0.303875 0.541379 0.116700
H24   H     H_    0.289827 0.326935 0.455736 0.106409
C81   C     C_R   0.221101 0.715527 0.442823 0.022363
C82   C     C_R   0.785412 0.710211 0.550988 -0.001151
C83   C     C_R   0.717812 0.210288 0.444822 0.000658
C84   C     C_R   0.277181 0.224960 0.553721 0.037187
C85   C     C_R   0.258369 0.616780 0.414748 0.022382
C86   C     C_R   0.745451 0.614658 0.583196 0.025310
C87   C     C_R   0.756727 0.114240 0.415602 0.021898
C88   C     C_R   0.242081 0.121056 0.584333 0.035183
C89   C     C_R   0.315298 0.570174 0.454395 -0.160884
C90   C     C_R   0.688313 0.564401 0.545163 -0.162245
C91   C     C_R   0.813398 0.066457 0.455080 -0.158225
C92   C     C_R   0.185198 0.070227 0.546058 -0.161332
H25   H     H_    0.349574 0.504199 0.431639 0.112390
H26   H     H_    0.654900 0.496031 0.568981 0.114410
H27   H     H_    0.847436 0.999932 0.432433 0.116967
H28   H     H_    0.153111 0.999457 0.569236 0.115465
C93   C     C_R   0.324523 0.600894 0.525986 -0.139232
C94   C     C_R   0.678953 0.591360 0.473126 -0.139177
C95   C     C_R   0.822628 0.096286 0.526581 -0.136369
C96   C     C_R   0.174669 0.099662 0.474256 -0.136743
H29   H     H_    0.367050 0.561063 0.556736 0.143328
H30   H     H_    0.639208 0.543366 0.443028 0.139409
H31   H     H_    0.864565 0.054443 0.556903 0.151640
H32   H     H_    0.133861 0.054270 0.444389 0.139786
C97   C     C_R   0.276011 0.676179 0.558678 0.029731
C98   C     C_R   0.724009 0.673634 0.439612 0.030669
C99   C     C_R   0.774961 0.173086 0.559296 0.021616
C100  C     C_R   0.220067 0.181096 0.440435 0.026885
N1    N     N_R   0.351260 0.826589 0.984147 0.054598
O53   O     O_R   0.322067 0.821615 0.921197 -0.354826
O54   O     O_R   0.312696 0.811743 0.040755 -0.397587
N2    N     N_R   0.640732 0.815947 0.015671 0.040254
O55   O     O_R   0.671094 0.816372 0.078178 -0.363638
O56   O     O_R   0.678661 0.805466 0.958529 -0.401281
N3    N     N_R   0.836446 0.333644 0.007058 0.047732
O57   O     O_R   0.798617 0.311452 0.950343 -0.398006
O58   O     O_R   0.807951 0.324949 0.069848 -0.407485
N4    N     N_R   0.126103 0.301552 0.999106 0.041768
O59   O     O_R   0.163041 0.282943 0.056916 -0.417247
O60   O     O_R   0.155915 0.293715 0.936963 -0.365431
C101  C     C_R   0.173206 0.791252 0.398093 0.060354
C102  C     C_R   0.192695 0.826644 0.328560 -0.049947
C103  C     C_R   0.144927 0.887807 0.284357 -0.057536
C104  C     C_R   0.078147 0.917732 0.309540 -0.062579
C105  C     C_R   0.059150 0.886719 0.379275 -0.101006
C106  C     C_R   0.106924 0.825521 0.423716 -0.057199
H33   H     H_    0.244195 0.804383 0.308002 0.121622
H34   H     H_    0.160431 0.913876 0.231054 0.133844
H35   H     H_    0.041622 0.966812 0.275596 0.115521
H36   H     H_    0.007575 0.910199 0.399047 0.096798
H37   H     H_    0.090786 0.799498 0.476909 0.156759
C107  C     C_R   0.844693 0.778028 0.585286 0.065167
C108  C     C_R   0.835586 0.835753 0.650661 -0.075580
C109  C     C_R   0.890062 0.907435 0.678680 -0.102850
C110  C     C_R   0.953879 0.921411 0.642965 -0.104067
C111  C     C_R   0.962619 0.868040 0.576889 -0.086975
C112  C     C_R   0.908412 0.797416 0.547793 -0.046092
H38   H     H_    0.786089 0.827578 0.679008 0.109438
H39   H     H_    0.882335 0.955522 0.727527 0.155992
H40   H     H_    0.995667 0.976581 0.665487 0.122311
H41   H     H_    0.011074 0.882785 0.548108 0.097326
H42   H     H_    0.916709 0.756365 0.496383 0.163511
C113  C     C_R   0.666205 0.282566 0.402625 0.046033
C114  C     C_R   0.684144 0.328209 0.334796 -0.054103
C115  C     C_R   0.634540 0.391781 0.294139 -0.068201
C116  C     C_R   0.567625 0.414520 0.321524 -0.084782
C117  C     C_R   0.549800 0.371959 0.389475 -0.099009
C118  C     C_R   0.598726 0.305861 0.429863 -0.071500
H43   H     H_    0.736156 0.313246 0.313093 0.120610
H44   H     H_    0.648917 0.426538 0.242202 0.145326
H45   H     H_    0.529908 0.466337 0.290526 0.119027
H46   H     H_    0.498129 0.390258 0.410852 0.116786
H47   H     H_    0.583681 0.271534 0.481966 0.155738
C119  C     C_R   0.335410 0.294852 0.589281 0.072328
C120  C     C_R   0.337530 0.304892 0.663660 -0.055462
C121  C     C_R   0.403447 0.303920 0.697408 -0.073283
C122  C     C_R   0.464326 0.336113 0.659824 -0.053414
C123  C     C_R   0.459488 0.358281 0.586542 -0.066680
C124  C     C_R   0.396276 0.331746 0.550519 -0.044741
H48   H     H_    0.290985 0.284571 0.695037 0.106637
H49   H     H_    0.407192 0.272904 0.752140 0.121937
H50   H     H_    0.515157 0.340817 0.687036 0.117558
H51   H     H_    0.506172 0.383867 0.556945 0.085480
H52   H     H_    0.398238 0.328532 0.492839 0.130312
C125  C     C_R   0.364430 0.454246 0.928659 0.043790
C126  C     C_R   0.424217 0.451561 0.974456 -0.048196
C127  C     C_R   0.491691 0.435004 0.947099 -0.046067
C128  C     C_R   0.502322 0.440076 0.874080 -0.069480
C129  C     C_R   0.443961 0.444142 0.829078 -0.078324
C130  C     C_R   0.375819 0.427729 0.856557 -0.052509
H53   H     H_    0.419695 0.463408 0.031119 0.114420
H54   H     H_    0.536671 0.426655 0.981632 0.161447
H55   H     H_    0.555278 0.442982 0.852639 0.124661
H56   H     H_    0.452029 0.463948 0.773455 0.103204
H57   H     H_    0.331473 0.415970 0.819959 0.111458
C131  C     C_R   0.639730 0.454416 0.080574 0.009443
C132  C     C_R   0.579672 0.521524 0.091464 -0.077154
C133  C     C_R   0.521374 0.475628 0.128665 -0.124227
C134  C     C_R   0.520400 0.357521 0.150585 -0.085559
C135  C     C_R   0.578428 0.286866 0.137501 -0.086965
C136  C     C_R   0.639406 0.335768 0.105109 -0.084495
H58   H     H_    0.580526 0.610408 0.071461 0.172012
H59   H     H_    0.476179 0.529940 0.139991 0.123638
H60   H     H_    0.474803 0.320835 0.177970 0.175530
H61   H     H_    0.574242 0.195291 0.154089 0.183091
H62   H     H_    0.685771 0.282500 0.099746 0.183379
C137  C     C_R   0.855103 0.945573 0.921528 0.067093
C138  C     C_R   0.924653 0.959338 0.947015 -0.040966
C139  C     C_R   0.980938 0.907620 0.911690 -0.034142
C140  C     C_R   0.967858 0.834129 0.853306 -0.061977
C141  C     C_R   0.898483 0.810985 0.831519 -0.141118
C142  C     C_R   0.842089 0.868634 0.863956 -0.091584
H63   H     H_    0.935368 0.009919 0.994351 0.091657
H64   H     H_    0.034551 0.923668 0.930243 0.140326
H65   H     H_    0.011239 0.794031 0.825327 0.182497
H66   H     H_    0.888987 0.752638 0.786827 0.163306
H67   H     H_    0.788657 0.852907 0.844451 0.132607
C143  C     C_R   0.139135 0.952043 0.076324 0.011124
C144  C     C_R   0.077457 0.017117 0.084333 -0.063592
C145  C     C_R   0.018982 0.968680 0.119718 -0.111668
C146  C     C_R   0.019440 0.850725 0.142110 -0.069541
C147  C     C_R   0.077246 0.780354 0.127329 -0.075880
C148  C     C_R   0.138298 0.830814 0.096175 -0.086350
H68   H     H_    0.076900 0.107093 0.065721 0.179786
H69   H     H_    0.973332 0.021550 0.130944 0.113365
H70   H     H_    0.974464 0.813526 0.170138 0.184744
H71   H     H_    0.072700 0.687519 0.141069 0.177620
H72   H     H_    0.184324 0.776687 0.087917 0.181727
N5    N     N_R   0.117369 0.634701 0.908614 0.051122
O61   O     O_R   0.099205 0.592933 0.846103 -0.332657
O62   O     O_R   0.074558 0.705822 0.940887 -0.403376
N6    N     N_R   0.876027 0.671181 0.078792 0.048231
O63   O     O_R   0.899982 0.624521 0.138567 -0.361072
O64   O     O_R   0.914682 0.750554 0.045776 -0.391310
N7    N     N_R   0.619726 0.151840 0.913823 0.056683
O65   O     O_R   0.599219 0.109672 0.852040 -0.341454
O66   O     O_R   0.577842 0.223404 0.946874 -0.384471
N8    N     N_R   0.378086 0.159091 0.081642 0.040649
O67   O     O_R   0.397764 0.108853 0.141962 -0.343583
O68   O     O_R   0.423218 0.228195 0.048960 -0.399758
N9    N     N_R   0.461769 0.027869 0.413808 0.110956
O69   O     O_R   0.478964 0.137711 0.427866 -0.329707
O70   O     O_R   0.418078 0.006732 0.360933 -0.307567
N10   N     N_R   0.473148 0.047924 0.564333 0.110484
O71   O     O_R   0.409902 0.088389 0.554580 -0.312479
O72   O     O_R   0.517524 0.100812 0.607578 -0.338723
N11   N     N_R   0.981697 0.544174 0.420778 0.080543
O73   O     O_R   0.033278 0.617312 0.406840 -0.310165
O74   O     O_R   0.922101 0.555125 0.385871 -0.331592
N12   N     N_R   0.022043 0.548253 0.569297 0.086729
O75   O     O_R   0.979506 0.605258 0.610488 -0.310372
O76   O     O_R   0.084367 0.593307 0.556616 -0.332177

loop_
_geom_bond_atom_site_label_1
_geom_bond_atom_site_label_2
_geom_bond_distance
_ccdc_geom_bond_type
C122  H50   1.082563 S    
O4    C12   1.276654 A    
C131  C136  1.400332 A    
O25   C21   1.313272 A    
C110  C111  1.389672 A    
Cr7   O51   2.002775 S    
C65   C66   1.370849 A    
N7    O66   1.298476 A    
C124  H52   1.079083 S    
N3    O58   1.298260 A    
C73   C74   1.401703 A    
C143  C148  1.403092 A    
C70   C74   1.414997 A    
O39   C19   1.298542 A    
O21   C9    1.282649 A    
C121  C122  1.397110 A    
N1    O54   1.299269 A    
C1    O9    1.268130 A    
C142  H67   1.082983 S    
O44   Cr12  2.069483 S    
C66   H18   1.081024 S    
C3    O11   1.271556 A    
C125  C130  1.401692 A    
C7    C35   1.456636 S    
C4    O12   1.305892 A    
C113  C118  1.406728 A    
C82   C107  1.490054 S    
O2    C10   1.271909 A    
C122  C123  1.389746 A    
O17   Cr9   2.081137 S    
C54   H14   1.080549 S    
O9    Cr5   2.088191 S    
O31   Cr3   1.954587 S    
C1    C52   1.468913 S    
O16   Cr8   1.964134 S    
C80   H24   1.076583 S    
C3    C50   1.469737 S    
C29   C33   1.528328 S    
N4    O59   1.294322 A    
O13   C5    1.281566 A    
O28   Cr4   2.083775 S    
O12   Cr8   2.062084 S    
C94   H30   1.076222 S    
O15   C7    1.319002 A    
C132  H58   1.059070 S    
C18   C69   1.449521 S    
O46   Cr10  1.959079 S    
C134  H60   1.082476 S    
N7    O65   1.304876 A    
O48   C24   1.297835 A    
C21   C97   1.468187 S    
N8    O67   1.304674 A    
C90   H26   1.082642 S    
C53   H13   1.080637 S    
C32   C36   1.533143 S    
C58   N6    1.443214 S    
C54   C58   1.377352 A    
N6    O63   1.304678 A    
C82   C86   1.434269 A    
Cr12  O52   2.003323 S    
C24   C100  1.462528 S    
C87   C91   1.399951 A    
C17   O41   1.288267 A    
C146  H70   1.081088 S    
C47   H11   1.083200 S    
C17   C70   1.467085 S    
C19   O43   1.284158 A    
C112  H42   1.083038 S    
C20   O44   1.280868 A    
C137  C142  1.403640 A    
C12   C64   1.479967 S    
C20   C71   1.460209 S    
Cr8   O52   2.019157 S    
C111  H41   1.077825 S    
O46   C22   1.296851 A    
C109  H39   1.076889 S    
C51   C55   1.399544 A    
C15   C86   1.467592 S    
C31   C40   1.527984 S    
C90   C94   1.384607 A    
C49   C53   1.384311 A    
C16   O36   1.274344 A    
C126  H53   1.072375 S    
C104  C105  1.393861 A    
C30   C34   1.534068 S    
N2    O56   1.299687 A    
C120  H48   1.083686 S    
O27   C23   1.311600 A    
C35   C39   1.533097 S    
O31   C15   1.292052 A    
C77   H21   1.080791 S    
C92   H28   1.082599 S    
C60   N8    1.445297 S    
C139  H64   1.081060 S    
O47   Cr11  1.962054 S    
C117  H46   1.081895 S    
C57   N5    1.435444 S    
C67   C68   1.366708 A    
C76   N12   1.433954 S    
C136  H62   1.071352 S    
O24   C12   1.277043 A    
C133  H59   1.078017 S    
C125  C126  1.409232 A    
C31   N3    1.441479 S    
C102  H33   1.083128 S    
C28   C32   1.520899 S    
N10   O71   1.292695 A    
C129  C130  1.401792 A    
C46   H10   1.082821 S    
O32   Cr4   1.979686 S    
N12   O76   1.300267 A    
C44   C64   1.431661 A    
C59   C63   1.413499 A    
O11   Cr7   2.088191 S    
C131  C132  1.385948 A    
C39   C40   1.553822 S    
C68   C71   1.396958 A    
O27   Cr3   2.104452 S    
O3    Cr3   2.072058 S    
C115  C116  1.396826 A    
C59   N7    1.443475 S    
O8    C4    1.310658 A    
C77   C81   1.399237 A    
C103  H34   1.077028 S    
C84   C119  1.497655 S    
C78   H22   1.081466 S    
C139  C140  1.392095 A    
N5    O62   1.299325 A    
C107  C108  1.401323 A    
C53   C57   1.384980 A    
C31   C35   1.521268 S    
C101  C102  1.405224 A    
C123  H51   1.081287 S    
N9    O70   1.301864 A    
C83   C113  1.486329 S    
C121  H49   1.077119 S    
O22   C10   1.278107 A    
C71   C75   1.406017 A    
C72   C76   1.411088 A    
C2    O10   1.272347 A    
C27   C28   1.552617 S    
C9    C61   1.491289 S    
C44   C48   1.401354 A    
C118  H47   1.081969 S    
C29   N1    1.446645 S    
O5    C1    1.284835 A    
C108  C109  1.399774 A    
C29   C38   1.525147 S    
C23   C99   1.460730 S    
O3    C11   1.276729 A    
C56   H16   1.082554 S    
C146  C147  1.385832 A    
C77   C97   1.393885 A    
Cr1   O49   1.978226 S    
C41   C45   1.407749 A    
C65   C70   1.396137 A    
Cr3   O51   1.978226 S    
C43   C47   1.402186 A    
C140  H65   1.081720 S    
C114  H43   1.083179 S    
C80   C84   1.396799 A    
O26   Cr2   2.083775 S    
C37   H5    1.105340 S    
C127  H54   1.064984 S    
O29   C13   1.297523 A    
O28   C24   1.314743 A    
O14   C6    1.287675 A    
C39   H7    1.106023 S    
C94   C98   1.396269 A    
C68   H20   1.083288 S    
C134  C135  1.384551 A    
C80   C100  1.380460 A    
C93   H29   1.079142 S    
O40   Cr8   1.940623 S    
C96   H32   1.073842 S    
C105  H36   1.082512 S    
O41   Cr9   2.055878 S    
C89   H25   1.081555 S    
C67   H19   1.081812 S    
O33   Cr5   2.078653 S    
O5    Cr1   1.985264 S    
N1    O53   1.293989 A    
O35   Cr7   2.078653 S    
C55   C59   1.380223 A    
O29   Cr1   1.954587 S    
O32   C16   1.297965 A    
C88   C92   1.403594 A    
C138  C139  1.393038 A    
C81   C85   1.425531 A    
C140  C141  1.391123 A    
C27   H3    1.082969 S    
C45   C49   1.394283 A    
Cr9   O49   2.019941 S    
C84   C88   1.448832 A    
C47   C51   1.395530 A    
C18   O42   1.268561 A    
Cr11  O51   2.019941 S    
O26   C22   1.306678 A    
C30   C37   1.527252 S    
O20   Cr12  2.078922 S    
C137  C138  1.400424 A    
C42   C131  1.493715 S    
C111  C112  1.396999 A    
C105  C106  1.397894 A    
C38   H6    1.101438 S    
N4    O60   1.300272 A    
C91   C95   1.388603 A    
C104  H35   1.081204 S    
C50   C54   1.396256 A    
C120  C121  1.389497 A    
C89   C93   1.392757 A    
C147  C148  1.408902 A    
O30   C14   1.297444 A    
C5    O17   1.268100 A    
C92   C96   1.389192 A    
C123  C124  1.395273 A    
N8    O68   1.298991 A    
C117  C118  1.398238 A    
O6    Cr2   1.963343 S    
C79   C83   1.392595 A    
C86   C90   1.402393 A    
O42   Cr10  2.069483 S    
N11   O73   1.294073 A    
O18   Cr10  2.078922 S    
C128  H55   1.082567 S    
O34   Cr6   2.086090 S    
N6    O64   1.299659 A    
C26   C30   1.518678 S    
O24   Cr12  1.954076 S    
O30   Cr2   1.979686 S    
C41   C125  1.508024 S    
C129  H56   1.071764 S    
O48   Cr12  1.959079 S    
C8    O20   1.274443 A    
C58   C62   1.417496 A    
O37   C17   1.295649 A    
C15   O35   1.257820 A    
C4    C49   1.465438 S    
Cr10  O50   2.003323 S    
C108  H38   1.083024 S    
O40   C20   1.294058 A    
O43   Cr11  2.055878 S    
O37   Cr5   1.962824 S    
C115  H44   1.077494 S    
O21   Cr9   1.936753 S    
C126  C127  1.394472 A    
O39   Cr7   1.962824 S    
O45   Cr9   1.962054 S    
C75   C76   1.401815 A    
C78   C82   1.386718 A    
C79   C99   1.390198 A    
C22   C98   1.448050 S    
O13   Cr5   1.959159 S    
C119  C120  1.394697 A    
C145  H69   1.075385 S    
O15   Cr7   1.959159 S    
C67   C72   1.404829 A    
C32   C39   1.523413 S    
O23   C11   1.283879 A    
C116  C117  1.393945 A    
C75   N11   1.426446 S    
C36   C40   1.537475 S    
C57   C61   1.421947 A    
C10   C62   1.470907 S    
C60   C64   1.416139 A    
O6    C2    1.286977 A    
C48   C52   1.400982 A    
C56   C60   1.385557 A    
C37   C38   1.558624 S    
C101  C106  1.405030 A    
O1    Cr1   2.072058 S    
O19   Cr11  2.081137 S    
C148  H72   1.078857 S    
C141  C142  1.399421 A    
C66   C69   1.404573 A    
O45   C21   1.307729 A    
C114  C115  1.394711 A    
N10   O72   1.300676 A    
O47   C23   1.304766 A    
C69   C73   1.393303 A    
C40   H8    1.104166 S    
C135  C136  1.410936 A    
C6    O18   1.271414 A    
C25   C26   1.548548 S    
O36   Cr8   2.086090 S    
C65   H17   1.084041 S    
C11   C63   1.471521 S    
O38   Cr6   1.940623 S    
N3    O57   1.295757 A    
O22   Cr10  1.954076 S    
C25   C34   1.524555 S    
N5    O61   1.303545 A    
C130  H57   1.083082 S    
O8    Cr4   1.963343 S    
C27   C36   1.530729 S    
C19   C72   1.462171 S    
O1    C9    1.287306 A    
N9    O69   1.298362 A    
O7    C3    1.280912 A    
C73   N9    1.440791 S    
C42   C62   1.427750 A    
C55   H15   1.079522 S    
C106  H37   1.078441 S    
C143  C144  1.391444 A    
C138  H63   1.071694 S    
C127  C128  1.380901 A    
O23   Cr11  1.936753 S    
C45   H9    1.080074 S    
C28   C35   1.532486 S    
C103  C104  1.397533 A    
C41   C61   1.444416 A    
N2    O55   1.294376 A    
C135  H61   1.070254 S    
C44   C143  1.486522 S    
C13   O33   1.265323 A    
C132  C133  1.399915 A    
Cr4   O52   1.977881 S    
C95   H31   1.076375 S    
O2    Cr2   2.100374 S    
O14   Cr6   1.964134 S    
C5    C33   1.437165 S    
Cr6   O50   2.019157 S    
C25   C29   1.527178 S    
C52   C56   1.401179 A    
C91   H27   1.082294 S    
C33   C37   1.526181 S    
C43   C63   1.423646 A    
N11   O74   1.300717 A    
C30   N2    1.448478 S    
C147  H71   1.070800 S    
O16   C8    1.287344 A    
C13   C88   1.495482 S    
C110  H40   1.082206 S    
O7    Cr3   1.985264 S    
C141  H66   1.078294 S    
C83   C87   1.426569 A    
C25   H1    1.077510 S    
C8    C36   1.461948 S    
C79   H23   1.081401 S    
C26   C33   1.519191 S    
N12   O75   1.297040 A    
C32   N4    1.448761 S    
C85   C89   1.400315 A    
C81   C101  1.488671 S    
C128  C129  1.379393 A    
C78   C98   1.381147 A    
Cr2   O50   1.977881 S    
C42   C46   1.407163 A    
C7    O19   1.309365 A    
C144  C145  1.396331 A    
C2    C51   1.464324 S    
C28   H4    1.086692 S    
C16   C85   1.482410 S    
O38   C18   1.298117 A    
O25   Cr1   2.104452 S    
C95   C99   1.402057 A    
C144  H68   1.062085 S    
C74   N10   1.413588 S    
C93   C97   1.401909 A    
C14   O34   1.270763 A    
C119  C124  1.421891 A    
C6    C34   1.451362 S    
C145  C146  1.380910 A    
C107  C112  1.413997 A    
C34   C38   1.540505 S    
C116  H45   1.081709 S    
O10   Cr6   2.062084 S    
C109  C110  1.391923 A    
O4    Cr4   2.100374 S    
C133  C134  1.379939 A    
Cr5   O49   2.002775 S    
C14   C87   1.473769 S    
C43   C137  1.483770 S    
C96   C100  1.396737 A    
C27   C31   1.533793 S    
C102  C103  1.395061 A    
C113  C114  1.404160 A    
C46   C50   1.407925 A    
C26   H2    1.070750 S    
C48   H12   1.083617 S    
