data_mof_unit_7924.cif
_audit_creation_date              2012-12-10T20:32:44-0500
_audit_creation_method            fapswitch 2.2
_symmetry_space_group_name_H-M    P1
_symmetry_Int_Tables_number       1
_space_group_crystal_system       triclinic
_cell_length_a                    11.48947
_cell_length_b                    10.647648
_cell_length_c                    9.976799
_cell_angle_alpha                 91.108294
_cell_angle_beta                  91.320311
_cell_angle_gamma                 91.839189
_cell_volume                      1219.3210534

loop_
_atom_site_label
_atom_site_type_symbol
_atom_type_description
_atom_site_fract_x
_atom_site_fract_y
_atom_site_fract_z
_atom_type_partial_charge
C1    C     C_R   0.496919 0.260931 0.498641 0.896916
C2    C     C_R   0.498927 0.129584 0.493677 -0.147064
C3    C     C_R   0.418273 0.060745 0.412842 -0.282874
C4    C     C_R   0.420366 0.929929 0.412185 0.515500
C5    C     C_R   0.502202 0.872024 0.497122 -0.212367
C6    C     C_R   0.595512 0.943348 0.553494 -0.019276
C7    C     C_3   0.661905 0.945297 0.685503 -0.102715
C8    C     C_3   0.648595 0.088063 0.688858 -0.477932
C9    C     C_R   0.412107 0.442360 0.065664 -0.033518
C10   C     C_R   0.578384 0.573450 0.078044 0.505586
C11   C     C_R   0.583164 0.567328 0.933696 -0.000178
C12   C     C_R   0.282223 0.499243 0.498679 0.908375
C13   C     C_R   0.409446 0.446546 0.925207 0.083136
C14   C     C_3   0.357306 0.316763 0.908597 -0.532823
C15   C     C_3   0.362717 0.309292 0.062911 0.591359
C16   C     C_R   0.502340 0.739571 0.500598 0.929908
C17   C     C_R   0.717690 0.499014 0.501074 0.879947
C18   C     C_1   0.161549 0.496994 0.496245 -0.185927
C19   C     C_1   0.059133 0.495317 0.496933 -0.007078
C20   C     C_1   0.940423 0.494769 0.499752 -0.021784
C21   C     C_1   0.838140 0.496123 0.502048 -0.222939
C22   C     C_R   0.590140 0.070646 0.555405 0.088895
H1    H     H_    0.350716 0.107463 0.357104 0.182033
H2    H     H_    0.413446 0.250888 0.854419 0.209479
H3    H     H_    0.615209 0.895272 0.766166 0.165949
H4    H     H_    0.588108 0.119898 0.767008 0.188197
H5    H     H_    0.730552 0.145755 0.682162 0.191862
H6    H     H_    0.267842 0.319786 0.864221 0.170504
N1    N     N_R   0.499240 0.499140 0.142800 -0.159456
N2    N     N_R   0.499240 0.499180 0.857150 -0.123646
O1    O     O_R   0.500010 0.316790 0.614690 -0.625551
O2    O     O_R   0.500000 0.316760 0.385350 -0.598187
O3    O     O_R   0.334450 0.500030 0.614670 -0.602071
O4    O     O_R   0.334440 0.500000 0.385330 -0.616433
O5    O     O_R   0.500000 0.683240 0.614650 -0.645247
O6    O     O_R   0.499990 0.683210 0.385310 -0.548111
O7    O     O_R   0.665560 0.500000 0.614670 -0.630521
O8    O     O_R   0.665550 0.499970 0.385330 -0.616296
Zn1   Zn    Zn3+2 0.500010 0.500020 0.653130 0.924808
Zn2   Zn    Zn3+2 0.499990 0.499980 0.346870 0.977293
C23   C     C_3   0.241527 0.303257 0.126810 -0.384043
C24   C     C_3   0.173618 0.179475 0.094048 -0.348991
C25   C     C_3   0.052969 0.179181 0.154966 -0.897923
H7    H     H_    0.060533 0.190777 0.265775 0.266792
H8    H     H_    0.001389 0.256565 0.113504 0.258472
H9    H     H_    0.006215 0.088423 0.130493 0.251613
H10   H     H_    0.163187 0.164993 0.983840 0.217203
H11   H     H_    0.221642 0.099745 0.135046 0.243712
H12   H     H_    0.253371 0.312932 0.237355 0.214035
H13   H     H_    0.189055 0.383155 0.092281 0.169619
O9    O     O_3   0.435083 0.213402 0.113924 -0.601381
C26   C     C_3   0.554943 0.226574 0.084303 -0.293920
H14   H     H_    0.601488 0.286892 0.161228 0.196173
H15   H     H_    0.572492 0.263467 0.983416 0.128278
H16   H     H_    0.593323 0.132440 0.088750 0.175757
O10   O     O_3   0.334415 0.859519 0.342855 -0.609595
C27   C     C_3   0.358642 0.860718 0.204750 -0.268477
H17   H     H_    0.287574 0.807882 0.148962 0.176909
H18   H     H_    0.441419 0.813760 0.183717 0.212067
H19   H     H_    0.363214 0.957462 0.165301 0.169259
C28   C     C_3   0.789449 0.908456 0.668061 -0.364365
C29   C     C_3   0.865042 0.940803 0.794094 -0.349808
C30   C     C_3   0.994453 0.928164 0.766977 -0.884061
H20   H     H_    0.012169 0.832852 0.727196 0.271564
H21   H     H_    0.023140 0.998732 0.693043 0.262387
H22   H     H_    0.045888 0.944892 0.861619 0.247849
H23   H     H_    0.851703 0.038843 0.828946 0.225852
H24   H     H_    0.840057 0.878109 0.876662 0.215220
H25   H     H_    0.791326 0.806219 0.645195 0.182758
H26   H     H_    0.826733 0.958047 0.580794 0.219111
O11   O     O_3   0.635006 0.671301 0.150190 -0.612783
C31   C     C_3   0.752250 0.645445 0.181514 -0.249183
H27   H     H_    0.811719 0.693930 0.112216 0.149095
H28   H     H_    0.770538 0.543555 0.183930 0.149906
H29   H     H_    0.774430 0.686593 0.282226 0.186561
C32   C     C_3   0.687802 0.627478 0.869942 -0.329679
C33   C     C_3   0.790533 0.536739 0.872950 -0.342186
C34   C     C_3   0.904646 0.600627 0.833055 -0.887143
H30   H     H_    0.895136 0.641903 0.732715 0.272597
H31   H     H_    0.931477 0.675413 0.907454 0.256921
H32   H     H_    0.974060 0.530495 0.829668 0.254189
H33   H     H_    0.803816 0.497827 0.973676 0.186096
H34   H     H_    0.772229 0.452994 0.807588 0.246291
H35   H     H_    0.666767 0.659194 0.768550 0.235915
H36   H     H_    0.711902 0.716780 0.923227 0.183584

loop_
_geom_bond_atom_site_label_1
_geom_bond_atom_site_label_2
_ccdc_geom_bond_type
C28   H26   S    
C30   H21   S    
C8    H4    S    
C23   C24   S    
C3    H1    S    
C19   C20   S    
C10   N1    A    
C32   H35   S    
C7    C8    S    
C33   C34   S    
O3    Zn1   S    
C29   H23   S    
O4    Zn2   S    
C1    C2    S    
C11   C32   S    
C16   O5    A    
C5    C6    A    
C34   H31   S    
C27   H18   S    
C33   H34   S    
C6    C22   A    
C1    O1    A    
O10   C27   S    
C18   C19   T    
C14   H2    S    
C9    C13   A    
C7    C28   S    
C5    C16   S    
C11   N2    A    
C2    C22   A    
C8    C22   S    
C15   O9    S    
C26   H16   S    
C9    N1    A    
C24   H10   S    
C10   O11   S    
C30   H22   S    
C13   C14   S    
C4    O10   S    
C31   H29   S    
C23   H12   S    
C26   H15   S    
O9    C26   S    
C13   N2    A    
O6    Zn2   S    
C32   C33   S    
C15   C23   S    
C31   H28   S    
C34   H30   S    
C4    C5    A    
C27   H19   S    
C24   H11   S    
C1    O2    A    
C17   C21   S    
O5    Zn1   S    
C25   H7    S    
C29   C30   S    
C17   O7    A    
C25   H8    S    
C24   C25   S    
C12   O4    A    
C3    C4    A    
C23   H13   S    
C26   H14   S    
C28   H25   S    
C31   H27   S    
C6    C7    S    
C7    H3    S    
C29   H24   S    
C2    C3    A    
C9    C15   S    
O11   C31   S    
O7    Zn1   S    
C16   O6    A    
O8    Zn2   S    
C34   H32   S    
C27   H17   S    
C33   H33   S    
N1    Zn2   S    
O1    Zn1   S    
N2    Zn1   S    
C17   O8    A    
O2    Zn2   S    
C28   C29   S    
C25   H9    S    
C10   C11   A    
C30   H20   S    
C20   C21   T    
C12   C18   S    
C8    H5    S    
C14   C15   S    
C14   H6    S    
C12   O3    A    
C32   H36   S    
