data_mof_unit_15347.cif
_audit_creation_date              2012-12-10T17:49:34-0500
_audit_creation_method            fapswitch 2.2
_symmetry_space_group_name_H-M    P1
_symmetry_Int_Tables_number       1
_space_group_crystal_system       triclinic
_cell_length_a                    14.779809
_cell_length_b                    14.83663
_cell_length_c                    15.874722
_cell_angle_alpha                 75.407083
_cell_angle_beta                  102.721943
_cell_angle_gamma                 115.537967
_cell_volume                      3014.69572873

loop_
_atom_site_label
_atom_site_type_symbol
_atom_type_description
_atom_site_fract_x
_atom_site_fract_y
_atom_site_fract_z
_atom_type_partial_charge
C1    C     C_R   0.880143 0.312329 0.516161 0.796694
C2    C     C_3   0.096181 0.475083 0.075866 -0.116813
C3    C     C_3   0.011853 0.509385 0.083316 0.252663
C4    C     C_3   0.032172 0.617924 0.027607 -0.009576
C5    C     C_3   0.018578 0.614151 0.927467 -0.093748
C6    C     C_1   0.007125 0.507058 0.175280 -0.020453
C7    C     C_1   0.005066 0.504689 0.824107 -0.044339
C8    C     C_1   0.001453 0.502072 0.748619 -0.183533
C9    C     C_R   0.812114 0.204505 0.534058 -0.070493
C10   C     C_R   0.186158 0.794751 0.496013 -0.101350
C11   C     C_R   0.783940 0.029525 0.602219 0.002731
C12   C     C_R   0.999911 0.499876 0.659440 0.812811
C13   C     C_R   0.849412 0.131177 0.579005 -0.229930
C14   C     C_R   0.708049 0.176857 0.513656 -0.269315
C15   C     C_R   0.639593 0.076729 0.537887 0.078827
C16   C     C_R   0.678259 0.000882 0.576145 0.112599
C17   C     C_R   0.533544 0.050429 0.524612 0.074369
C18   C     C_R   0.466401 0.946585 0.532523 0.074361
C19   C     C_R   0.507202 0.872015 0.563085 -0.232419
C20   C     C_R   0.610646 0.898796 0.586103 -0.248121
C21   C     C_R   0.492867 0.124687 0.508639 -0.228657
C22   C     C_R   0.389366 0.097693 0.500005 -0.224212
C23   C     C_R   0.119387 0.687476 0.490514 0.787281
C24   C     C_R   0.322591 0.996552 0.502130 0.147827
C25   C     C_R   0.360332 0.920792 0.513785 0.084120
C26   C     C_R   0.218378 0.970243 0.494558 -0.247164
C27   C     C_R   0.149562 0.869195 0.495619 -0.001649
C28   C     C_R   0.290740 0.821957 0.505288 -0.269820
C29   C     C_R   0.701321 0.639627 0.332881 -0.350675
C30   C     C_R   0.790118 0.625144 0.366457 0.342471
C31   C     C_R   0.716372 0.512993 0.492472 0.275425
C32   C     C_R   0.620223 0.519146 0.457770 -0.119377
C33   C     C_R   0.615675 0.586067 0.376716 0.109600
C34   C     C_R   0.000693 0.501031 0.340394 0.826173
C35   C     C_R   0.529613 0.464440 0.499761 0.088819
C36   C     C_R   0.444728 0.491812 0.469348 0.061031
C37   C     C_R   0.441496 0.550255 0.384952 -0.301818
C38   C     C_R   0.525085 0.597582 0.339277 0.174396
C39   C     C_R   0.516347 0.377429 0.565318 -0.241046
C40   C     C_R   0.432411 0.330975 0.609871 -0.190393
C41   C     C_R   0.357719 0.369188 0.590867 0.115916
C42   C     C_R   0.361930 0.451079 0.520613 -0.053136
C43   C     C_R   0.278307 0.324678 0.641676 -0.384975
C44   C     C_R   0.201363 0.359707 0.622990 0.336522
C45   C     C_3   0.102804 0.481316 0.975107 0.187481
C46   C     C_R   0.284158 0.488715 0.508067 0.266792
C47   C     C_3   0.909528 0.429968 0.949279 -0.465849
C48   C     C_3   0.909268 0.431706 0.046080 -0.472402
C49   C     C_1   0.003382 0.504286 0.250628 -0.193492
C50   C     C_3   0.011904 0.508545 0.916800 0.214473
Cu1   Cu    Cu3+1 0.081750 0.475690 0.522550 0.966670
Cu2   Cu    Cu3+1 0.918250 0.524310 0.477450 0.976678
H1    H     H_    0.070716 0.393934 0.109093 0.138730
H2    H     H_    0.637336 0.838366 0.610252 0.153278
H3    H     H_    0.317107 0.765278 0.503534 0.172570
H4    H     H_    0.361475 0.156567 0.491192 0.154536
H5    H     H_    0.929725 0.154057 0.599410 0.155134
H6    H     H_    0.681568 0.234464 0.476632 0.155821
H7    H     H_    0.460436 0.791853 0.575010 0.144394
H8    H     H_    0.539726 0.204084 0.507889 0.140733
H9    H     H_    0.190710 0.028184 0.490953 0.133601
H10   H     H_    0.426500 0.264808 0.660472 0.142481
H11   H     H_    0.699745 0.691729 0.271489 0.179768
H12   H     H_    0.845698 0.448091 0.908683 0.172217
H13   H     H_    0.372520 0.555177 0.349824 0.143800
H14   H     H_    0.566588 0.339314 0.580242 0.136144
H15   H     H_    0.275112 0.261847 0.695343 0.146786
H16   H     H_    0.892089 0.351999 0.940622 0.189480
H17   H     H_    0.894634 0.354231 0.085265 0.170738
H18   H     H_    0.845585 0.450062 0.051490 0.189273
H19   H     H_    0.944195 0.617362 0.897632 0.173727
H20   H     H_    0.110825 0.667294 0.049734 0.159774
N1    N     N_R   0.795410 0.560790 0.443550 -0.158545
N2    N     N_R   0.204590 0.439170 0.556520 -0.165008
O1    O     O_R   0.977910 0.338120 0.529720 -0.562369
O2    O     O_R   0.839850 0.379180 0.491640 -0.591441
O3    O     O_R   0.069060 0.479460 0.639610 -0.556136
O4    O     O_R   0.931000 0.520530 0.601530 -0.554651
O5    O     O_R   0.160150 0.620820 0.508360 -0.555226
O6    O     O_R   0.022090 0.661880 0.470280 -0.548604
O7    O     O_R   0.069000 0.479470 0.398470 -0.582462
O8    O     O_R   0.930940 0.520540 0.360390 -0.550308
C51   C     C_R   0.205063 0.556806 0.939605 0.144077
C52   C     C_R   0.268851 0.649582 0.968891 -0.164129
C53   C     C_R   0.357737 0.715084 0.932470 -0.155192
C54   C     C_R   0.385008 0.691062 0.865124 -0.105185
C55   C     C_R   0.323140 0.601578 0.833600 -0.149168
C56   C     C_R   0.234459 0.535566 0.869904 -0.150945
H21   H     H_    0.250545 0.675093 0.017911 0.158080
H22   H     H_    0.405035 0.785534 0.955963 0.130575
H23   H     H_    0.453564 0.742315 0.836749 0.124803
H24   H     H_    0.343508 0.583388 0.780439 0.135757
H25   H     H_    0.188126 0.467931 0.841959 0.165627
N3    N     N_3   0.193780 0.527290 0.126005 -0.634571
H26   H     H_    0.186118 0.509376 0.192797 0.220937
H27   H     H_    0.243765 0.496678 0.120743 0.223606
N4    N     N_3   0.966902 0.661285 0.044883 -0.603051
H28   H     H_    0.988921 0.736261 0.011177 0.218360
H29   H     H_    0.891739 0.622025 0.020243 0.214011
C57   C     C_R   0.041848 0.844443 0.500233 0.129090
C58   C     C_R   0.987575 0.892227 0.434932 -0.176605
C59   C     C_R   0.885591 0.867212 0.438598 -0.164092
C60   C     C_R   0.837078 0.794491 0.507329 -0.110543
C61   C     C_R   0.890927 0.747969 0.573418 -0.082346
C62   C     C_R   0.993344 0.774136 0.570909 -0.093070
H30   H     H_    0.023732 0.947503 0.380518 0.126679
H31   H     H_    0.843879 0.903491 0.387648 0.135382
H32   H     H_    0.757960 0.774602 0.509643 0.129320
H33   H     H_    0.853608 0.692380 0.627109 0.135091
H34   H     H_    0.034454 0.738307 0.623129 0.106604
C63   C     C_R   0.828089 0.959665 0.662448 0.097938
C64   C     C_R   0.918749 0.959599 0.648110 -0.147793
C65   C     C_R   0.966107 0.902656 0.709883 -0.120336
C66   C     C_R   0.922793 0.843863 0.785711 -0.128062
C67   C     C_R   0.832944 0.843187 0.800755 -0.151324
C68   C     C_R   0.786473 0.901747 0.740187 -0.155463
H35   H     H_    0.953403 0.004371 0.589548 0.130967
H36   H     H_    0.036397 0.903976 0.698837 0.136515
H37   H     H_    0.959346 0.799697 0.833285 0.149130
H38   H     H_    0.800226 0.798669 0.860182 0.125294
H39   H     H_    0.719166 0.903469 0.754939 0.129090
N5    N     N_3   0.088253 0.378977 0.965465 -0.631085
H40   H     H_    0.150225 0.363299 0.000514 0.208046
H41   H     H_    0.025204 0.321697 0.992849 0.208526
N6    N     N_3   0.517148 0.657668 0.253822 -0.614096
H42   H     H_    0.458794 0.611312 0.213499 0.223235
H43   H     H_    0.496818 0.714949 0.259689 0.218064
N7    N     N_3   0.292227 0.584296 0.454015 -0.558545
H44   H     H_    0.366881 0.637946 0.457399 0.194430
H45   H     H_    0.257991 0.575181 0.390086 0.217284
N8    N     N_3   0.119633 0.312777 0.674710 -0.523588
H46   H     H_    0.149597 0.322918 0.739396 0.193262
H47   H     H_    0.088421 0.234823 0.674489 0.184768
N9    N     N_3   0.875952 0.678324 0.319533 -0.513549
H48   H     H_    0.894436 0.756108 0.311327 0.196284
H49   H     H_    0.854972 0.658884 0.257085 0.202315
N10   N     N_3   0.737958 0.468967 0.581590 -0.555877
H50   H     H_    0.702356 0.482507 0.624225 0.199075
H51   H     H_    0.723787 0.392602 0.586941 0.215607
N11   N     N_3   0.092093 0.704365 0.878127 -0.638914
H52   H     H_    0.146210 0.753808 0.918295 0.220743
H53   H     H_    0.128341 0.686492 0.839304 0.248745

loop_
_geom_bond_atom_site_label_1
_geom_bond_atom_site_label_2
_ccdc_geom_bond_type
C10   C27   A    
C55   C56   A    
C29   H11   S    
C58   C59   A    
C41   C42   A    
C36   C42   A    
C35   C36   A    
Cu1   N2    S    
C4    H20   S    
C48   H17   S    
C9    C14   A    
C3    C6    S    
N7    H44   S    
C66   C67   A    
C7    C8    T    
C53   C54   A    
C25   C28   A    
N10   H51   S    
C26   C27   A    
C37   C38   A    
C46   N7    S    
C36   C37   A    
C26   H9    S    
N11   H53   S    
C54   H23   S    
C61   H33   S    
C31   N1    A    
C13   H5    S    
C67   C68   A    
C29   C33   A    
C3    C48   S    
C40   H10   S    
C18   C19   A    
C42   C46   A    
C9    C13   A    
C61   C62   A    
C59   C60   A    
C21   C22   A    
C52   C53   A    
C47   C48   S    
C30   N9    S    
C12   O4    A    
C60   H32   S    
C34   O7    A    
C23   O6    A    
C31   N10   S    
Cu1   O7    S    
C66   H37   S    
C8    C12   S    
N3    H27   S    
C51   C56   A    
C4    N4    S    
C41   C43   A    
C45   C51   S    
C18   C25   A    
Cu2   O4    S    
C64   C65   A    
N4    H29   S    
C28   H3    S    
N4    H28   S    
C47   C50   S    
C2    C45   S    
C14   H6    S    
C27   C57   S    
C68   H39   S    
C11   C63   S    
Cu1   Cu2   S    
C1    O1    A    
C32   C35   A    
C2    N3    S    
C1    C9    S    
N11   H52   S    
C21   H8    S    
C20   H2    S    
Cu2   N1    S    
C48   H18   S    
C47   H12   S    
C30   N1    A    
C54   C55   A    
N9    H49   S    
N8    H47   S    
C15   C16   A    
C17   C21   A    
C37   H13   S    
C44   N8    S    
C44   N2    A    
C43   C44   A    
Cu1   O3    S    
C29   C30   A    
C11   C16   A    
C51   C52   A    
C16   C20   A    
C12   O3    A    
C17   C18   A    
C57   C62   A    
C59   H31   S    
C24   C25   A    
Cu2   O8    S    
C63   C68   A    
C40   C41   A    
N6    H42   S    
C10   C23   S    
C39   H14   S    
C22   C24   A    
C5    C50   S    
C52   H21   S    
N5    H41   S    
C3    C4    S    
C47   H16   S    
C46   N2    A    
C38   N6    S    
C5    N11   S    
C65   C66   A    
C10   C28   A    
C58   H30   S    
C15   C17   A    
C56   H25   S    
C34   C49   S    
C63   C64   A    
C1    O2    A    
C31   C32   A    
C24   C26   A    
C7    C50   S    
Cu1   O1    S    
C4    C5    S    
Cu2   O2    S    
C2    H1    S    
N7    H45   S    
C22   H4    S    
C53   H22   S    
N9    H48   S    
C45   N5    S    
N10   H50   S    
C33   C38   A    
C62   H34   S    
C19   H7    S    
C32   C33   A    
C19   C20   A    
C2    C3    S    
C5    H19   S    
Cu2   O6    S    
C11   C13   A    
C64   H35   S    
C45   C50   S    
C35   C39   A    
C57   C58   A    
C6    C49   T    
N3    H26   S    
Cu1   O5    S    
C65   H36   S    
C39   C40   A    
C43   H15   S    
C67   H38   S    
C60   C61   A    
N6    H43   S    
C14   C15   A    
C34   O8    A    
C23   O5    A    
N5    H40   S    
C55   H24   S    
N8    H46   S    
