data_mof_unit_11744.cif
_audit_creation_date              2012-12-10T18:24:01-0500
_audit_creation_method            fapswitch 2.2
_symmetry_space_group_name_H-M    P1
_symmetry_Int_Tables_number       1
_space_group_crystal_system       triclinic
_cell_length_a                    15.712769
_cell_length_b                    14.914246
_cell_length_c                    14.012455
_cell_angle_alpha                 89.33349
_cell_angle_beta                  90.170262
_cell_angle_gamma                 90.402731
_cell_volume                      3283.41918217

loop_
_atom_site_label
_atom_site_type_symbol
_atom_type_description
_atom_site_fract_x
_atom_site_fract_y
_atom_site_fract_z
_atom_type_partial_charge
C1    C     C_R   0.500966 0.326861 0.500722 0.881414
C2    C     C_R   0.485678 0.046670 0.522202 -0.029015
C3    C     C_R   0.418893 0.907336 0.469335 -0.027461
C4    C     C_R   0.551301 0.092044 0.572962 -0.029925
C5    C     C_R   0.607700 0.949341 0.628092 -0.139323
C6    C     C_R   0.354137 0.050157 0.427669 -0.131958
C7    C     C_R   0.605219 0.042674 0.634950 0.437042
C8    C     C_R   0.348749 0.956550 0.433445 0.426470
C9    C     C_R   0.452021 0.561175 0.796990 -0.027253
C10   C     C_R   0.548665 0.439383 0.202944 -0.035086
C11   C     C_R   0.548899 0.439741 0.799016 -0.020330
C12   C     C_R   0.498661 0.673190 0.499681 0.876526
C13   C     C_R   0.452306 0.561257 0.200812 -0.014552
C14   C     C_R   0.550758 0.438981 0.899597 -0.024751
C15   C     C_R   0.452001 0.563477 0.100187 -0.025203
C16   C     C_R   0.337746 0.500496 0.499846 0.908852
C17   C     C_R   0.662277 0.500194 0.500138 0.913535
C18   C     C_R   0.501552 0.501536 0.949325 0.018219
C19   C     C_R   0.501811 0.501362 0.050519 0.019764
C20   C     C_R   0.451822 0.563958 0.897765 -0.081208
C21   C     C_R   0.551505 0.438822 0.102080 -0.089717
C22   C     C_R   0.600746 0.377520 0.951116 -0.304434
C23   C     C_R   0.493520 0.768873 0.501163 -0.121451
C24   C     C_R   0.403274 0.626223 0.048512 -0.292941
C25   C     C_R   0.602721 0.377891 0.051515 0.495773
C26   C     C_R   0.403801 0.627690 0.947965 0.469971
C27   C     C_3   0.971856 0.427134 0.536501 -0.159517
C28   C     C_3   0.028428 0.583786 0.463031 -0.158708
C29   C     C_3   0.027634 0.437369 0.446282 -0.161427
C30   C     C_3   0.972489 0.573535 0.553282 -0.161424
C31   C     C_1   0.248830 0.502733 0.499533 -0.174095
C32   C     C_1   0.751260 0.501953 0.500346 -0.175078
C33   C     C_3   0.028612 0.495443 0.589759 -0.160350
C34   C     C_R   0.500211 0.231094 0.504387 -0.120316
C35   C     C_3   0.971563 0.515435 0.409768 -0.163125
C36   C     C_3   0.082665 0.505658 0.499534 0.201406
C37   C     C_3   0.917512 0.505166 0.500017 0.199859
C38   C     C_1   0.173527 0.504557 0.499427 -0.070113
C39   C     C_1   0.826606 0.503681 0.500283 -0.072301
C40   C     C_R   0.426742 0.814280 0.455716 -0.073166
C41   C     C_R   0.560443 0.185202 0.559795 -0.062379
C42   C     C_3   0.729674 0.352828 0.127747 0.059492
C43   C     C_3   0.798257 0.336199 0.052660 -0.346350
C44   C     C_3   0.885411 0.368550 0.086810 -0.939667
C45   C     C_R   0.551581 0.812628 0.559146 -0.221112
C46   C     C_3   0.401494 0.767337 0.880890 0.053539
C47   C     C_3   0.358235 0.821261 0.801133 -0.300700
C48   C     C_3   0.406431 0.908281 0.779286 -0.973647
C49   C     C_1   0.369037 0.764749 0.394267 0.249883
C50   C     C_1   0.634566 0.233949 0.594582 0.244268
C51   C     C_1   0.671975 0.900884 0.681961 0.189595
C52   C     C_1   0.287003 0.098591 0.378518 0.203808
C53   C     C_3   0.621803 0.080043 0.792524 0.094735
C54   C     C_3   0.557052 0.154939 0.808180 -0.390990
C55   C     C_3   0.524595 0.154316 0.910704 -0.909904
C56   C     C_R   0.432552 0.187527 0.461045 -0.218832
C57   C     C_3   0.211806 0.916357 0.472780 0.101152
C58   C     C_3   0.217076 0.834541 0.539912 -0.382637
C59   C     C_3   0.146241 0.834981 0.614091 -0.947039
C60   C     C_R   0.548438 0.904754 0.569429 0.031227
C61   C     C_R   0.423914 0.095033 0.469331 0.032614
C62   C     C_R   0.483725 0.952904 0.521212 -0.022172
H1    H     H_    0.052347 0.381736 0.402537 0.144267
H2    H     H_    0.386244 0.227074 0.421797 0.155378
H3    H     H_    0.414251 0.607848 0.755398 0.167478
H4    H     H_    0.585542 0.391950 0.244551 0.163914
H5    H     H_    0.586576 0.392456 0.759463 0.134825
H6    H     H_    0.414595 0.608451 0.240207 0.148884
H7    H     H_    0.749015 0.319309 0.195561 0.173489
H8    H     H_    0.725853 0.425975 0.143393 0.121336
H9    H     H_    0.801317 0.263303 0.037495 0.236187
H10   H     H_    0.781866 0.372430 0.985461 0.215498
H11   H     H_    0.884044 0.441627 0.101164 0.262543
H12   H     H_    0.947768 0.629184 0.596990 0.143368
H13   H     H_    0.933601 0.356002 0.030818 0.269751
H14   H     H_    0.904378 0.331941 0.152929 0.264277
H15   H     H_    0.467738 0.752346 0.857395 0.130645
H16   H     H_    0.404390 0.808369 0.946691 0.156907
H17   H     H_    0.355563 0.780210 0.735439 0.219334
H18   H     H_    0.292026 0.837380 0.822366 0.235839
H19   H     H_    0.406111 0.952626 0.842407 0.265396
H20   H     H_    0.375550 0.943883 0.718490 0.267171
H21   H     H_    0.473244 0.893652 0.759769 0.265412
H22   H     H_    0.674508 0.088233 0.844787 0.176762
H23   H     H_    0.638949 0.329229 0.913548 0.162570
H24   H     H_    0.591992 0.013482 0.808502 0.125323
H25   H     H_    0.587327 0.220898 0.792436 0.228911
H26   H     H_    0.501916 0.146065 0.759326 0.223888
H27   H     H_    0.492274 0.089572 0.927438 0.259118
H28   H     H_    0.578186 0.164446 0.961419 0.283070
H29   H     H_    0.478323 0.209483 0.919806 0.274676
H30   H     H_    0.149078 0.914898 0.436034 0.174524
H31   H     H_    0.213285 0.979349 0.515046 0.122372
H32   H     H_    0.211548 0.772126 0.497766 0.237226
H33   H     H_    0.279275 0.834570 0.577733 0.216241
H34   H     H_    0.364710 0.674335 0.085975 0.169955
H35   H     H_    0.151202 0.895951 0.658614 0.267995
H36   H     H_    0.152000 0.774982 0.661292 0.270898
H37   H     H_    0.082980 0.833144 0.578529 0.265780
H38   H     H_    0.946554 0.363126 0.566527 0.146928
H39   H     H_    0.053905 0.647802 0.433187 0.143183
H40   H     H_    0.946013 0.523497 0.336229 0.138222
H41   H     H_    0.054153 0.487319 0.663288 0.143325
H42   H     H_    0.600237 0.773518 0.595143 0.156785
N1    N     N_R   0.500040 0.500070 0.750030 -0.113165
N2    N     N_R   0.499960 0.499930 0.249970 -0.112991
N3    N     N_1   0.323038 0.725169 0.345416 -0.211408
N4    N     N_1   0.693476 0.273110 0.621921 -0.208473
N5    N     N_1   0.723228 0.862291 0.725016 -0.211961
N6    N     N_1   0.233376 0.137167 0.339323 -0.209506
O1    O     O_R   0.500020 0.367860 0.580280 -0.622697
O2    O     O_3   0.353425 0.688527 0.899057 -0.646410
O3    O     O_3   0.657875 0.085656 0.699904 -0.634658
O4    O     O_3   0.275673 0.913473 0.401438 -0.634207
O5    O     O_R   0.499980 0.632140 0.419720 -0.619102
O6    O     O_R   0.500020 0.367840 0.419730 -0.618905
O7    O     O_R   0.499980 0.632160 0.580270 -0.629350
O8    O     O_R   0.376770 0.500000 0.580260 -0.616222
O9    O     O_R   0.623230 0.500000 0.419740 -0.623898
O10   O     O_R   0.376780 0.499980 0.419710 -0.609998
O11   O     O_R   0.623220 0.500020 0.580290 -0.611509
O12   O     O_3   0.651078 0.314360 0.099224 -0.653545
Zn1   Zn    Zn3+2 0.499990 0.500020 0.607200 0.952223
Zn2   Zn    Zn3+2 0.500010 0.499980 0.392800 0.956637

loop_
_geom_bond_atom_site_label_1
_geom_bond_atom_site_label_2
_ccdc_geom_bond_type
C29   H1    S    
C45   C60   A    
C34   C56   A    
C43   H10   S    
C23   C45   A    
C57   H30   S    
C46   O2    S    
C27   C29   S    
C59   H37   S    
C14   C18   A    
C47   H17   S    
C43   C44   S    
C35   H40   S    
C49   N3    T    
C53   C54   S    
C27   C33   S    
C16   C31   S    
C15   C19   A    
C12   C23   S    
C53   H22   S    
C6    C61   A    
C35   C37   S    
C24   C26   A    
C55   H28   S    
C24   H34   S    
C54   H25   S    
C30   H12   S    
C11   C14   A    
C22   H23   S    
C4    C41   A    
C9    N1    A    
C40   C49   S    
C42   H8    S    
C33   C36   S    
C48   H19   S    
N1    Zn1   S    
C60   C62   A    
C18   C19   A    
C32   C39   T    
C44   H14   S    
C55   H29   S    
C46   C47   S    
O10   Zn2   S    
C28   H39   S    
C28   C35   S    
C11   H5    S    
C22   C25   A    
C11   N1    A    
C56   H2    S    
C53   H24   S    
C1    O6    A    
C25   O12   S    
C30   C33   S    
C2    C61   A    
C8    O4    S    
C12   O5    A    
C51   N5    T    
C57   H31   S    
C50   N4    T    
C34   C41   A    
C47   H18   S    
C4    C7    A    
C53   O3    S    
C1    C34   S    
C10   H4    S    
C10   C21   A    
C27   H38   S    
O1    Zn1   S    
C3    C8    A    
C5    C7    A    
C6    C8    A    
C58   C59   S    
O9    Zn2   S    
C42   H7    S    
C30   C37   S    
C44   H13   S    
C2    C4    A    
C58   H33   S    
C45   H42   S    
C16   O8    A    
C9    C20   A    
C47   C48   S    
C29   C36   S    
C52   N6    T    
C17   O11   A    
C15   C24   A    
C3    C40   A    
C13   C15   A    
C59   H35   S    
C10   N2    A    
C42   C43   S    
C36   C38   S    
C26   O2    S    
C41   C50   S    
C42   O12   S    
C46   H16   S    
C3    C62   A    
C59   H36   S    
C21   C25   A    
C54   C55   S    
C43   H9    S    
O5    Zn2   S    
O6    Zn2   S    
C5    C60   A    
C19   C21   A    
C33   H41   S    
C13   N2    A    
C46   H15   S    
C48   H21   S    
C57   O4    S    
C29   C35   S    
C31   C38   T    
C7    O3    S    
C16   O10   A    
O7    Zn1   S    
C37   C39   S    
C1    O1    A    
C54   H26   S    
C14   C22   A    
C57   C58   S    
C20   C26   A    
C27   C37   S    
C28   C30   S    
C48   H20   S    
C18   C20   A    
O8    Zn1   S    
C58   H32   S    
C44   H11   S    
C9    H3    S    
O11   Zn1   S    
C17   O9    A    
C12   O7    A    
C2    C62   A    
C28   C36   S    
C55   H27   S    
N2    Zn2   S    
C17   C32   S    
C56   C61   A    
C5    C51   S    
C6    C52   S    
C23   C40   A    
C13   H6    S    
