data_mof_unit_58695.cif
_audit_creation_date              2013-03-05T15:54:01-0500
_audit_creation_method            fapswitch 2.2
_symmetry_space_group_name_H-M    P1
_symmetry_Int_Tables_number       1
_space_group_crystal_system       triclinic
_cell_length_a                    15.728969
_cell_length_b                    10.699414
_cell_length_c                    9.944456
_cell_angle_alpha                 90.110993
_cell_angle_beta                  90.821172
_cell_angle_gamma                 93.60957
_cell_volume                      1670.06170586

loop_
_atom_site_label
_atom_site_type_symbol
_atom_site_description
_atom_site_fract_x
_atom_site_fract_y
_atom_site_fract_z
_atom_type_partial_charge
O1    O     O_R   0.500000 0.316780 0.614690 -0.668911
O2    O     O_R   0.499990 0.316750 0.385360 -0.507823
C1    C     C_R   0.511036 0.262235 0.500860 0.891592
O3    O     O_R   0.377150 0.500020 0.614720 -0.662173
O4    O     O_R   0.377140 0.499990 0.385380 -0.529271
C2    C     C_R   0.338457 0.499934 0.499266 0.905598
Zn1   Zn    Zn3+2 0.500010 0.500020 0.653130 0.956769
Zn2   Zn    Zn3+2 0.499990 0.499980 0.346870 1.002732
O5    O     O_R   0.500010 0.683250 0.614640 -0.580865
O6    O     O_R   0.500000 0.683220 0.385310 -0.627141
O7    O     O_R   0.622860 0.500010 0.614620 -0.598133
O8    O     O_R   0.622850 0.499980 0.385280 -0.623980
C3    C     C_R   0.495168 0.739964 0.500714 0.901881
C4    C     C_R   0.661578 0.500592 0.500798 0.881154
C5    C     C_3   0.049992 0.466308 0.640034 -0.465461
C6    C     C_3   0.042992 0.401130 0.397836 -0.358922
C7    C     C_3   0.945054 0.404421 0.396541 -0.388777
H1    H     H_    0.924487 0.372511 0.671951 0.178175
H2    H     H_    0.069943 0.372067 0.669630 0.191926
H3    H     H_    0.067933 0.415973 0.294827 0.218982
H4    H     H_    0.060852 0.306253 0.429021 0.162474
H5    H     H_    0.915988 0.309559 0.420139 0.163899
H6    H     H_    0.922481 0.429532 0.294062 0.188404
C8    C     C_1   0.750535 0.500526 0.502470 -0.197086
C9    C     C_3   0.082682 0.500702 0.497613 0.221510
C10   C     C_3   0.951814 0.466646 0.641776 -0.399186
C11   C     C_3   0.917390 0.501080 0.500778 0.305073
C12   C     C_3   0.955350 0.632759 0.461404 -0.453934
C13   C     C_3   0.053976 0.634032 0.462539 0.203316
C14   C     C_1   0.825906 0.500639 0.502416 -0.106096
C15   C     C_1   0.174169 0.499647 0.497131 -0.069099
C16   C     C_1   0.249514 0.499551 0.497569 -0.139295
H7    H     H_    0.078081 0.698940 0.544402 0.093897
H8    H     H_    0.934833 0.703863 0.534054 0.145497
H9    H     H_    0.077924 0.534481 0.715738 0.186221
H10   H     H_    0.932392 0.535261 0.718005 0.176838
H11   H     H_    0.930251 0.658987 0.360817 0.206731
C17   C     C_R   0.549458 0.121758 0.753467 -0.131947
H12   H     H_    0.586570 0.210280 0.759123 0.156889
C18   C     C_R   0.527640 0.062878 0.874098 -0.136210
H13   H     H_    0.544611 0.108048 0.968943 0.170086
C19   C     C_R   0.480252 0.948877 0.871906 -0.109345
H14   H     H_    0.458742 0.906219 0.965067 0.145639
C20   C     C_R   0.462376 0.888252 0.749549 -0.087815
H15   H     H_    0.423222 0.801687 0.752593 0.156515
C21   C     C_R   0.492990 0.941008 0.627171 0.090505
C22   C     C_R   0.524486 0.065911 0.628470 0.033521
C23   C     C_R   0.527505 0.130760 0.504431 -0.277840
C24   C     C_R   0.530109 0.064566 0.382435 0.513743
H16   H     H_    0.516851 0.887422 0.288573 0.190620
C25   C     C_R   0.513796 0.937078 0.383332 -0.302733
C26   C     C_R   0.494877 0.874543 0.503679 -0.202792
H17   H     H_    0.586395 0.656048 0.128597 0.158231
C27   C     C_R   0.392542 0.309226 0.127337 0.639646
C28   C     C_R   0.351934 0.215405 0.043277 -0.274097
H18   H     H_    0.312829 0.136975 0.080912 0.158354
C29   C     C_R   0.352943 0.225485 0.906579 -0.279595
H19   H     H_    0.316613 0.157362 0.844514 0.174895
C30   C     C_R   0.396859 0.325284 0.848807 -0.100496
H20   H     H_    0.387774 0.330844 0.743627 0.221798
C31   C     C_R   0.449037 0.411574 0.923963 -0.016248
C32   C     C_R   0.448339 0.408069 0.068707 0.038481
N1    N     N_R   0.499210 0.498800 0.142780 -0.120410
C33   C     C_R   0.548353 0.585198 0.073037 -0.243788
C34   C     C_R   0.550039 0.583888 0.929468 0.559128
N2    N     N_R   0.499180 0.498720 0.857170 -0.152176
O9    O     O_3   0.543364 0.123454 0.260131 -0.603842
C35   C     C_3   0.631593 0.151460 0.246000 -0.316017
H21   H     H_    0.666527 0.064250 0.242076 0.155906
H22   H     H_    0.658110 0.214015 0.328007 0.157967
H23   H     H_    0.642266 0.201903 0.149782 0.177449
O10   O     O_3   0.370011 0.315505 0.260744 -0.559817
C36   C     C_3   0.324782 0.209291 0.315368 -0.291909
H24   H     H_    0.358339 0.122345 0.298391 0.178117
H25   H     H_    0.258086 0.201257 0.276368 0.158454
H26   H     H_    0.321334 0.222111 0.425832 0.161440
O11   O     O_3   0.598708 0.673885 0.860374 -0.577963
C37   C     C_3   0.685842 0.658239 0.885786 -0.297046
H27   H     H_    0.723712 0.715979 0.812821 0.192993
H28   H     H_    0.702163 0.559239 0.871545 0.154931
H29   H     H_    0.705064 0.691795 0.988239 0.144419
N3    N     N_R   0.089234 0.681729 0.335149 0.215022
O12   O     O_R   0.144688 0.777250 0.336239 -0.410416
O13   O     O_R   0.062798 0.634378 0.220202 -0.418761

loop_
_geom_bond_atom_site_label_1
_geom_bond_atom_site_label_2
_geom_bond_distance
_ccdc_geom_bond_type
C9    C15   1.439829 S    
C2    C16   1.398595 S    
C28   H18   1.079547 S    
C6    H4    1.113645 S    
C21   C26   1.419523 A    
C36   H24   1.111870 S    
H1    C10   1.113366 S    
O11   C37   1.410452 S    
Zn1   O7    1.975270 S    
C10   C11   1.549286 S    
C7    H6    1.113329 S    
C12   C13   1.550359 S    
C17   H12   1.081769 S    
O7    C4    1.292834 A    
C37   H28   1.114745 S    
C29   C30   1.366845 A    
C13   H7    1.115615 S    
C1    C23   1.446726 S    
C4    C8    1.399105 S    
O5    C3    1.289796 A    
C27   C28   1.419552 A    
C31   N2    1.362879 A    
C15   C16   1.185107 T    
C35   H21   1.113177 S    
C24   C25   1.372069 A    
C6    H3    1.110299 S    
C18   C19   1.388802 A    
C12   H8    1.113705 S    
C30   H20   1.055944 S    
C11   C14   1.438981 S    
C36   H25   1.111387 S    
C19   C20   1.394458 A    
O3    Zn1   1.964473 S    
C5    H9    1.113485 S    
C20   C21   1.420124 A    
C9    C13   1.561763 S    
C30   C31   1.403158 A    
C34   O11   1.382082 S    
O9    C35   1.410233 S    
C7    C11   1.548813 S    
O3    C2    1.291697 A    
C37   H27   1.109395 S    
C6    C7    1.542954 S    
C5    C10   1.544827 S    
C27   C32   1.459037 A    
C25   C26   1.398845 A    
O1    C1    1.291477 A    
C5    H2    1.113618 S    
C32   N1    1.416953 A    
C3    C26   1.440448 S    
C22   C23   1.416350 A    
Zn2   O8    1.964471 S    
H16   C25   1.084032 S    
C17   C22   1.417753 A    
C10   H10   1.113401 S    
C18   H13   1.081294 S    
O8    C4    1.292350 A    
N3    O12   1.301100 A    
N3    O13   1.301473 A    
C28   C29   1.364106 A    
C36   H26   1.109290 S    
C19   H14   1.082705 S    
C20   H15   1.080208 S    
C6    C9    1.550364 S    
Zn1   O5    1.998196 S    
C21   C22   1.395674 A    
C23   C24   1.405997 A    
C24   O9    1.383267 S    
O1    Zn1   1.996742 S    
O2    Zn2   1.998198 S    
O10   C36   1.415740 S    
O6    C3    1.302706 A    
O4    Zn2   1.975271 S    
C7    H5    1.113468 S    
C33   C34   1.428399 A    
O2    C1    1.303567 A    
C13   N3    1.469646 S    
Zn1   N2    2.029366 S    
C17   C18   1.393268 A    
C37   H29   1.111052 S    
C29   H19   1.083716 S    
O4    C2    1.293270 A    
C12   H11   1.113056 S    
C35   H23   1.109142 S    
H17   C33   1.081536 S    
C31   C32   1.440146 A    
C8    C14   1.185449 T    
C5    C9    1.550727 S    
Zn2   N1    2.029435 S    
N1    C33   1.364158 A    
C27   O10   1.380667 S    
Zn2   O6    1.996742 S    
C34   N2    1.369820 A    
C11   C12   1.548449 S    
C35   H22   1.113543 S    
