data_mof_unit_17390.cif
_audit_creation_date              2012-12-10T16:48:11-0500
_audit_creation_method            fapswitch 2.2
_symmetry_space_group_name_H-M    P1
_symmetry_Int_Tables_number       1
_space_group_crystal_system       triclinic
_cell_length_a                    15.839328
_cell_length_b                    8.7235
_cell_length_c                    7.442581
_cell_angle_alpha                 102.15624
_cell_angle_beta                  94.05908
_cell_angle_gamma                 92.208958
_cell_volume                      1001.28545915

loop_
_atom_site_label
_atom_site_type_symbol
_atom_type_description
_atom_site_fract_x
_atom_site_fract_y
_atom_site_fract_z
_atom_type_partial_charge
C1    C     C_R   0.494321 0.200734 0.455728 0.846272
C2    C     C_R   0.505652 0.799269 0.544275 0.845777
C3    C     C_R   0.340007 0.499929 0.502559 0.807789
C4    C     C_R   0.659993 0.500070 0.497441 0.807608
C5    C     C_2   0.477122 0.036158 0.442243 -0.260379
C6    C     C_2   0.522818 0.963850 0.557759 -0.260486
C7    C     C_3   0.971097 0.404806 0.605896 -0.235197
C8    C     C_3   0.028903 0.595191 0.394103 -0.235179
C9    C     C_3   0.023899 0.352895 0.437185 -0.238708
C10   C     C_3   0.976101 0.647102 0.562814 -0.238754
C11   C     C_1   0.250573 0.500429 0.507999 -0.113134
C12   C     C_1   0.749427 0.499568 0.492000 -0.113267
C13   C     C_3   0.031587 0.551845 0.673232 0.069377
C14   C     C_3   0.968413 0.448151 0.326768 0.069382
C15   C     C_3   0.083331 0.500630 0.506796 0.158929
C16   C     C_3   0.916669 0.499367 0.493204 0.158936
C17   C     C_1   0.175061 0.500609 0.509240 0.033467
C18   C     C_1   0.824939 0.499388 0.490759 0.033406
Cu1   Cu    Cu3+1 0.509330 0.517380 0.684380 1.017467
Cu2   Cu    Cu3+1 0.490670 0.482620 0.315620 1.017486
N1    N     N_2   0.476600 0.456420 0.038510 -0.202511
N2    N     N_2   0.523400 0.543580 0.961490 -0.202541
O1    O     O_R   0.506070 0.286130 0.619780 -0.618114
O2    O     O_R   0.493930 0.713870 0.380220 -0.618274
O3    O     O_R   0.490300 0.256770 0.308360 -0.523560
O4    O     O_R   0.509700 0.743230 0.691640 -0.523549
O5    O     O_R   0.386960 0.514660 0.655680 -0.577202
O6    O     O_R   0.613040 0.485340 0.344320 -0.577125
O7    O     O_R   0.371190 0.485310 0.344260 -0.566751
O8    O     O_R   0.628810 0.514690 0.655740 -0.566798
H1    H     H_    0.044318 0.232377 0.384991 0.152590
H2    H     H_    0.955682 0.767619 0.615008 0.152544
H3    H     H_    0.946250 0.326589 0.692068 0.158684
H4    H     H_    0.053750 0.673407 0.307931 0.158701
C19   C     C_2   0.935473 0.388469 0.129946 0.330950
H5    H     H_    0.979647 0.350523 0.026867 0.056866
O9    O     O_2   0.859652 0.381738 0.084658 -0.528103
C20   C     C_2   0.064528 0.611528 0.870053 0.331003
H6    H     H_    0.020354 0.649473 0.973133 0.056847
O10   O     O_2   0.140348 0.618259 0.915341 -0.528104
C21   C     C_2   0.398618 0.962820 0.326911 0.415726
H7    H     H_    0.367251 0.857046 0.350774 0.088189
O11   O     O_2   0.366608 0.022728 0.206165 -0.515221
C22   C     C_2   0.601278 0.037251 0.673185 0.415991
H8    H     H_    0.632847 0.142639 0.648727 0.087733
O12   O     O_2   0.632961 0.977908 0.794788 -0.514940
H9    H     H_    0.434943 0.377793 0.949138 0.243107
H10   H     H_    0.565057 0.622207 0.050861 0.243076

loop_
_geom_bond_atom_site_label_1
_geom_bond_atom_site_label_2
_ccdc_geom_bond_type
N2    H10   S    
C9    C14   S    
C1    O3    A    
C15   C17   S    
C10   H2    S    
C4    C12   S    
Cu1   O5    S    
C21   H7    S    
Cu1   O1    S    
C19   H5    S    
Cu1   Cu2   S    
C3    O5    A    
C9    C15   S    
C2    O4    A    
C10   C16   S    
N1    N2    D    
C22   H8    S    
C20   O10   D    
C21   O11   D    
C13   C20   S    
C2    C6    S    
C8    C14   S    
C1    C5    S    
C8    C10   S    
C7    C16   S    
C19   O9    D    
C22   O12   D    
C1    O1    A    
C8    C15   S    
Cu2   O7    S    
C13   C15   S    
C2    O2    A    
C5    C6    D    
C14   C16   S    
C3    C11   S    
Cu2   O3    S    
C7    H3    S    
C7    C9    S    
C7    C13   S    
Cu1   N2    S    
C20   H6    S    
Cu2   N1    S    
C16   C18   S    
C12   C18   T    
C14   C19   S    
C3    O7    A    
Cu1   O4    S    
C5    C21   S    
C11   C17   T    
C6    C22   S    
Cu2   O6    S    
C4    O6    A    
C8    H4    S    
Cu1   O8    S    
C4    O8    A    
Cu2   O2    S    
C9    H1    S    
N1    H9    S    
C10   C13   S    
