data_mof_unit_63139.cif
_audit_creation_date              2012-10-26T19:16:51-0400
_audit_creation_method            fapswitch 2.2
_symmetry_space_group_name_H-M    P1
_symmetry_Int_Tables_number       1
_space_group_crystal_system       triclinic
_cell_length_a                    13.903138
_cell_length_b                    14.769147
_cell_length_c                    16.002012
_cell_angle_alpha                 90.00257
_cell_angle_beta                  89.978158
_cell_angle_gamma                 84.862143
_cell_volume                      3272.61068767

loop_
_atom_site_label
_atom_site_type_symbol
_atom_type_description
_atom_site_fract_x
_atom_site_fract_y
_atom_site_fract_z
_atom_type_partial_charge
C1    C     C_R   0.499970 0.500020 0.659155 0.546707
C2    C     C_R   0.444505 0.956786 0.441905 -0.098272
C3    C     C_1   0.500029 0.197285 0.499983 0.139458
C4    C     C_1   0.499971 0.802715 0.500017 0.139458
C5    C     C_R   0.683476 0.485457 0.499974 0.547990
C6    C     C_R   0.316524 0.514543 0.500026 0.547991
C7    C     C_1   0.213505 0.523449 0.500042 -0.001242
C8    C     C_1   0.786494 0.476551 0.499958 -0.001243
C9    C     C_2   0.023290 0.537539 0.500067 -0.111722
C10   C     C_2   0.976710 0.462461 0.499933 -0.111722
C11   C     C_1   0.873222 0.469486 0.499945 -0.035335
C12   C     C_R   0.500030 0.499980 0.340845 0.546707
C13   C     C_1   0.126778 0.530514 0.500054 -0.035335
C14   C     C_R   0.499544 0.418035 0.043850 -0.130701
C15   C     C_R   0.500456 0.581965 0.956150 -0.130701
C16   C     C_R   0.500015 0.500291 0.087241 -0.016761
C17   C     C_R   0.499985 0.499709 0.912759 -0.016761
C18   C     C_R   0.500471 0.582380 0.043378 0.397193
C19   C     C_R   0.499529 0.417619 0.956622 0.397193
C20   C     C_1   0.500025 0.500110 0.176720 0.022220
C21   C     C_1   0.499975 0.499890 0.823280 0.022220
C22   C     C_1   0.499969 0.499995 0.748254 0.012967
C23   C     C_1   0.500031 0.500005 0.251746 0.012967
C24   C     C_R   0.444521 0.052567 0.441896 -0.102558
C25   C     C_R   0.555479 0.947433 0.558104 -0.102558
C26   C     C_R   0.500017 0.097135 0.499990 0.003424
C27   C     C_R   0.499983 0.902865 0.500010 0.003424
C28   C     C_R   0.555495 0.043214 0.558095 -0.098272
Cu1   Cu    Cu3+1 0.499970 0.410780 0.500000 1.019749
Cu2   Cu    Cu3+1 0.500030 0.589220 0.500000 1.019748
F1    F     F_    0.499072 0.337481 0.915114 -0.603112
F2    F     F_    0.500928 0.662519 0.084886 -0.603112
H1    H     H_    0.015988 0.395447 0.499812 0.143763
H2    H     H_    0.984012 0.604553 0.500188 0.143763
H3    H     H_    0.499190 0.354389 0.077495 0.153369
H4    H     H_    0.500810 0.645611 0.922504 0.153369
H5    H     H_    0.400971 0.924787 0.396331 0.127674
H6    H     H_    0.599029 0.075212 0.603669 0.127674
H7    H     H_    0.400998 0.091902 0.396316 0.121010
H8    H     H_    0.599002 0.908098 0.603684 0.121010
N1    N     N_1   0.499970 0.723290 0.500020 -0.184975
N2    N     N_1   0.500030 0.276710 0.499980 -0.184975
O1    O     O_R   0.499950 0.424680 0.619690 -0.474965
O2    O     O_R   0.500050 0.575320 0.380310 -0.474965
O3    O     O_R   0.500000 0.575360 0.619690 -0.497538
O4    O     O_R   0.500000 0.424640 0.380310 -0.497538
O5    O     O_R   0.637820 0.414010 0.499980 -0.488949
O6    O     O_R   0.362180 0.585990 0.500020 -0.488950
O7    O     O_R   0.637870 0.564690 0.499980 -0.489392
O8    O     O_R   0.362130 0.435310 0.500020 -0.489393

loop_
_geom_bond_atom_site_label_1
_geom_bond_atom_site_label_2
_ccdc_geom_bond_type
C15   C18   A    
Cu2   N1    S    
C2    C27   A    
Cu1   N2    S    
C25   C27   A    
C9    C10   D    
Cu2   O3    S    
C26   C28   A    
C2    H5    S    
C20   C23   T    
C28   H6    S    
Cu1   O4    S    
C16   C20   S    
C19   F1    S    
C4    C27   S    
C1    C22   S    
C3    N2    T    
C21   C22   T    
Cu1   O1    S    
C25   C28   A    
C5    O5    A    
C12   C23   S    
C1    O3    A    
Cu1   Cu2   S    
C6    O6    A    
Cu1   O5    S    
C8    C11   T    
Cu2   O6    S    
C17   C19   A    
Cu2   O7    S    
C24   C26   A    
C6    C7    S    
Cu2   O2    S    
Cu1   O8    S    
C25   H8    S    
C2    C24   A    
C9    H2    S    
C14   C16   A    
C5    O7    A    
C5    C8    S    
C18   F2    S    
C10   C11   S    
C15   H4    S    
C7    C13   T    
C24   H7    S    
C16   C18   A    
C10   H1    S    
C4    N1    T    
C14   H3    S    
C15   C17   A    
C9    C13   S    
C12   O2    A    
C14   C19   A    
C1    O1    A    
C3    C26   S    
C6    O8    A    
C12   O4    A    
C17   C21   S    
