data_mof_unit_65991.cif
_audit_creation_date              2012-10-26T21:02:09-0400
_audit_creation_method            fapswitch 2.2
_symmetry_space_group_name_H-M    P1
_symmetry_Int_Tables_number       1
_space_group_crystal_system       triclinic
_cell_length_a                    9.786432
_cell_length_b                    10.911759
_cell_length_c                    13.870342
_cell_angle_alpha                 91.051556
_cell_angle_beta                  84.710935
_cell_angle_gamma                 88.441059
_cell_volume                      1473.99874128

loop_
_atom_site_label
_atom_site_type_symbol
_atom_type_description
_atom_site_fract_x
_atom_site_fract_y
_atom_site_fract_z
_atom_type_partial_charge
Br1   Br    Br    0.268132 0.539349 0.044985 -0.457883
Br2   Br    Br    0.631741 0.140059 0.313498 -0.405691
Br3   Br    Br    0.778738 0.871485 0.409930 -0.298442
Br4   Br    Br    0.299358 0.930224 0.472781 -0.346878
Br5   Br    Br    0.134748 0.658682 0.664488 -0.358818
Br6   Br    Br    0.107102 0.469576 0.372897 -0.304668
Br7   Br    Br    0.813938 0.699993 0.634763 -0.308958
C1    C     C_R   0.498400 0.734130 0.492278 0.581809
C2    C     C_R   0.502090 0.266104 0.502799 0.538727
C3    C     C_R   0.522525 0.499243 0.317276 0.566914
C4    C     C_1   0.536631 0.495925 0.214051 0.050009
C5    C     C_2   0.560347 0.487715 0.022019 0.284498
C6    C     C_2   0.446096 0.507152 0.976727 0.182075
C7    C     C_1   0.454032 0.504636 0.872841 0.064036
C8    C     C_1   0.548220 0.492298 0.127092 0.004711
C9    C     C_3   0.794877 0.435298 0.020714 0.006192
C10   C     C_3   0.923365 0.407622 0.952632 -0.313506
C11   C     C_3   0.406272 0.149711 0.671099 0.009082
C12   C     C_1   0.463831 0.502554 0.785920 0.032040
C13   C     C_3   0.371831 0.074668 0.760929 -0.318257
C14   C     C_2   0.572712 0.067502 0.435767 0.189542
C15   C     C_2   0.511823 0.133577 0.511898 0.289816
C16   C     C_2   0.594445 0.934681 0.443914 0.190668
C17   C     C_2   0.486851 0.864925 0.472465 0.161342
C18   C     C_2   0.066495 0.564642 0.560937 0.306734
C19   C     C_2   0.913208 0.576020 0.552894 0.314580
C20   C     C_R   0.477516 0.500639 0.682709 0.534701
Cu1   Cu    Cu3+1 0.361370 0.499980 0.499980 1.143083
Cu2   Cu    Cu3+1 0.638630 0.500020 0.500020 1.099586
H1    H     H_    0.894167 0.417949 0.482925 0.233277
H2    H     H_    0.310500 0.132061 0.817028 0.114956
H3    H     H_    0.467727 0.042038 0.790486 0.187753
H4    H     H_    0.771706 0.351968 0.063765 0.165010
H5    H     H_    0.816144 0.513183 0.069602 0.176337
H6    H     H_    0.951437 0.489974 0.910092 0.205389
H7    H     H_    0.009838 0.381075 0.995140 0.162048
H8    H     H_    0.905118 0.330867 0.902128 0.168738
H9    H     H_    0.307961 0.181557 0.644129 0.172446
H10   H     H_    0.466276 0.229454 0.692200 0.122466
H11   H     H_    0.311292 0.994253 0.742503 0.208640
N1    N     N_2   0.152970 0.501340 0.501040 -0.134831
N2    N     N_2   0.846830 0.501370 0.501060 -0.320941
O1    O     O_R   0.382960 0.678040 0.499980 -0.443057
O2    O     O_3   0.484112 0.075410 0.600575 -0.567675
O3    O     O_R   0.617100 0.678080 0.500020 -0.445089
O4    O     O_R   0.366380 0.499950 0.637830 -0.490375
O5    O     O_R   0.600520 0.499990 0.637860 -0.476469
O6    O     O_R   0.382900 0.321920 0.499980 -0.495788
O7    O     O_R   0.617040 0.321960 0.500020 -0.500326
O8    O     O_R   0.399480 0.500010 0.362140 -0.436727
O9    O     O_R   0.633620 0.500050 0.362170 -0.479022
O10   O     O_3   0.685159 0.466250 0.965474 -0.563801

loop_
_geom_bond_atom_site_label_1
_geom_bond_atom_site_label_2
_ccdc_geom_bond_type
C16   C17   D    
C1    O1    A    
C10   H7    S    
C11   O2    S    
C9    H4    S    
C12   C20   S    
Cu1   O1    S    
Br3   C16   S    
C5    C8    S    
C11   H10   S    
C9    H5    S    
Br2   C14   S    
C11   H9    S    
Cu2   O7    S    
C6    C7    S    
Cu1   O4    S    
Br7   C19   S    
C4    C8    T    
Cu2   O5    S    
Br4   C17   S    
C13   H11   S    
C3    O9    A    
C20   O4    A    
Cu1   Cu2   S    
C1    C17   S    
C15   O2    S    
C11   C13   S    
C14   C16   S    
C13   H3    S    
Cu2   N2    S    
Br5   C18   S    
C2    C15   S    
Br1   C6    S    
C3    C4    S    
C20   O5    A    
C3    O8    A    
Cu1   N1    S    
C2    O7    A    
C5    C6    D    
C19   N2    D    
C2    O6    A    
Cu2   O9    S    
C18   N1    D    
C1    O3    A    
H1    N2    S    
C10   H8    S    
C10   H6    S    
C5    O10   S    
C18   C19   S    
C14   C15   D    
Cu1   O8    S    
C7    C12   T    
C13   H2    S    
Cu1   O6    S    
C9    O10   S    
Cu2   O3    S    
C9    C10   S    
Br6   N1    S    
