data_mof_unit_18358.cif
_audit_creation_date              2012-12-10T18:47:41-0500
_audit_creation_method            fapswitch 2.2
_symmetry_space_group_name_H-M    P1
_symmetry_Int_Tables_number       1
_space_group_crystal_system       triclinic
_cell_length_a                    9.901653
_cell_length_b                    10.622497
_cell_length_c                    15.580906
_cell_angle_alpha                 90.899658
_cell_angle_beta                  68.286266
_cell_angle_gamma                 90.607914
_cell_volume                      1522.31290801

loop_
_atom_site_label
_atom_site_type_symbol
_atom_type_description
_atom_site_fract_x
_atom_site_fract_y
_atom_site_fract_z
_atom_type_partial_charge
C1    C     C_R   0.501374 0.739594 0.498708 0.951293
C2    C     C_R   0.498561 0.260441 0.501509 0.947689
C3    C     C_R   0.322253 0.477162 0.102129 -0.112768
C4    C     C_R   0.674823 0.497508 0.897867 -0.135723
C5    C     C_R   0.230337 0.425644 0.059463 0.315069
C6    C     C_R   0.766221 0.553385 0.938868 0.325445
C7    C     C_R   0.530430 0.935477 0.568531 -0.216093
C8    C     C_R   0.470145 0.064617 0.431659 -0.210267
C9    C     C_R   0.527562 0.064851 0.571505 0.393897
C10   C     C_R   0.473521 0.935315 0.428521 0.396856
C11   C     C_R   0.497176 0.128086 0.502606 -0.194556
C12   C     C_R   0.503005 0.872001 0.497689 -0.190782
C13   C     C_R   0.955438 0.412415 0.450085 -0.103457
C14   C     C_R   0.044579 0.587644 0.549900 -0.143869
C15   C     C_R   0.098662 0.412061 0.449921 0.465383
C16   C     C_R   0.901009 0.587385 0.550631 0.455329
C17   C     C_R   0.409407 0.497582 0.675348 0.897477
C18   C     C_R   0.590512 0.501251 0.324604 0.896482
C19   C     C_R   0.354992 0.481357 0.774892 -0.050409
C20   C     C_R   0.644488 0.511967 0.224619 -0.046509
C21   C     C_R   0.179295 0.401859 0.917182 -0.090278
C22   C     C_R   0.817702 0.587231 0.080117 -0.088822
C23   C     C_R   0.220785 0.424455 0.822923 -0.100223
C24   C     C_R   0.777305 0.569757 0.174888 -0.096685
C25   C     C_R   0.448889 0.509949 0.820095 -0.137015
C26   C     C_R   0.551347 0.476013 0.180292 -0.141389
C27   C     C_R   0.417536 0.473195 0.910811 0.088221
C28   C     C_R   0.580432 0.508480 0.088966 0.093314
C29   C     C_R   0.275534 0.429888 0.962920 0.043620
C30   C     C_R   0.721518 0.553349 0.035509 0.041654
C31   C     C_R   0.522884 0.486328 0.951578 -0.049464
C32   C     C_R   0.474359 0.491107 0.048801 -0.043221
H1    H     H_    0.454326 0.423023 0.218340 0.181261
H2    H     H_    0.548570 0.560514 0.783326 0.181778
H3    H     H_    0.850044 0.599909 0.208865 0.191730
H4    H     H_    0.147841 0.398787 0.788029 0.198928
H5    H     H_    0.071312 0.364651 0.953419 0.200901
H6    H     H_    0.924832 0.625263 0.042604 0.200172
H7    H     H_    0.550826 0.884379 0.622161 0.225415
H8    H     H_    0.450150 0.115692 0.377877 0.225111
H9    H     H_    0.923295 0.342851 0.409738 0.211783
H10   H     H_    0.076584 0.656946 0.590484 0.218605
N1    N     N_R   0.142780 0.500030 0.500020 -0.157519
N2    N     N_R   0.857220 0.499970 0.499980 -0.153473
O1    O     O_R   0.385370 0.683250 0.500010 -0.593194
O2    O     O_R   0.614630 0.316750 0.499990 -0.591589
O3    O     O_R   0.614700 0.683220 0.500000 -0.575928
O4    O     O_R   0.385300 0.316780 0.500000 -0.578368
O5    O     O_R   0.319830 0.500020 0.632250 -0.612635
O6    O     O_R   0.680170 0.499980 0.367750 -0.610031
O7    O     O_R   0.549160 0.499990 0.632240 -0.567913
O8    O     O_R   0.450840 0.500010 0.367760 -0.571225
Zn1   Zn    Zn3+2 0.346870 0.500020 0.500000 1.043009
Zn2   Zn    Zn3+2 0.653130 0.499980 0.500000 1.055614
Cl1   Cl    Cl    0.054948 0.367433 0.126347 -0.573395
Cl2   Cl    Cl    0.937807 0.616414 0.870136 -0.568118
C33   C     C_2   0.254868 0.541440 0.193898 0.948764
O9    O     O_2   0.146491 0.498245 0.253477 -0.575248
O10   O     O_R   0.314258 0.654663 0.211032 -0.743730
H11   H     H_    0.258342 0.689921 0.275125 0.381558
C34   C     C_2   0.741038 0.425591 0.808819 0.969795
O11   O     O_2   0.680758 0.330159 0.795672 -0.549184
O12   O     O_R   0.873589 0.462004 0.741907 -0.743759
H12   H     H_    0.908187 0.400952 0.687546 0.338438
Cl3   Cl    Cl    0.556151 0.144038 0.663747 -0.508947
Cl4   Cl    Cl    0.447879 0.856412 0.335312 -0.554400
Cl5   Cl    Cl    0.218521 0.297455 0.381961 -0.553415
Cl6   Cl    Cl    0.779754 0.699243 0.620992 -0.550993

loop_
_geom_bond_atom_site_label_1
_geom_bond_atom_site_label_2
_ccdc_geom_bond_type
C19   C23   A    
C16   Cl6   S    
C17   O7    A    
C27   C29   A    
C22   C30   A    
C16   N2    A    
C26   H1    S    
C26   C28   A    
C31   C32   A    
C13   C15   A    
C25   H2    S    
C14   H10   S    
O7    Zn2   S    
C15   Cl5   S    
O2    Zn2   S    
C9    Cl3   S    
C28   C30   A    
C3    C5    A    
C18   O8    A    
O10   H11   S    
O6    Zn2   S    
C6    C30   A    
C2    O2    A    
C13   N2    A    
C9    C11   A    
C1    O1    A    
C33   O9    D    
O4    Zn1   S    
C1    C12   S    
C10   C12   A    
C34   O12   S    
C8    C11   A    
O5    Zn1   S    
C2    C11   S    
C3    C33   S    
C22   C24   A    
C13   H9    S    
C15   N1    A    
N1    Zn1   S    
C5    C29   A    
C10   Cl4   S    
C21   C23   A    
C3    C32   A    
C19   C25   A    
C14   C16   A    
C7    C12   A    
C33   O10   S    
C24   H3    S    
C25   C27   A    
C34   O11   D    
C27   C31   A    
O12   H12   S    
C4    C31   A    
N2    Zn2   S    
C28   C32   A    
C21   H5    S    
O8    Zn1   S    
C18   O6    A    
C18   C20   S    
C4    C6    A    
C23   H4    S    
C17   O5    A    
C7    C9    A    
C7    H7    S    
O3    Zn2   S    
C17   C19   S    
C8    H8    S    
C2    O4    A    
O1    Zn1   S    
C21   C29   A    
C4    C34   S    
C5    Cl1   S    
C8    C10   A    
C1    O3    A    
C20   C24   A    
C6    Cl2   S    
C14   N1    A    
C20   C26   A    
C22   H6    S    
