data_mof_unit_52923.cif
_audit_creation_date              2013-03-05T16:13:32-0500
_audit_creation_method            fapswitch 2.2
_symmetry_space_group_name_H-M    P1
_symmetry_Int_Tables_number       1
_space_group_crystal_system       triclinic
_cell_length_a                    10.657711
_cell_length_b                    9.900204
_cell_length_c                    10.78298
_cell_angle_alpha                 89.652582
_cell_angle_beta                  91.370677
_cell_angle_gamma                 90.46561
_cell_volume                      1137.3673892

loop_
_atom_site_label
_atom_site_type_symbol
_atom_site_description
_atom_site_fract_x
_atom_site_fract_y
_atom_site_fract_z
_atom_type_partial_charge
O1    O     O_R   0.316770 0.614620 0.499990 -0.563746
O2    O     O_R   0.683230 0.614620 0.500010 -0.589214
O3    O     O_R   0.316800 0.385290 0.500000 -0.638436
O4    O     O_R   0.683200 0.385290 0.500000 -0.618771
C1    C     C_R   0.260302 0.499416 0.499717 0.890338
C2    C     C_R   0.739881 0.500146 0.500160 0.862502
O5    O     O_R   0.500000 0.614690 0.316780 -0.586194
O6    O     O_R   0.500000 0.614690 0.683220 -0.568669
O7    O     O_R   0.500020 0.385360 0.316780 -0.580969
O8    O     O_R   0.499980 0.385360 0.683220 -0.586343
C3    C     C_R   0.507782 0.499853 0.260955 0.913229
C4    C     C_R   0.504447 0.499188 0.739526 0.946964
Zn1   Zn    Zn3+2 0.500000 0.653120 0.500000 1.112506
Zn2   Zn    Zn3+2 0.500000 0.346880 0.500000 1.058804
C5    C     C_R   0.515122 0.614964 0.061518 -0.061215
C6    C     C_R   0.506161 0.613655 0.937670 -0.013575
C7    C     C_R   0.524596 0.497128 0.130295 -0.239398
C8    C     C_R   0.517337 0.495719 0.871022 -0.216904
C9    C     C_R   0.545659 0.374375 0.066620 0.219820
C10   C     C_R   0.543780 0.374026 0.936855 0.221141
C11   C     C_3   0.485461 0.762511 0.927157 0.233878
C12   C     C_3   0.500342 0.764408 0.069719 0.166100
H1    H     H_    0.559906 0.816839 0.876644 0.192224
H2    H     H_    0.415579 0.795796 0.118899 0.206078
C13   C     C_R   0.062144 0.397674 0.435687 -0.128417
C14   C     C_R   0.933269 0.398614 0.435121 -0.125100
H3    H     H_    0.110162 0.320563 0.384435 0.176550
H4    H     H_    0.881241 0.322092 0.383478 0.203419
C15   C     C_R   0.872510 0.499553 0.500123 -0.054812
C16   C     C_R   0.128019 0.498329 0.500437 -0.032741
C17   C     C_R   0.938829 0.597749 0.567178 -0.092987
C18   C     C_R   0.067347 0.598089 0.566461 -0.093457
H5    H     H_    0.891865 0.671515 0.622106 0.231260
H6    H     H_    0.119224 0.674149 0.618817 0.205416
C19   C     C_R   0.600784 0.073578 0.544781 -0.023045
C20   C     C_R   0.398875 0.072305 0.455581 -0.055717
H7    H     H_    0.680865 0.129335 0.581648 0.203705
H8    H     H_    0.318518 0.127072 0.419138 0.175993
C21   C     C_R   0.601217 0.930543 0.546455 0.357518
C22   C     C_R   0.398128 0.929165 0.454492 0.356168
N1    N     N_R   0.500000 0.857200 0.500000 -0.173902
N2    N     N_R   0.500000 0.142810 0.500000 -0.131301
N3    N     N_R   0.573542 0.250995 0.131433 0.263612
O9    O     O_R   0.488473 0.156468 0.138660 -0.292123
O10   O     O_R   0.680736 0.236950 0.190189 -0.328720
N4    N     N_R   0.575541 0.251925 0.874420 0.245664
O11   O     O_R   0.685631 0.239888 0.826155 -0.347933
O12   O     O_R   0.496343 0.151245 0.869433 -0.289415
S1    S     S_3+6 0.329391 0.803376 0.874457 0.067387
O13   O     O_2   0.290391 0.933593 0.932605 -0.193272
O14   O     O_2   0.326647 0.819829 0.735861 -0.295055
O15   O     O_3   0.229173 0.679446 0.914794 -0.542755
H9    H     H_    0.147539 0.705207 0.876083 0.395140
S2    S     S_3+6 0.643158 0.844941 0.123075 0.118915
O16   O     O_2   0.671766 0.965046 0.042443 -0.139171
O17   O     O_2   0.628507 0.892083 0.253988 -0.274755
O18   O     O_3   0.764047 0.736901 0.118055 -0.490810
H10   H     H_    0.757291 0.680324 0.193750 0.358255
N5    N     N_R   0.708991 0.865240 0.598945 0.215332
O19   O     O_R   0.820196 0.910883 0.572801 -0.356143
O20   O     O_R   0.696681 0.787603 0.695449 -0.399541
N6    N     N_R   0.288460 0.862218 0.405906 0.227955
O21   O     O_R   0.178139 0.901024 0.439801 -0.342432
O22   O     O_R   0.296426 0.784806 0.309694 -0.358836

loop_
_geom_bond_atom_site_label_1
_geom_bond_atom_site_label_2
_geom_bond_distance
_ccdc_geom_bond_type
S2    O16   1.502345 D    
C19   C21   1.416123 A    
O7    Zn2   2.009787 S    
C17   H5    1.077046 S    
C6    C11   1.495122 S    
C13   H3    1.084031 S    
O7    C3    1.283202 A    
O6    Zn1   2.009692 S    
C20   N2    1.358425 A    
C17   C18   1.369894 A    
O5    Zn1   2.014223 S    
O2    Zn1   1.992698 S    
O6    C4    1.292106 A    
S1    O15   1.682214 S    
C21   N5    1.426248 S    
N6    O21   1.301237 A    
C20   H8    1.082001 S    
N5    O19   1.301563 A    
C21   N1    1.381193 A    
N4    O11   1.301513 A    
C11   C12   1.541831 S    
C16   C18   1.393327 A    
N3    O10   1.301072 A    
O18   H10   0.990837 S    
O2    C2    1.288409 A    
O3    Zn2   1.992209 S    
O8    C4    1.283304 A    
C14   C15   1.396404 A    
O1    C1    1.285236 A    
C11   S1    1.793396 S    
C22   N1    1.382046 A    
C7    C9    1.421495 A    
C9    N3    1.433307 S    
O5    C3    1.293842 A    
C12   H2    1.106057 S    
C12   S2    1.796501 S    
C11   H1    1.107095 S    
N3    O9    1.300995 A    
O4    Zn2   1.986143 S    
S2    O17   1.501540 D    
N5    O20   1.298479 A    
O4    C2    1.283246 A    
O1    Zn1   1.986619 S    
C5    C6    1.336713 A    
N4    O12   1.301407 A    
C20   C22   1.417193 A    
C2    C15   1.413600 S    
C22   N6    1.429054 S    
O15   H9    0.990547 S    
C8    C10   1.421416 A    
C6    C8    1.382190 A    
S1    O13   1.502950 D    
C1    C16   1.409992 S    
S1    O14   1.501958 D    
C4    C8    1.421522 S    
C13   C16   1.395361 A    
C5    C7    1.381660 A    
C19   N2    1.356403 A    
Zn1   N1    2.020434 S    
C3    C7    1.424944 S    
N6    O22   1.298381 A    
C19   H7    1.081638 S    
C13   C14   1.373486 A    
C15   C17   1.392982 A    
Zn2   N2    2.020336 S    
C14   H4    1.083984 S    
C5    C12   1.492538 S    
C10   N4    1.434052 S    
C9    C10   1.398951 A    
O8    Zn2   2.014324 S    
O3    C1    1.284572 A    
S2    O18   1.683275 S    
C18   H6    1.083918 S    
