data_mof_unit_58192.cif
_audit_creation_date              2012-12-10T20:34:14-0500
_audit_creation_method            fapswitch 2.2
_symmetry_space_group_name_H-M    P1
_symmetry_Int_Tables_number       1
_space_group_crystal_system       triclinic
_cell_length_a                    9.88405
_cell_length_b                    10.680362
_cell_length_c                    13.610984
_cell_angle_alpha                 90.263967
_cell_angle_beta                  82.962549
_cell_angle_gamma                 89.650851
_cell_volume                      1425.97465893

loop_
_atom_site_label
_atom_site_type_symbol
_atom_type_description
_atom_site_fract_x
_atom_site_fract_y
_atom_site_fract_z
_atom_type_partial_charge
C1    C     C_R   0.499564 0.739703 0.499302 0.886000
C2    C     C_3   0.298594 0.935238 0.622214 -0.487897
C3    C     C_R   0.918542 0.583258 0.557585 0.149292
C4    C     C_R   0.475531 0.499632 0.685710 0.896123
C5    C     C_R   0.939848 0.428998 0.434497 -0.136166
C6    C     C_R   0.083612 0.428537 0.434687 -0.138272
C7    C     C_R   0.060407 0.581688 0.558527 0.069662
C8    C     C_3   0.043783 0.598255 0.669243 0.302721
C9    C     C_3   0.889603 0.602391 0.667049 -0.567100
C10   C     C_R   0.501264 0.260173 0.494256 0.871137
C11   C     C_R   0.524420 0.501080 0.314281 0.880967
C12   C     C_1   0.456733 0.498084 0.789539 -0.165263
C13   C     C_1   0.543082 0.501508 0.210407 -0.180649
C14   C     C_2   0.558788 0.500556 0.018606 -0.177168
C15   C     C_2   0.441160 0.495819 0.981299 -0.161767
C16   C     C_1   0.444700 0.496752 0.877392 0.015595
C17   C     C_1   0.555104 0.501313 0.122534 0.006977
C18   C     C_3   0.068452 0.376999 0.696447 0.169726
C19   C     C_3   0.057514 0.290613 0.785515 -0.874290
C20   C     C_3   0.720859 0.120801 0.355873 -0.410379
C21   C     C_3   0.664366 0.173464 0.264368 -0.324540
C22   C     C_3   0.775843 0.234403 0.193235 -0.872431
C23   C     C_R   0.382084 0.937775 0.523068 0.138187
C24   C     C_R   0.498511 0.870849 0.487957 -0.128767
C25   C     C_R   0.607235 0.930067 0.431621 -0.256201
C26   C     C_R   0.608415 0.060334 0.424827 0.083806
C27   C     C_R   0.500744 0.127878 0.480706 -0.135126
C28   C     C_R   0.383773 0.064928 0.520246 0.109444
C29   C     C_3   0.299772 0.077239 0.618893 -0.484222
H1    H     H_    0.343758 0.492084 0.027953 0.163717
H2    H     H_    0.355112 0.895596 0.680828 0.198265
H3    H     H_    0.195862 0.895059 0.618485 0.195722
H4    H     H_    0.895424 0.370936 0.382252 0.136583
H5    H     H_    0.157066 0.345756 0.643992 0.181340
H6    H     H_    0.974553 0.365963 0.660209 0.123861
H7    H     H_    0.970821 0.320465 0.840523 0.260500
H8    H     H_    0.040046 0.192995 0.761915 0.207482
H9    H     H_    0.153236 0.293574 0.820547 0.263622
H10   H     H_    0.817314 0.317293 0.228471 0.262110
H11   H     H_    0.859652 0.166526 0.170789 0.256786
H12   H     H_    0.146770 0.368627 0.383439 0.151690
H13   H     H_    0.732575 0.265644 0.125849 0.255116
H14   H     H_    0.618556 0.096159 0.224817 0.222165
H15   H     H_    0.583244 0.243697 0.286892 0.210360
H16   H     H_    0.772472 0.193542 0.395069 0.218032
H17   H     H_    0.801410 0.050708 0.330310 0.190562
H18   H     H_    0.083842 0.690372 0.690109 0.098423
H19   H     H_    0.832418 0.524609 0.706373 0.227498
H20   H     H_    0.844687 0.696479 0.685588 0.172901
H21   H     H_    0.656197 0.504420 0.971955 0.160898
H22   H     H_    0.690726 0.875008 0.394068 0.163255
H23   H     H_    0.356227 0.120909 0.675913 0.200260
H24   H     H_    0.197766 0.118404 0.612529 0.198159
N1    N     N_R   0.857130 0.500860 0.500650 -0.093035
N2    N     N_R   0.142770 0.500820 0.500650 -0.116118
O1    O     O_R   0.385310 0.683210 0.499990 -0.614326
O2    O     O_R   0.614650 0.683240 0.500000 -0.613809
O3    O     O_R   0.368820 0.499950 0.640340 -0.580888
O4    O     O_R   0.598170 0.499990 0.640350 -0.618322
O5    O     O_R   0.385350 0.316760 0.500000 -0.633261
O6    O     O_R   0.614690 0.316790 0.500010 -0.620414
O7    O     O_R   0.401830 0.500010 0.359650 -0.611609
O8    O     O_R   0.631180 0.500050 0.359660 -0.610320
O9    O     O_3   0.090438 0.500885 0.728592 -0.571417
Zn1   Zn    Zn3+2 0.346870 0.499980 0.499990 0.946277
Zn2   Zn    Zn3+2 0.653130 0.500020 0.500010 0.938534

loop_
_geom_bond_atom_site_label_1
_geom_bond_atom_site_label_2
_ccdc_geom_bond_type
C10   C27   S    
C10   O5    A    
C23   C24   A    
C25   H22   S    
N1    Zn2   S    
C19   H9    S    
C1    O2    A    
C4    C12   S    
C21   H15   S    
C18   H5    S    
C18   H6    S    
O2    Zn2   S    
O3    Zn1   S    
C11   O8    A    
C20   H16   S    
C13   C17   T    
C6    N2    A    
C11   O7    A    
C22   H11   S    
O8    Zn2   S    
C7    C8    S    
C14   H21   S    
C21   C22   S    
C24   C25   A    
C5    N1    A    
C11   C13   S    
C14   C17   S    
C18   O9    S    
C26   C27   A    
C22   H13   S    
C20   C26   S    
C8    O9    S    
C2    C29   S    
C3    C9    S    
C7    N2    A    
C4    O4    A    
C28   C29   S    
N2    Zn1   S    
C1    O1    A    
O5    Zn1   S    
C3    C7    A    
C19   H7    S    
O4    Zn2   S    
C5    C6    A    
C3    N1    A    
C8    H18   S    
C10   O6    A    
C23   C28   A    
C22   H10   S    
C15   C16   S    
C12   C16   T    
C9    H19   S    
C2    C23   S    
C9    H20   S    
C20   C21   S    
C1    C24   S    
C2    H3    S    
C18   C19   S    
C15   H1    S    
C4    O3    A    
C27   C28   A    
C14   C15   D    
C8    C9    S    
C19   H8    S    
O7    Zn1   S    
C25   C26   A    
C21   H14   S    
O6    Zn2   S    
C6    H12   S    
C20   H17   S    
O1    Zn1   S    
C2    H2    S    
C29   H24   S    
C29   H23   S    
C5    H4    S    
