data_mof_unit_46361.cif
_audit_creation_date              2012-10-26T19:13:29-0400
_audit_creation_method            fapswitch 2.2
_symmetry_space_group_name_H-M    P1
_symmetry_Int_Tables_number       1
_space_group_crystal_system       triclinic
_cell_length_a                    13.42965
_cell_length_b                    13.88477
_cell_length_c                    15.077881
_cell_angle_alpha                 89.018452
_cell_angle_beta                  90.047446
_cell_angle_gamma                 72.337646
_cell_volume                      2678.55672581

loop_
_atom_site_label
_atom_site_type_symbol
_atom_type_description
_atom_site_fract_x
_atom_site_fract_y
_atom_site_fract_z
_atom_type_partial_charge
C1    C     C_R   0.500261 0.499378 0.669690 0.546998
C2    C     C_R   0.816226 0.412389 0.502551 0.001600
C3    C     C_R   0.600206 0.453292 0.903251 -0.003006
C4    C     C_R   0.700647 0.445751 0.499102 0.554965
C5    C     C_R   0.596412 0.454320 0.810460 -0.136970
C6    C     C_R   0.502231 0.498229 0.765465 0.007992
C7    C     C_R   0.410584 0.542879 0.811754 -0.144930
C8    C     C_R   0.412820 0.543581 0.903687 -0.137610
C9    C     C_R   0.506994 0.501110 0.949964 0.036843
C10   C     C_R   0.487619 0.596812 0.092696 -0.000752
C11   C     C_R   0.487099 0.593868 0.185605 -0.128081
C12   C     C_R   0.981232 0.453186 0.491467 0.022859
C13   C     C_R   0.500509 0.502552 0.232440 -0.000039
C14   C     C_R   0.513564 0.413174 0.186030 -0.140821
C15   C     C_R   0.515070 0.414547 0.094102 -0.140001
C16   C     C_R   0.500018 0.500762 0.329594 0.536301
C17   C     C_R   0.504469 0.504860 0.046939 0.039401
C18   C     C_R   0.405220 0.919347 0.478344 0.240779
C19   C     C_R   0.409435 0.816283 0.480386 0.052919
C20   C     C_R   0.589546 0.766244 0.514377 0.003927
C21   C     C_R   0.590027 0.867350 0.509594 -0.168355
C22   C     C_R   0.497185 0.946348 0.492641 0.038094
C23   C     C_R   0.873952 0.475775 0.469120 -0.021178
C24   C     C_R   0.542544 0.090858 0.568765 0.253511
C25   C     C_R   0.545761 0.192858 0.568034 0.459318
C26   C     C_R   0.450353 0.226479 0.432856 -0.040680
C27   C     C_R   0.448382 0.125836 0.429694 -0.182720
C28   C     C_R   0.299903 0.554087 0.497731 0.537652
C29   C     C_R   0.495764 0.055633 0.497053 0.001738
C30   C     C_R   0.032044 0.689110 0.407515 -0.132218
C31   C     C_R   0.186890 0.584389 0.483169 -0.004794
C32   C     C_R   0.869069 0.321746 0.549124 0.272472
C33   C     C_R   0.978235 0.292052 0.555426 -0.129495
C34   C     C_R   0.033060 0.526695 0.473974 0.042490
C35   C     C_R   0.033208 0.357270 0.529120 -0.173626
C36   C     C_3   0.466363 0.698828 0.045593 -0.252455
C37   C     C_3   0.563984 0.712025 0.000863 -0.295320
C38   C     C_3   0.541929 0.817751 0.959863 -0.457822
C39   C     C_3   0.255025 0.016173 0.539490 -0.137146
C40   C     C_3   0.515345 0.004855 0.692976 -0.151731
C41   C     C_3   0.561442 0.220305 0.717080 -0.093645
C42   C     C_3   0.838077 0.242794 0.676904 -0.091621
C43   C     C_3   0.703043 0.398444 0.949109 -0.253744
C44   C     C_3   0.754393 0.471420 0.991114 -0.296233
C45   C     C_R   0.981294 0.616078 0.425126 0.051713
C46   C     C_3   0.861575 0.414814 0.029907 -0.452672
C47   C     C_R   0.880353 0.630506 0.393088 -0.144712
C48   C     C_R   0.827780 0.561011 0.413871 -0.134112
C49   C     C_R   0.134475 0.514751 0.505284 -0.131375
C50   C     C_R   0.134842 0.672972 0.435846 -0.137538
Cu1   Cu    Cu3+1 0.500000 0.403570 0.500010 1.007698
Cu2   Cu    Cu3+1 0.500000 0.596430 0.499990 0.920065
H1    H     H_    0.174869 0.727297 0.417552 0.122031
H2    H     H_    0.841348 0.696353 0.352468 0.103664
H3    H     H_    0.662832 0.883803 0.520596 0.154353
H4    H     H_    0.412383 0.278817 0.380395 0.142947
H5    H     H_    0.411107 0.102680 0.373744 0.158707
H6    H     H_    0.993158 0.757344 0.369803 0.109127
H7    H     H_    0.175543 0.451010 0.546696 0.113113
H8    H     H_    0.116848 0.329478 0.537653 0.110061
H9    H     H_    0.020999 0.219235 0.584039 0.102767
H10   H     H_    0.751183 0.574589 0.384658 0.144271
H11   H     H_    0.478996 0.831479 0.909022 0.150007
H12   H     H_    0.666588 0.420171 0.772780 0.101185
H13   H     H_    0.517989 0.875884 0.011851 0.148368
H14   H     H_    0.613684 0.824788 0.927459 0.140969
H15   H     H_    0.627974 0.699766 0.050602 0.155217
H16   H     H_    0.590136 0.656574 0.947245 0.177645
H17   H     H_    0.402651 0.709400 0.996119 0.142569
H18   H     H_    0.437452 0.760680 0.093873 0.134459
H19   H     H_    0.298407 0.046427 0.589341 0.103899
H20   H     H_    0.235461 0.949441 0.567400 0.106848
H21   H     H_    0.180401 0.075965 0.524983 0.145260
H22   H     H_    0.490223 0.941349 0.667724 0.134871
H23   H     H_    0.337518 0.576767 0.776690 0.104791
H24   H     H_    0.445595 0.071910 0.702863 0.075369
H25   H     H_    0.551246 0.980901 0.759201 0.130822
H26   H     H_    0.579403 0.277892 0.758302 0.122416
H27   H     H_    0.601356 0.147014 0.750402 0.144604
H28   H     H_    0.474861 0.236710 0.717299 0.085703
H29   H     H_    0.840803 0.312074 0.711818 0.079658
H30   H     H_    0.912841 0.181237 0.686017 0.097100
H31   H     H_    0.776900 0.216484 0.709309 0.170908
H32   H     H_    0.854232 0.359629 0.081792 0.157370
H33   H     H_    0.914565 0.374210 0.976978 0.146550
H34   H     H_    0.340803 0.577264 0.939095 0.107001
H35   H     H_    0.896381 0.469446 0.060476 0.143982
H36   H     H_    0.763808 0.526760 0.940148 0.157250
H37   H     H_    0.705049 0.512949 0.045457 0.174261
H38   H     H_    0.691036 0.344501 0.999981 0.140650
H39   H     H_    0.758520 0.351768 0.900407 0.123507
H40   H     H_    0.475262 0.663324 0.221556 0.126073
H41   H     H_    0.522974 0.341954 0.220683 0.127058
H42   H     H_    0.524340 0.344719 0.059344 0.101712
H43   H     H_    0.338878 0.797203 0.466543 0.134751
H44   H     H_    0.661957 0.708281 0.529564 0.149118
N1    N     N_R   0.500000 0.741310 0.499980 -0.254062
N2    N     N_R   0.500060 0.258650 0.499980 -0.240880
O1    O     O_R   0.499990 0.418570 0.628550 -0.464204
O2    O     O_3   0.591431 0.025440 0.637069 -0.576131
O3    O     O_3   0.602840 0.224762 0.631430 -0.495610
O4    O     O_3   0.813155 0.261649 0.585788 -0.509449
O5    O     O_R   0.499990 0.581440 0.628540 -0.492603
O6    O     O_R   0.650980 0.378820 0.499990 -0.407545
O7    O     O_R   0.650980 0.541690 0.499970 -0.535137
O8    O     O_R   0.500010 0.418560 0.371460 -0.517878
O9    O     O_R   0.500010 0.581430 0.371450 -0.508291
O10   O     O_R   0.349020 0.458310 0.500030 -0.511086
O11   O     O_R   0.349020 0.621180 0.500010 -0.519034
O12   O     O_3   0.311542 0.992624 0.459929 -0.585017

loop_
_geom_bond_atom_site_label_1
_geom_bond_atom_site_label_2
_ccdc_geom_bond_type
Cu2   O5    S    
C22   C29   S    
C27   C29   A    
C30   C45   A    
C42   H30   S    
C1    O1    A    
C41   H28   S    
C19   N1    A    
C7    C8    A    
C12   C23   A    
C3    C43   S    
C26   C27   A    
C40   H22   S    
C36   C37   S    
C38   H11   S    
C5    C6    A    
C10   C17   A    
C37   H16   S    
C37   H15   S    
Cu2   N1    S    
C2    C32   A    
C18   C19   A    
C24   C29   A    
C16   O9    A    
C11   H40   S    
C39   O12   S    
C20   N1    A    
C38   H14   S    
Cu2   O9    S    
C36   H18   S    
C8    C9    A    
C39   H20   S    
C1    O5    A    
C14   H41   S    
C16   O8    A    
C46   H33   S    
Cu1   N2    S    
C20   H44   S    
C24   O2    S    
C13   C14   A    
C42   H29   S    
C31   C49   A    
C42   O4    S    
C44   C46   S    
C45   C47   A    
Cu1   O1    S    
C43   H38   S    
Cu1   Cu2   S    
C50   H1    S    
C24   C25   A    
C27   H5    S    
C41   H26   S    
C21   H3    S    
Cu1   O10   S    
C7    H23   S    
Cu1   O6    S    
C43   H39   S    
C40   H24   S    
C5    H12   S    
C35   H8    S    
C2    C4    S    
C43   C44   S    
C41   H27   S    
C37   C38   S    
C3    C9    A    
C48   H10   S    
C47   C48   A    
C38   H13   S    
C34   C45   A    
C12   C35   A    
C26   N2    A    
C47   H2    S    
C46   H32   S    
C9    C17   S    
Cu2   O7    S    
C32   O4    S    
C31   C50   A    
C12   C34   A    
C2    C23   A    
C19   H43   S    
C36   H17   S    
C46   H35   S    
C15   C17   A    
C34   C49   A    
C23   C48   A    
C18   C22   A    
C28   C31   S    
C42   H31   S    
C18   O12   S    
C3    C5    A    
C26   H4    S    
C40   O2    S    
C6    C7    A    
C28   O11   A    
C4    O7    A    
C49   H7    S    
C32   C33   A    
C44   H36   S    
C11   C13   A    
C40   H25   S    
C25   O3    S    
Cu2   O11   S    
C28   O10   A    
Cu1   O8    S    
C30   H6    S    
C33   C35   A    
C41   O3    S    
C4    O6    A    
C8    H34   S    
C39   H21   S    
C30   C50   A    
C10   C11   A    
C25   N2    A    
C15   H42   S    
C20   C21   A    
C33   H9    S    
C13   C16   S    
C1    C6    S    
C39   H19   S    
C14   C15   A    
C10   C36   S    
C21   C22   A    
C44   H37   S    
