data_mof_unit_24286.cif
_audit_creation_date              2012-12-10T18:50:49-0500
_audit_creation_method            fapswitch 2.2
_symmetry_space_group_name_H-M    P1
_symmetry_Int_Tables_number       1
_space_group_crystal_system       triclinic
_cell_length_a                    10.692175
_cell_length_b                    9.880724
_cell_length_c                    15.820628
_cell_angle_alpha                 88.692692
_cell_angle_beta                  90.893443
_cell_angle_gamma                 90.114291
_cell_volume                      1670.75242456

loop_
_atom_site_label
_atom_site_type_symbol
_atom_type_description
_atom_site_fract_x
_atom_site_fract_y
_atom_site_fract_z
_atom_type_partial_charge
C1    C     C_R   0.260637 0.499262 0.501719 0.904973
C2    C     C_3   0.654616 0.561552 0.949731 -0.321431
C3    C     C_3   0.644023 0.587873 0.051751 -0.282536
C4    C     C_1   0.514783 0.497594 0.825087 0.047054
C5    C     C_1   0.507542 0.510643 0.175065 0.044953
C6    C     C_1   0.501890 0.505988 0.249943 -0.057480
C7    C     C_R   0.066492 0.433298 0.569958 -0.076823
C8    C     C_R   0.063959 0.559725 0.433364 -0.087754
C9    C     C_R   0.936337 0.430362 0.568652 -0.077982
C10   C     C_R   0.934948 0.572014 0.437834 -0.107223
C11   C     C_R   0.872456 0.501733 0.503018 -0.190964
C12   C     C_R   0.128148 0.496275 0.501446 -0.165622
C13   C     C_R   0.567681 0.069639 0.559064 -0.083084
C14   C     C_R   0.566908 0.926064 0.559473 -0.060150
C15   C     C_R   0.498921 0.501537 0.338449 0.973190
C16   C     C_R   0.433680 0.931879 0.439591 0.109278
C17   C     C_R   0.431335 0.075470 0.441228 0.223789
C18   C     C_R   0.739550 0.500323 0.500816 0.963532
C19   C     C_R   0.500211 0.498643 0.661601 0.949341
C20   C     C_3   0.397028 0.584884 0.044212 -0.290513
C21   C     C_3   0.508267 0.360414 0.054370 -0.213037
C22   C     C_3   0.499117 0.351865 0.954961 0.074718
C23   C     C_3   0.405002 0.596098 0.945173 0.118810
C24   C     C_1   0.507647 0.496128 0.750122 -0.061694
C25   C     C_3   0.518039 0.512955 0.083407 -0.052545
C26   C     C_3   0.519771 0.503023 0.916963 0.145227
H1    H     H_    0.320313 0.510597 0.056188 0.177045
H2    H     H_    0.415292 0.325194 0.077370 0.139394
H3    H     H_    0.622165 0.122131 0.606339 0.155226
H4    H     H_    0.620658 0.870336 0.607110 0.160515
N1    N     N_R   0.499970 0.857200 0.499980 -0.107282
N2    N     N_R   0.499970 0.142800 0.499980 -0.094222
O1    O     O_R   0.316750 0.614620 0.499990 -0.652596
O2    O     O_R   0.316750 0.385380 0.499990 -0.556664
O3    O     O_R   0.499990 0.614720 0.377140 -0.644272
O4    O     O_R   0.499990 0.385280 0.377140 -0.573566
O5    O     O_R   0.683220 0.614710 0.500000 -0.612912
O6    O     O_R   0.683220 0.385290 0.500000 -0.603830
O7    O     O_R   0.499980 0.614620 0.622860 -0.612006
O8    O     O_R   0.499980 0.385380 0.622860 -0.600930
Zn1   Zn    Zn3+2 0.499980 0.653120 0.500000 0.991219
Zn2   Zn    Zn3+2 0.499980 0.346880 0.500000 1.052256
N3    N     N_3   0.285753 0.546092 0.908743 -0.423778
H5    H     H_    0.281367 0.568857 0.843874 0.216058
H6    H     H_    0.210680 0.597254 0.935138 0.223668
N4    N     N_3   0.373510 0.300802 0.931474 -0.436040
H7    H     H_    0.367092 0.288477 0.866060 0.197170
H8    H     H_    0.359649 0.204697 0.958980 0.197085
N5    N     N_3   0.368508 0.868111 0.371826 -0.432932
H9    H     H_    0.314816 0.789023 0.395869 0.255709
H10   H     H_    0.433957 0.832573 0.329493 0.243753
N6    N     N_3   0.357428 0.151421 0.380811 -0.359654
H11   H     H_    0.264281 0.120510 0.386313 0.213839
H12   H     H_    0.387429 0.128427 0.320220 0.222824
C27   C     C_2   0.593105 0.257913 0.101286 0.984634
O9    O     O_2   0.555384 0.201589 0.165778 -0.623653
O10   O     O_R   0.711636 0.225499 0.072171 -0.708419
H13   H     H_    0.756857 0.157009 0.110230 0.371389
C28   C     C_2   0.344500 0.708801 0.088727 0.920425
O11   O     O_2   0.250928 0.695073 0.131684 -0.597417
O12   O     O_R   0.397452 0.837627 0.079974 -0.801474
H14   H     H_    0.351769 0.908571 0.112949 0.368410
N7    N     N_3   0.591199 0.255191 0.922743 -0.396634
H15   H     H_    0.570419 0.157405 0.945215 0.208968
H16   H     H_    0.583547 0.250417 0.856930 0.197511
N8    N     N_3   0.419828 0.736542 0.913699 -0.403943
H17   H     H_    0.336437 0.790233 0.920287 0.209624
H18   H     H_    0.487267 0.787569 0.947822 0.266627
C29   C     C_2   0.638825 0.737837 0.079973 0.968245
O13   O     O_2   0.620886 0.760830 0.154565 -0.621098
O14   O     O_R   0.662872 0.849009 0.026442 -0.767896
H19   H     H_    0.656852 0.938847 0.055792 0.371590
C30   C     C_2   0.762865 0.542839 0.100522 1.015570
O15   O     O_2   0.760384 0.456784 0.157113 -0.564866
O16   O     O_R   0.876544 0.606993 0.082060 -0.722267
H20   H     H_    0.948560 0.571733 0.118706 0.378532
C31   C     C_2   0.701463 0.687743 0.900310 1.007969
O17   O     O_2   0.804874 0.734184 0.917760 -0.527591
O18   O     O_R   0.635283 0.743812 0.831060 -0.790866
H21   H     H_    0.679905 0.823843 0.803822 0.348268
C32   C     C_2   0.757558 0.460083 0.923778 0.978215
O19   O     O_2   0.823642 0.397957 0.974687 -0.533543
O20   O     O_R   0.778289 0.440849 0.837819 -0.764887
H22   H     H_    0.848408 0.374399 0.827817 0.373698
C33   C     C_2   0.136421 0.378425 0.645377 0.924639
O21   O     O_2   0.211132 0.286031 0.638339 -0.586444
O22   O     O_R   0.111807 0.429349 0.725121 -0.799083
H23   H     H_    0.161844 0.381584 0.771825 0.344189
C34   C     C_2   0.129693 0.594716 0.353407 0.901907
O23   O     O_2   0.114695 0.704969 0.318122 -0.553229
O24   O     O_R   0.206511 0.498033 0.317571 -0.809063
H24   H     H_    0.241310 0.529715 0.261384 0.356426
C35   C     C_2   0.867886 0.352968 0.635600 0.949976
O25   O     O_2   0.774918 0.401131 0.667062 -0.620238
O26   O     O_R   0.909587 0.224551 0.662052 -0.778613
H25   H     H_    0.854980 0.182150 0.707339 0.340792
C36   C     C_2   0.864406 0.649373 0.371424 0.979529
O27   O     O_2   0.877494 0.772102 0.364681 -0.542839
O28   O     O_R   0.780982 0.582064 0.318454 -0.786677
H26   H     H_    0.736811 0.646650 0.277510 0.372505

loop_
_geom_bond_atom_site_label_1
_geom_bond_atom_site_label_2
_ccdc_geom_bond_type
N8    H18   S    
O22   H23   S    
N7    H16   S    
C11   C18   S    
C35   O25   D    
C30   O15   D    
C13   N2    A    
O4    Zn2   S    
O26   H25   S    
O2    Zn2   S    
C14   N1    A    
C27   O9    D    
C32   O19   D    
C1    O1    A    
O7    Zn1   S    
C31   O17   D    
C16   N1    A    
C23   N8    S    
C13   H3    S    
C3    C29   S    
C18   O5    A    
O6    Zn2   S    
C5    C6    T    
C4    C24   T    
C20   C25   S    
C23   N3    S    
C23   C26   S    
C29   O14   S    
O16   H20   S    
C36   O28   S    
C6    C15   S    
O20   H22   S    
C16   C17   A    
N5    H10   S    
C34   O24   S    
O8    Zn2   S    
N8    H17   S    
C22   N7    S    
C28   O11   D    
C35   O26   S    
C21   C22   S    
C30   O16   S    
O12   H14   S    
C1    C12   S    
C14   H4    S    
O3    Zn1   S    
C17   N6    S    
C15   O3    A    
C32   O20   S    
N6    H12   S    
C1    O2    A    
C36   O27   D    
C31   O18   S    
C7    C12   A    
N4    H8    S    
C28   O12   S    
C33   O22   S    
C3    C25   S    
C16   N5    S    
C10   C11   A    
O24   H24   S    
C21   C27   S    
C33   O21   D    
O18   H21   S    
C10   C36   S    
N3    H5    S    
C9    C11   A    
O28   H26   S    
C20   C23   S    
C8    C12   A    
C2    C26   S    
C20   C28   S    
N3    H6    S    
C19   O7    A    
C5    C25   S    
C22   N4    S    
C21   H2    S    
C27   O10   S    
C9    C35   S    
C15   O4    A    
N6    H11   S    
C7    C9    A    
C21   C25   S    
N4    H7    S    
N1    Zn1   S    
C4    C26   S    
C20   H1    S    
O1    Zn1   S    
C2    C3    S    
C18   O6    A    
O14   H19   S    
C2    C31   S    
O10   H13   S    
C7    C33   S    
C19   C24   S    
O5    Zn1   S    
C29   O13   D    
C3    C30   S    
C19   O8    A    
N7    H15   S    
C8    C10   A    
N5    H9    S    
C22   C26   S    
C17   N2    A    
N2    Zn2   S    
C2    C32   S    
C8    C34   S    
C34   O23   D    
C13   C14   A    
