data_mof_unit_49602.cif
_audit_creation_date              2012-12-11T14:50:40-0500
_audit_creation_method            fapswitch 2.2
_symmetry_space_group_name_H-M    P1
_symmetry_Int_Tables_number       1
_space_group_crystal_system       triclinic
_cell_length_a                    11.250161
_cell_length_b                    11.098547
_cell_length_c                    18.889807
_cell_angle_alpha                 89.221335
_cell_angle_beta                  88.777947
_cell_angle_gamma                 60.582496
_cell_volume                      2054.00160665

loop_
_atom_site_label
_atom_site_type_symbol
_atom_type_description
_atom_site_fract_x
_atom_site_fract_y
_atom_site_fract_z
_atom_type_partial_charge
C1    C     C_R   0.247818 0.638079 0.612706 0.560790
C2    C     C_R   0.570283 0.186704 0.789616 -0.076816
C3    C     C_R   0.566098 0.175259 0.717492 -0.083638
C4    C     C_R   0.652141 0.617509 0.601204 0.612907
C5    C     C_R   0.662309 0.181117 0.674657 0.018895
C6    C     C_R   0.251189 0.518529 0.734698 0.046490
C7    C     C_R   0.250377 0.535464 0.810515 0.283587
C8    C     C_R   0.201354 0.667568 0.839355 0.059434
C9    C     C_R   0.192363 0.773107 0.794725 0.000016
C10   C     C_R   0.178628 0.764166 0.722629 -0.171440
C11   C     C_R   0.215320 0.639124 0.690125 -0.043530
C12   C     C_3   0.620502 0.592177 0.801119 -0.100253
C13   C     C_R   0.786080 0.605866 0.288824 -0.018039
C14   C     C_R   0.796756 0.611613 0.216171 -0.150336
C15   C     C_R   0.680297 0.680171 0.174275 -0.038104
C16   C     C_R   0.625939 0.230464 0.602478 0.577276
C17   C     C_R   0.551954 0.749215 0.205713 -0.067198
C18   C     C_R   0.538466 0.748982 0.278988 0.206313
C19   C     C_R   0.655732 0.669028 0.321254 -0.000899
C20   C     C_R   0.578247 0.120773 0.294754 -0.043440
C21   C     C_R   0.568275 0.114578 0.222506 0.254966
C22   C     C_R   0.645798 0.153092 0.176932 0.040694
C23   C     C_3   0.708036 0.666276 0.811216 -0.025443
C24   C     C_R   0.716895 0.214555 0.205097 -0.114599
C25   C     C_R   0.717461 0.230359 0.277777 -0.075918
C26   C     C_R   0.648164 0.182882 0.322811 0.017502
C27   C     C_R   0.081461 0.795238 0.307487 0.246183
C28   C     C_R   0.223610 0.647107 0.401840 0.610051
C29   C     C_R   0.071410 0.812618 0.235001 0.209736
C30   C     C_R   0.112439 0.695390 0.190024 -0.069527
C31   C     C_R   0.170520 0.562354 0.218693 0.185718
C32   C     C_R   0.194552 0.544921 0.290859 0.198200
C33   C     C_R   0.157430 0.662499 0.334609 -0.030782
C34   C     C_3   0.673542 0.638890 0.675494 -0.079639
C35   C     C_R   0.701753 0.106701 0.897253 0.619406
C36   C     C_R   0.726456 0.687209 0.888186 0.662707
C37   C     C_R   0.121780 0.706463 0.907169 0.623772
C38   C     C_R   0.674892 0.102986 0.104457 0.550872
C39   C     C_R   0.701828 0.692647 0.099335 0.538181
C40   C     C_R   0.641177 0.624154 0.392734 0.580664
C41   C     C_R   0.080936 0.716764 0.115300 0.577793
C42   C     C_R   0.616244 0.232485 0.394890 0.578864
C43   C     C_3   0.648835 0.812339 0.767391 0.214305
C44   C     C_3   0.607476 0.794817 0.691328 0.085581
C45   C     C_3   0.832617 0.564781 0.695245 -0.084753
C46   C     C_3   0.852239 0.557995 0.776829 0.106470
C47   C     C_2   0.752750 0.863098 0.767000 0.641961
C48   C     C_2   0.925923 0.412005 0.811907 0.682750
C49   C     C_2   0.935165 0.434129 0.657173 0.663933
C50   C     C_2   0.936829 0.118035 0.800175 0.597802
C51   C     C_2   0.261566 0.385491 0.708341 0.635536
C52   C     C_2   0.242705 0.867842 0.815070 0.640468
C53   C     C_2   0.913068 0.527309 0.328930 0.603168
C54   C     C_2   0.514816 0.611380 0.857020 0.570448
C55   C     C_3   0.590804 0.587026 0.722431 -0.321354
C56   C     C_R   0.778197 0.169861 0.704922 -0.133647
C57   C     C_R   0.798792 0.152124 0.778578 0.024880
C58   C     C_R   0.689542 0.163329 0.823517 0.037395
Cl1   Cl    Cl    0.288157 0.402082 0.874186 -0.479541
Cl2   Cl    Cl    0.975686 0.605835 0.790812 -0.598071
Cl3   Cl    Cl    0.498998 0.950177 0.807129 -0.537759
Cl4   Cl    Cl    0.371266 0.852066 0.312599 -0.432253
Cl5   Cl    Cl    0.448395 0.067755 0.194064 -0.418286
Cl6   Cl    Cl    0.002034 0.941251 0.364340 -0.442860
Cl7   Cl    Cl    0.021909 0.982612 0.204847 -0.441827
Cl8   Cl    Cl    0.227951 0.414806 0.163758 -0.404508
Cl9   Cl    Cl    0.271968 0.372742 0.322787 -0.433564
Cl10  Cl    Cl    0.622803 0.896688 0.619734 -0.531216
Cr1   Cr    Cr6+3 0.392930 0.397900 0.502230 1.131251
Cr2   Cr    Cr6+3 0.398240 0.708600 0.501260 1.154332
Cr3   Cr    Cr6+3 0.708800 0.393470 0.496460 1.112567
Cr4   Cr    Cr6+3 0.937620 0.938540 0.007640 1.174075
Cr5   Cr    Cr6+3 0.625150 0.937450 0.994520 1.184609
Cr6   Cr    Cr6+3 0.937990 0.625080 0.001190 1.186832
H1    H     H_    0.618436 0.479821 0.706300 0.126226
H2    H     H_    0.768451 0.283388 0.298353 0.189705
H3    H     H_    0.495448 0.837386 0.690766 0.234164
H4    H     H_    0.862963 0.639123 0.673133 0.221901
H5    H     H_    0.683959 0.481485 0.808815 0.162613
H6    H     H_    0.479262 0.649813 0.713666 0.152086
H7    H     H_    0.898125 0.888610 0.715319 0.345474
H8    H     H_    0.110905 0.255712 0.836499 0.377316
H9    H     H_    0.048824 0.357498 0.567935 0.346948
H10   H     H_    0.110447 0.107975 0.761272 0.404795
H11   H     H_    0.260143 0.265046 0.629796 0.349302
H12   H     H_    0.855226 0.167249 0.669096 0.233571
H13   H     H_    0.261551 0.991695 0.886262 0.383198
H14   H     H_    0.019901 0.516629 0.415533 0.370466
H15   H     H_    0.411977 0.706691 0.946197 0.355313
H16   H     H_    0.486772 0.189927 0.818930 0.272122
H17   H     H_    0.487719 0.161135 0.694059 0.228604
H18   H     H_    0.157399 0.853809 0.690407 0.218584
H19   H     H_    0.898309 0.563771 0.192475 0.197113
H20   H     H_    0.462555 0.805651 0.173338 0.210214
H21   H     H_    0.520458 0.088407 0.329047 0.214142
H22   H     H_    0.774235 0.247584 0.170963 0.183537
O1    O     O_R   0.507430 0.255570 0.581420 -0.485773
O2    O     O_R   0.837200 0.593290 0.915250 -0.445980
O3    O     O_R   0.065330 0.635370 0.931590 -0.407913
O4    O     O_R   0.280190 0.527390 0.578910 -0.440254
O5    O     O_R   0.068300 0.828790 0.091860 -0.457279
O6    O     O_R   0.798730 0.057480 0.079370 -0.495907
O7    O     O_R   0.584680 0.080480 0.076790 -0.436941
O8    O     O_R   0.626790 0.809640 0.067050 -0.481293
O9    O     O_R   0.816010 0.596460 0.076500 -0.506159
O10   O     O_R   0.045680 0.638310 0.081070 -0.472608
O11   O     O_3   0.833590 0.833690 0.001120 -0.336544
O12   O     O_R   0.524460 0.695920 0.424060 -0.448059
O13   O     O_R   0.260310 0.739740 0.584580 -0.511031
O14   O     O_R   0.532250 0.695150 0.573830 -0.482200
O15   O     O_R   0.744930 0.503430 0.576380 -0.484209
O16   O     O_R   0.699250 0.276390 0.571950 -0.509231
O17   O     O_R   0.499020 0.256400 0.419850 -0.462117
O18   O     O_R   0.272400 0.528160 0.429140 -0.474569
O19   O     O_R   0.251910 0.740570 0.423020 -0.411320
O20   O     O_2   0.793115 0.878568 0.823555 -0.505251
O21   O     O_R   0.819945 0.870944 0.705469 -0.639106
O22   O     O_2   0.875682 0.379335 0.861404 -0.496328
O23   O     O_R   0.736530 0.504260 0.414810 -0.487214
O24   O     O_R   0.063157 0.325163 0.797116 -0.564090
O25   O     O_2   0.945348 0.322780 0.672495 -0.494282
O26   O     O_R   0.000409 0.446755 0.595886 -0.619701
O27   O     O_2   0.966125 0.118305 0.861807 -0.419137
O28   O     O_R   0.033356 0.093484 0.746608 -0.692205
O29   O     O_2   0.281425 0.293345 0.749985 -0.448224
O30   O     O_R   0.243973 0.362099 0.638418 -0.619910
O31   O     O_2   0.302822 0.896785 0.769632 -0.511892
O32   O     O_R   0.225123 0.924740 0.882546 -0.599095
O33   O     O_2   0.997252 0.410997 0.309647 -0.391203
O34   O     O_R   0.691460 0.277160 0.422180 -0.485516
O35   O     O_R   0.932867 0.583233 0.390557 -0.660262
O36   O     O_2   0.485348 0.519882 0.865430 -0.530531
O37   O     O_R   0.468979 0.717129 0.906790 -0.629637
O38   O     O_3   0.499990 0.499990 0.499980 -0.343423
O39   O     O_R   0.089490 0.825610 0.930610 -0.457684
O40   O     O_R   0.818370 0.054540 0.929880 -0.437969
O41   O     O_R   0.605870 0.077310 0.915530 -0.454982
O42   O     O_R   0.646440 0.806700 0.917570 -0.400507

loop_
_geom_bond_atom_site_label_1
_geom_bond_atom_site_label_2
_ccdc_geom_bond_type
C16   O16   A    
C31   Cl8   S    
Cr1   O38   S    
C27   C29   A    
C5    C56   A    
C1    C11   S    
H8    O24   S    
Cr3   O38   S    
C52   O32   S    
C39   O8    A    
C48   O24   S    
C45   C46   S    
C27   C33   A    
C12   C23   S    
C26   C42   S    
C38   O7    A    
C20   C26   A    
C35   C58   S    
C44   H3    S    
Cr2   O13   S    
C24   H22   S    
C30   C31   A    
C16   O1    A    
Cr5   O11   S    
Cr5   O42   S    
C22   C38   S    
C12   H5    S    
H7    O21   S    
C23   C43   S    
C56   C57   A    
C3    H17   S    
C18   C19   A    
C2    H16   S    
C5    C16   S    
Cr2   O14   S    
C1    O13   A    
Cr6   O11   S    
C47   O21   S    
C27   Cl6   S    
Cr5   O8    S    
C8    C9    A    
Cr3   O15   S    
C37   O39   A    
C30   C41   S    
C45   H4    S    
C53   O35   S    
C6    C51   S    
C43   C47   S    
C9    C10   A    
C14   H19   S    
C40   O12   A    
C55   H1    S    
C10   H18   S    
C34   C55   S    
C23   C46   S    
C13   C14   A    
C50   C57   S    
H11   O30   S    
C9    C52   S    
C1    O4    A    
C7    Cl1   S    
H13   O32   S    
C52   O31   D    
C13   C53   S    
C47   O20   D    
C4    C34   S    
Cr1   O18   S    
H15   O37   S    
C41   O10   A    
C13   C19   A    
C51   O29   D    
C7    C8    A    
C50   O28   S    
C24   C25   A    
Cr6   O2    S    
C19   C40   S    
C6    C11   A    
C18   Cl4   S    
Cr4   O39   S    
C48   O22   D    
C25   C26   A    
C54   O37   S    
Cr1   O17   S    
C43   C44   S    
Cr1   O4    S    
C29   C30   A    
C28   O19   A    
Cr6   O10   S    
C42   O17   A    
C56   H12   S    
C31   C32   A    
Cr4   O11   S    
C45   C49   S    
C49   O25   D    
Cr3   O16   S    
C17   C18   A    
C34   C44   S    
C42   O34   A    
C34   C45   S    
C15   C39   S    
Cr6   O3    S    
C28   O18   A    
C32   Cl9   S    
C29   Cl7   S    
C20   H21   S    
C28   C33   S    
C22   C24   A    
C44   Cl10  S    
C53   O33   D    
C8    C37   S    
C37   O3    A    
C43   Cl3   S    
C39   O9    A    
C4    O14   A    
C46   Cl2   S    
C51   O30   S    
C4    O15   A    
Cr5   O41   S    
C50   O27   D    
C3    C5    A    
C35   O40   A    
C2    C58   A    
C15   C17   A    
C6    C7    A    
Cr2   O19   S    
H10   O28   S    
C54   O36   D    
Cr3   O23   S    
C25   H2    S    
C32   C33   A    
C2    C3    A    
C38   O6    A    
Cr2   O12   S    
C35   O41   A    
Cr3   O34   S    
C55   H6    S    
C57   C58   A    
Cr4   O6    S    
C49   O26   S    
C41   O5    A    
H9    O26   S    
C21   Cl5   S    
C12   C55   S    
Cr4   O40   S    
C10   C11   A    
C46   C48   S    
Cr5   O7    S    
C40   O23   A    
C20   C21   A    
C23   C36   S    
Cr4   O5    S    
Cr2   O38   S    
C14   C15   A    
C36   O2    A    
C17   H20   S    
H14   O35   S    
C21   C22   A    
C36   O42   A    
C12   C54   S    
Cr6   O9    S    
Cr1   O1    S    
