data_mof_unit_8646.cif
_audit_creation_date              2012-12-10T16:49:30-0500
_audit_creation_method            fapswitch 2.2
_symmetry_space_group_name_H-M    P1
_symmetry_Int_Tables_number       1
_space_group_crystal_system       triclinic
_cell_length_a                    7.745673
_cell_length_b                    8.579247
_cell_length_c                    12.888222
_cell_angle_alpha                 90.150494
_cell_angle_beta                  87.763234
_cell_angle_gamma                 93.574595
_cell_volume                      854.13112874

loop_
_atom_site_label
_atom_site_type_symbol
_atom_type_description
_atom_site_fract_x
_atom_site_fract_y
_atom_site_fract_z
_atom_type_partial_charge
C1    C     C_R   0.454642 0.205202 0.497281 0.956674
C2    C     C_R   0.712368 0.458010 0.138582 0.611870
C3    C     C_R   0.587011 0.471107 0.868400 -0.282804
C4    C     C_R   0.412989 0.528893 0.131600 -0.282804
C5    C     C_R   0.577890 0.480006 0.974785 0.081389
C6    C     C_R   0.422110 0.519994 0.025215 0.081389
C7    C     C_2   0.430723 0.041772 0.495730 -0.357900
C8    C     C_2   0.569277 0.958227 0.504270 -0.357900
C9    C     C_R   0.545358 0.794798 0.502719 0.956674
C10   C     C_R   0.465246 0.502273 0.699923 0.917203
C11   C     C_R   0.534754 0.497727 0.300077 0.917203
C12   C     C_R   0.556203 0.495970 0.188708 -0.195337
C13   C     C_R   0.443797 0.504030 0.811292 -0.195338
C14   C     C_R   0.277291 0.549784 0.968739 -0.253968
C15   C     C_R   0.722709 0.450216 0.031261 -0.253968
C16   C     C_R   0.287632 0.541990 0.861418 0.611870
F1    F     F_    0.853056 0.425983 0.192527 -0.664609
F2    F     F_    0.146944 0.574017 0.807473 -0.664609
H1    H     H_    0.998461 0.615293 0.421858 0.205983
H2    H     H_    0.001539 0.384707 0.578142 0.205983
H3    H     H_    0.299836 0.990718 0.487583 0.185071
H4    H     H_    0.700164 0.009282 0.512417 0.185071
H5    H     H_    0.292573 0.560200 0.169647 0.212208
H6    H     H_    0.707427 0.439800 0.830353 0.212208
H7    H     H_    0.157161 0.579990 0.007506 0.178332
H8    H     H_    0.842839 0.420010 0.992494 0.178332
N1    N     N_2   0.054030 0.541640 0.471970 -0.151467
N2    N     N_2   0.945970 0.458360 0.528030 -0.151467
O1    O     O_R   0.609680 0.261530 0.506880 -0.615235
O2    O     O_R   0.390320 0.738470 0.493120 -0.615235
O3    O     O_R   0.323330 0.288220 0.488910 -0.631258
O4    O     O_R   0.676670 0.711780 0.511090 -0.631258
O5    O     O_R   0.619510 0.488830 0.661140 -0.625014
O6    O     O_R   0.380490 0.511170 0.338860 -0.625014
O7    O     O_R   0.333160 0.515520 0.643180 -0.568067
O8    O     O_R   0.666840 0.484480 0.356820 -0.568067
Zn1   Zn    Zn3+2 0.691200 0.482180 0.511990 0.996929
Zn2   Zn    Zn3+2 0.308800 0.517820 0.488010 0.996929

loop_
_geom_bond_atom_site_label_1
_geom_bond_atom_site_label_2
_ccdc_geom_bond_type
C8    H4    S    
C11   C12   S    
C10   O7    A    
C4    C12   A    
H1    N1    S    
C3    C13   A    
O3    Zn2   S    
C2    C12   A    
C1    O1    A    
C7    C8    D    
C1    C7    S    
O4    Zn1   S    
C2    F1    S    
C2    C15   A    
C3    H6    S    
N2    Zn1   S    
C9    O2    A    
C4    C6    A    
C11   O8    A    
C10   O5    A    
C14   H7    S    
C5    C6    A    
C14   C16   A    
C5    C15   A    
C6    C14   A    
N1    Zn2   S    
C1    O3    A    
O7    Zn2   S    
O2    Zn2   S    
C16   F2    S    
C13   C16   A    
O1    Zn1   S    
N1    N2    D    
C4    H5    S    
O8    Zn1   S    
C15   H8    S    
H2    N2    S    
C9    O4    A    
C7    H3    S    
C11   O6    A    
O5    Zn1   S    
C8    C9    S    
C3    C5    A    
C10   C13   S    
O6    Zn2   S    
