data_mof_unit_66254.cif
_audit_creation_date              2012-12-10T20:22:29-0500
_audit_creation_method            fapswitch 2.2
_symmetry_space_group_name_H-M    P1
_symmetry_Int_Tables_number       1
_space_group_crystal_system       triclinic
_cell_length_a                    19.260455
_cell_length_b                    18.756194
_cell_length_c                    15.863846
_cell_angle_alpha                 90.000982
_cell_angle_beta                  92.875796
_cell_angle_gamma                 90.000097
_cell_volume                      5723.64205747

loop_
_atom_site_label
_atom_site_type_symbol
_atom_type_description
_atom_site_fract_x
_atom_site_fract_y
_atom_site_fract_z
_atom_type_partial_charge
Br1   Br    Br    0.363155 0.922037 0.407272 -0.462360
Br2   Br    Br    0.579848 0.077956 0.663846 -0.467988
Br3   Br    Br    0.636843 0.922041 0.592729 -0.462362
Br4   Br    Br    0.420149 0.077950 0.336157 -0.467993
C1    C     C_R   0.366203 0.500123 0.500118 0.847387
C2    C     C_R   0.927906 0.503747 0.499269 0.104216
C3    C     C_R   0.530570 0.727497 0.566524 0.257985
C4    C     C_R   0.444486 0.272392 0.464540 0.249477
C5    C     C_R   0.469431 0.727495 0.433476 0.257979
C6    C     C_R   0.555514 0.272392 0.535460 0.249475
C7    C     C_R   0.522941 0.802218 0.570879 -0.210585
C8    C     C_R   0.441114 0.197685 0.474073 -0.212837
C9    C     C_R   0.477058 0.802216 0.429122 -0.210588
C10   C     C_R   0.558884 0.197685 0.525928 -0.212835
C11   C     C_R   0.499999 0.841773 0.500001 0.125942
C12   C     C_R   0.633797 0.500123 0.499881 0.847389
C13   C     C_R   0.499999 0.158140 0.500001 0.127402
C14   C     C_R   0.449876 0.962880 0.450915 0.215526
C15   C     C_R   0.541664 0.037055 0.559636 0.214899
C16   C     C_R   0.550122 0.962882 0.549087 0.215525
C17   C     C_R   0.458333 0.037054 0.440366 0.214900
C18   C     C_R   0.499998 0.076950 0.500001 -0.104591
C19   C     C_R   0.499999 0.922974 0.500001 -0.104396
C20   C     C_R   0.500268 0.499927 0.339519 0.900468
C21   C     C_R   0.499731 0.499928 0.660481 0.900462
C22   C     C_R   0.489607 0.560465 0.956974 0.093143
C23   C     C_R   0.708580 0.500993 0.499352 -0.011361
C24   C     C_R   0.500465 0.429424 0.044539 0.094105
C25   C     C_R   0.510388 0.560457 0.043029 0.093136
C26   C     C_R   0.499427 0.429425 0.955451 0.094103
C27   C     C_R   0.492665 0.495459 0.912898 0.049246
C28   C     C_R   0.507284 0.495452 0.087098 0.049232
C29   C     C_1   0.494376 0.497612 0.823422 -0.029304
C30   C     C_1   0.505591 0.497605 0.176576 -0.029305
C31   C     C_1   0.503051 0.499295 0.251253 -0.204737
C32   C     C_1   0.496933 0.499300 0.748746 -0.204734
C33   C     C_R   0.742762 0.454254 0.446784 -0.201858
C34   C     C_R   0.291420 0.500992 0.500646 -0.011356
C35   C     C_R   0.257238 0.454258 0.553219 -0.201860
C36   C     C_R   0.253989 0.549925 0.449756 -0.190916
C37   C     C_R   0.746011 0.549931 0.550236 -0.190914
C38   C     C_R   0.814694 0.455197 0.446580 -0.166231
C39   C     C_R   0.185306 0.455201 0.553423 -0.166229
C40   C     C_R   0.182073 0.550876 0.449829 -0.159741
C41   C     C_R   0.817927 0.550883 0.550163 -0.159742
C42   C     C_R   0.852435 0.503294 0.498604 0.107101
C43   C     C_R   0.147566 0.503292 0.501393 0.107099
C44   C     C_3   0.539152 0.627267 0.087230 -0.410018
C45   C     C_R   0.966684 0.503857 0.576350 -0.176561
C46   C     C_3   0.614619 0.617152 0.120024 -0.832479
C47   C     C_3   0.504454 0.360425 0.905261 -0.391252
C48   C     C_3   0.432778 0.335000 0.872452 -0.827812
C49   C     C_3   0.460895 0.627299 0.912778 -0.410027
C50   C     C_3   0.385427 0.617240 0.879958 -0.832476
C51   C     C_3   0.495380 0.360429 0.094722 -0.391282
C52   C     C_3   0.567036 0.334934 0.127519 -0.827762
C53   C     C_3   0.578249 0.693600 0.633149 -0.359120
C54   C     C_3   0.546806 0.693817 0.719359 -0.871845
C55   C     C_3   0.388011 0.306029 0.408583 -0.364583
C56   C     C_R   0.033317 0.503839 0.423647 -0.176561
C57   C     C_3   0.317894 0.304913 0.449546 -0.830384
C58   C     C_3   0.421756 0.693596 0.366845 -0.359102
C59   C     C_3   0.453208 0.693810 0.280640 -0.871832
C60   C     C_3   0.611989 0.306030 0.591415 -0.364580
C61   C     C_3   0.682106 0.304912 0.550451 -0.830382
C62   C     C_R   0.038646 0.503796 0.577080 -0.172599
C63   C     C_R   0.961355 0.503779 0.422917 -0.172600
C64   C     C_R   0.072095 0.503746 0.500729 0.104214
H1    H     H_    0.713816 0.417972 0.405196 0.142894
H2    H     H_    0.058731 0.503223 0.364256 0.136216
H3    H     H_    0.068195 0.504283 0.637013 0.137087
H4    H     H_    0.931806 0.504253 0.362984 0.137084
H5    H     H_    0.538360 0.829190 0.628929 0.197719
H6    H     H_    0.392933 0.170706 0.457037 0.198526
H7    H     H_    0.461639 0.829187 0.371072 0.197719
H8    H     H_    0.607065 0.170706 0.542964 0.198526
H9    H     H_    0.619261 0.576120 0.170255 0.262126
H10   H     H_    0.647400 0.601405 0.067447 0.258942
H11   H     H_    0.634830 0.668128 0.147117 0.253055
H12   H     H_    0.286185 0.417980 0.594811 0.142890
H13   H     H_    0.540446 0.674117 0.045211 0.208662
H14   H     H_    0.506304 0.641320 0.139676 0.217284
H15   H     H_    0.398556 0.325852 0.925674 0.252832
H16   H     H_    0.408094 0.375018 0.828955 0.261336
H17   H     H_    0.438077 0.284181 0.837457 0.261116
H18   H     H_    0.538151 0.368112 0.851172 0.210305
H19   H     H_    0.530443 0.317434 0.942906 0.217717
H20   H     H_    0.380769 0.576221 0.829713 0.262128
H21   H     H_    0.352625 0.601507 0.932519 0.258947
H22   H     H_    0.365256 0.668234 0.852876 0.253058
H23   H     H_    0.280354 0.586686 0.409471 0.135697
H24   H     H_    0.459623 0.674145 0.954807 0.208668
H25   H     H_    0.493765 0.641334 0.860348 0.217283
H26   H     H_    0.601245 0.325754 0.074292 0.252832
H27   H     H_    0.591760 0.374928 0.171017 0.261339
H28   H     H_    0.561693 0.284119 0.162509 0.261125
H29   H     H_    0.461696 0.368147 0.148817 0.210293
H30   H     H_    0.469348 0.317463 0.057075 0.217711
H31   H     H_    0.544847 0.748787 0.745056 0.259475
H32   H     H_    0.493279 0.671717 0.714923 0.282844
H33   H     H_    0.579801 0.660860 0.763556 0.244003
H34   H     H_    0.719646 0.586697 0.590518 0.135701
H35   H     H_    0.593225 0.639254 0.616038 0.245146
H36   H     H_    0.627921 0.723910 0.637817 0.203776
H37   H     H_    0.324039 0.320949 0.516747 0.267248
H38   H     H_    0.281311 0.342027 0.415596 0.255825
H39   H     H_    0.295143 0.250534 0.446405 0.255359
H40   H     H_    0.401660 0.360281 0.389230 0.247676
H41   H     H_    0.382872 0.275651 0.348382 0.202019
H42   H     H_    0.455164 0.748778 0.254941 0.259466
H43   H     H_    0.506737 0.671716 0.285087 0.282830
H44   H     H_    0.420222 0.660845 0.236440 0.244011
H45   H     H_    0.840888 0.418159 0.406503 0.138663
H46   H     H_    0.406776 0.639252 0.383957 0.245139
H47   H     H_    0.372084 0.723907 0.362169 0.203771
H48   H     H_    0.675959 0.320943 0.483249 0.267243
H49   H     H_    0.718689 0.342029 0.584398 0.255828
H50   H     H_    0.704857 0.250533 0.553596 0.255359
H51   H     H_    0.598342 0.360284 0.610769 0.247676
H52   H     H_    0.617128 0.275655 0.651617 0.202020
H53   H     H_    0.159112 0.418168 0.593505 0.138664
H54   H     H_    0.153400 0.588917 0.410242 0.140351
H55   H     H_    0.846599 0.588929 0.589745 0.140349
H56   H     H_    0.941270 0.503255 0.635742 0.136215
N1    N     N_R   0.500000 0.689440 0.500000 -0.131982
N2    N     N_R   0.500000 0.310560 0.500000 -0.131194
O1    O     O_R   0.398180 0.560840 0.499980 -0.632592
O2    O     O_R   0.601820 0.439160 0.500020 -0.620074
O3    O     O_R   0.601820 0.560840 0.500020 -0.632596
O4    O     O_R   0.398180 0.439160 0.499980 -0.620075
O5    O     O_R   0.499980 0.560800 0.378020 -0.613873
O6    O     O_R   0.500020 0.439200 0.621980 -0.629247
O7    O     O_R   0.500020 0.560800 0.621980 -0.613876
O8    O     O_R   0.499980 0.439200 0.378020 -0.629249
Zn1   Zn    Zn3+2 0.500000 0.581210 0.500000 0.935269
Zn2   Zn    Zn3+2 0.500000 0.418790 0.500000 0.929382

loop_
_geom_bond_atom_site_label_1
_geom_bond_atom_site_label_2
_ccdc_geom_bond_type
C52   H27   S    
C62   C64   A    
C51   C52   S    
C46   H9    S    
C33   H1    S    
C14   C17   A    
C15   C16   A    
C26   C47   S    
C46   H11   S    
C49   C50   S    
C41   H55   S    
C52   H26   S    
Br1   C14   S    
C60   H51   S    
C48   H17   S    
C34   C36   A    
O1    Zn1   S    
C63   H4    S    
C25   C28   A    
C8    H6    S    
O2    Zn2   S    
C4    C55   S    
C26   C27   A    
C33   C38   A    
C29   C32   T    
C44   H13   S    
C30   C31   T    
C38   C42   A    
C40   H54   S    
C59   H44   S    
C48   H16   S    
C5    C9    A    
O3    Zn1   S    
C7    C11   A    
C9    H7    S    
C56   C63   A    
C8    C13   A    
C61   H50   S    
C27   C29   S    
C13   C18   S    
C21   O7    A    
C39   H53   S    
C40   C43   A    
C4    C8    A    
N1    Zn1   S    
C12   C23   S    
C11   C19   S    
N2    Zn2   S    
C22   C27   A    
C36   H23   S    
C1    C34   S    
C10   C13   A    
C51   H29   S    
C46   H10   S    
C47   H18   S    
C24   C51   S    
C53   H35   S    
C6    C60   S    
C55   C57   S    
C20   C31   S    
C45   C62   A    
C25   C44   S    
C49   H25   S    
C14   C19   A    
C24   C28   A    
C15   C18   A    
C54   H32   S    
C50   H21   S    
C7    H5    S    
C47   H19   S    
C58   H46   S    
C35   C39   A    
C41   C42   A    
C45   H56   S    
C5    N1    A    
C47   C48   S    
C28   C30   S    
C48   H15   S    
C3    C7    A    
C58   C59   S    
C57   H38   S    
C23   C37   A    
C38   H45   S    
C62   H3    S    
C16   C19   A    
C56   H2    S    
O6    Zn2   S    
C1    O1    A    
C49   H24   S    
C37   H34   S    
Br3   C16   S    
C54   H33   S    
C3    N1    A    
C12   O3    A    
C12   O2    A    
C4    N2    A    
C2    C63   A    
C9    C11   A    
C6    C10   A    
C61   H48   S    
C22   C49   S    
C43   C64   S    
C57   H37   S    
C20   O8    A    
C52   H28   S    
C53   H36   S    
C1    O4    A    
C61   H49   S    
C2    C42   S    
Br2   C15   S    
O4    Zn2   S    
C54   H31   S    
C55   H40   S    
O8    Zn2   S    
C50   H22   S    
O5    Zn1   S    
C5    C58   S    
C60   H52   S    
C35   H12   S    
C59   H42   S    
C24   C26   A    
C58   H47   S    
C6    N2    A    
C60   C61   S    
C50   H20   S    
Br4   C17   S    
C20   O5    A    
C53   C54   S    
C34   C35   A    
C23   C33   A    
C51   H30   S    
C44   C46   S    
C55   H41   S    
C44   H14   S    
C2    C45   A    
C59   H43   S    
C57   H39   S    
C21   C32   S    
C36   C40   A    
C56   C64   A    
C22   C25   A    
O7    Zn1   S    
C37   C41   A    
C17   C18   A    
C21   O6    A    
C39   C43   A    
C3    C53   S    
C10   H8    S    
