data_mof_unit_21639.cif
_audit_creation_date              2013-03-05T16:25:57-0500
_audit_creation_method            fapswitch 2.2
_symmetry_space_group_name_H-M    P1
_symmetry_Int_Tables_number       1
_space_group_crystal_system       triclinic
_cell_length_a                    18.356795
_cell_length_b                    18.423653
_cell_length_c                    18.332086
_cell_angle_alpha                 120.303372
_cell_angle_beta                  89.717561
_cell_angle_gamma                 120.241148
_cell_volume                      4358.61130911

loop_
_atom_site_label
_atom_site_type_symbol
_atom_site_description
_atom_site_fract_x
_atom_site_fract_y
_atom_site_fract_z
_atom_type_partial_charge
Zn1   Zn    Zn3+2 0.956630 0.413250 0.869870 0.973497
Zn2   Zn    Zn3+2 0.130130 0.586750 0.043370 0.909972
Zn3   Zn    Zn3+2 0.956630 0.413250 0.043380 0.949109
Zn4   Zn    Zn3+2 0.956610 0.586750 0.043370 1.040323
O1    O     O_3   0.000000 0.500000 0.000000 -0.485073
O2    O     O_R   0.055050 0.731580 0.115780 -0.629212
O3    O     O_R   0.884220 0.268410 0.823490 -0.647796
O4    O     O_R   0.176520 0.560720 0.944920 -0.664960
O5    O     O_R   0.884200 0.439290 0.115800 -0.654831
O6    O     O_R   0.176530 0.560720 0.115800 -0.650052
O7    O     O_R   0.884180 0.560710 0.944910 -0.614667
O8    O     O_R   0.055100 0.439290 0.115810 -0.641301
O9    O     O_R   0.884190 0.439280 0.823480 -0.636693
O10   O     O_R   0.055090 0.439280 0.823480 -0.649865
O11   O     O_R   0.884180 0.560710 0.115790 -0.571412
O12   O     O_R   0.176500 0.731590 0.115790 -0.671545
O13   O     O_R   0.884220 0.268420 0.944930 -0.645465
C1    C     C_R   0.140165 0.780066 0.139629 0.779122
C2    C     C_R   0.859556 0.220299 0.859734 0.835438
C3    C     C_R   0.140079 0.499684 0.860084 0.815096
C4    C     C_R   0.861644 0.501523 0.141553 0.801503
C5    C     C_R   0.140105 0.498586 0.138482 0.792763
C6    C     C_R   0.860595 0.500200 0.859951 0.884084
C7    C     C_R   0.909228 0.690509 0.893183 -0.182603
H1    H     H_    0.962376 0.693142 0.922197 0.134466
C8    C     C_R   0.921279 0.784024 0.929559 -0.130064
H2    H     H_    0.980330 0.854068 0.986575 0.126194
C9    C     C_R   0.855666 0.786551 0.895610 0.236976
C10   C     C_R   0.784490 0.696373 0.816373 -0.217622
H3    H     H_    0.740565 0.705159 0.788896 0.162631
C11   C     C_R   0.769024 0.598759 0.779525 0.040918
C12   C     C_R   0.828484 0.596253 0.824971 0.065106
C13   C     C_R   0.804936 0.500635 0.804202 -0.096393
C14   C     C_R   0.724121 0.406903 0.736328 -0.101074
C15   C     C_R   0.672820 0.407980 0.680567 -0.104691
C16   C     C_R   0.695976 0.503716 0.700957 -0.097979
C17   C     C_R   0.737630 0.050564 0.725020 -0.007119
C18   C     C_R   0.807828 0.109382 0.802986 -0.111242
C19   C     C_R   0.831426 0.057314 0.821940 -0.185112
H4    H     H_    0.890510 0.101797 0.878264 0.183550
C20   C     C_R   0.781929 0.948174 0.765048 -0.011248
C21   C     C_R   0.702520 0.891105 0.694182 -0.157355
C22   C     C_R   0.686898 0.946269 0.674047 0.153410
C23   C     C_3   0.624946 0.933764 0.608954 0.100365
C24   C     C_3   0.682820 0.054622 0.668334 -0.134128
H5    H     H_    0.647968 0.088400 0.705816 0.190726
C25   C     C_R   0.746278 0.521998 0.193317 0.074470
C26   C     C_R   0.813121 0.509346 0.204899 -0.158903
C27   C     C_R   0.836292 0.513460 0.281906 0.102749
C28   C     C_R   0.781590 0.515603 0.337924 -0.063567
C29   C     C_R   0.705148 0.510880 0.313803 -0.203561
C30   C     C_R   0.694150 0.523394 0.247036 0.084839
C31   C     C_3   0.611979 0.468836 0.172908 -0.141093
C32   C     C_3   0.670257 0.467094 0.111411 0.070831
H6    H     H_    0.560612 0.390741 0.155901 0.139678
C33   C     C_R   0.158122 0.946173 0.215419 0.020275
C34   C     C_R   0.196254 0.891602 0.189154 -0.064004
C35   C     C_R   0.289355 0.946281 0.207577 -0.228715
H7    H     H_    0.321019 0.906348 0.183873 0.168263
C36   C     C_R   0.343140 0.054084 0.261448 -0.214055
H8    H     H_    0.415006 0.094614 0.278059 0.176195
C37   C     C_R   0.304281 0.108124 0.297249 -0.052483
C38   C     C_R   0.211254 0.052636 0.268552 0.102560
C39   C     C_3   0.149779 0.058680 0.321472 -0.550315
C40   C     C_3   0.091349 0.941041 0.263228 -0.202905
H9    H     H_    0.180910 0.093734 0.392805 0.207489
H10   H     H_    0.119312 0.093460 0.311483 0.195682
H11   H     H_    0.088078 0.907748 0.300707 0.179771
C41   C     C_R   0.271943 0.588787 0.265070 0.087795
C42   C     C_R   0.195073 0.496193 0.192900 -0.137600
C43   C     C_R   0.167974 0.402269 0.181058 0.145508
C44   C     C_R   0.221235 0.405276 0.239057 -0.252294
H12   H     H_    0.202262 0.333903 0.228828 0.163145
C45   C     C_R   0.302311 0.498059 0.304789 -0.078327
C46   C     C_R   0.323511 0.588447 0.318478 0.035362
C47   C     C_3   0.408353 0.683879 0.341462 -0.543779
C48   C     C_3   0.352585 0.687351 0.282153 0.333463
H13   H     H_    0.433896 0.745313 0.414219 0.159335
H14   H     H_    0.458681 0.670455 0.316850 0.217844
C49   C     C_R   0.287116 0.571655 0.839460 0.062753
C50   C     C_R   0.196267 0.492804 0.805242 -0.113262
C51   C     C_R   0.161803 0.403018 0.718392 -0.244357
H15   H     H_    0.093051 0.337115 0.692980 0.175399
C52   C     C_R   0.215028 0.398135 0.662971 0.145591
C53   C     C_R   0.303960 0.487489 0.695681 -0.098862
C54   C     C_R   0.339703 0.568190 0.786521 0.017516
C55   C     C_3   0.401900 0.683083 0.837796 -0.458002
C56   C     C_3   0.342431 0.687935 0.897345 0.314944
H16   H     H_    0.469900 0.712068 0.872090 0.196657
H17   H     H_    0.402017 0.711244 0.796659 0.184535
Zn5   Zn    Zn3+2 0.543330 0.586660 0.630080 0.960381
Zn6   Zn    Zn3+2 0.543320 0.586660 0.456570 0.969031
Zn7   Zn    Zn3+2 0.369830 0.413160 0.456580 0.958922
Zn8   Zn    Zn3+2 0.543350 0.413170 0.456590 0.995272
O14   O     O_3   0.499960 0.499910 0.499960 -0.486022
O15   O     O_R   0.615770 0.439200 0.384160 -0.649354
O16   O     O_R   0.444870 0.560630 0.676470 -0.631572
O17   O     O_R   0.615730 0.731500 0.555020 -0.596213
O18   O     O_R   0.323450 0.268330 0.384170 -0.646082
O19   O     O_R   0.444860 0.560620 0.384150 -0.647934
O20   O     O_R   0.615780 0.439200 0.555040 -0.614464
O21   O     O_R   0.323420 0.439190 0.384160 -0.648168
O22   O     O_R   0.615760 0.560630 0.676470 -0.663821
O23   O     O_R   0.615740 0.731500 0.676460 -0.673420
O24   O     O_R   0.444900 0.268330 0.384170 -0.631956
O25   O     O_R   0.615750 0.560630 0.384150 -0.629792
O26   O     O_R   0.323430 0.439200 0.555040 -0.645322
C57   C     C_R   0.640872 0.501053 0.361042 0.783647
C58   C     C_R   0.359702 0.497151 0.639877 0.813553
C59   C     C_R   0.641772 0.779665 0.639702 0.783102
C60   C     C_R   0.359870 0.219813 0.359501 0.815324
C61   C     C_R   0.359760 0.499245 0.359685 0.803505
C62   C     C_R   0.641967 0.502710 0.641114 0.866819
C63   C     C_2   0.687672 0.309044 0.728521 0.396231
H18   H     H_    0.641999 0.234871 0.665645 0.050766
O27   O     O_2   0.703879 0.309905 0.793592 -0.592876
C64   C     C_3   0.526668 0.879856 0.607349 -0.493828
C65   C     C_3   0.514243 0.909230 0.698704 -0.854979
H19   H     H_    0.543424 0.887011 0.729557 0.255824
H20   H     H_    0.544899 0.993022 0.745195 0.256605
H21   H     H_    0.441632 0.866982 0.689162 0.250011
H22   H     H_    0.491775 0.897412 0.576345 0.204166
H23   H     H_    0.492656 0.794887 0.564021 0.213440
C66   C     C_3   0.738085 0.109817 0.626491 -0.315800
C67   C     C_3   0.679444 0.092035 0.551758 -0.929894
H24   H     H_    0.667751 0.027630 0.485124 0.257234
H25   H     H_    0.613755 0.074105 0.560050 0.251795
H26   H     H_    0.714024 0.162178 0.552254 0.251696
H27   H     H_    0.781336 0.193990 0.679994 0.254040
H28   H     H_    0.782776 0.086109 0.600588 0.231249
C68   C     C_3   0.921082 0.522651 0.306919 -0.323281
C69   C     C_3   0.902200 0.417710 0.272190 -0.728928
H29   H     H_    0.878394 0.366825 0.198009 0.259524
H30   H     H_    0.964664 0.429314 0.297414 0.226401
H31   H     H_    0.850437 0.376900 0.294653 0.284101
H32   H     H_    0.971505 0.559230 0.280838 0.173175
H33   H     H_    0.954986 0.576403 0.380618 0.218091
C70   C     C_2   0.804516 0.528920 0.423851 0.442016
H34   H     H_    0.787372 0.570671 0.479410 0.047817
O28   O     O_2   0.839618 0.491627 0.433391 -0.585592
C71   C     C_3   0.571013 0.529664 0.189827 -0.428196
C72   C     C_3   0.636656 0.647790 0.250982 -0.712687
H35   H     H_    0.666487 0.674960 0.319684 0.292286
H36   H     H_    0.691021 0.676301 0.224747 0.269365
H37   H     H_    0.600066 0.682140 0.255484 0.225807
H38   H     H_    0.534888 0.504945 0.124539 0.191902
H39   H     H_    0.519725 0.507122 0.221345 0.222444
C73   C     C_3   0.642520 0.357187 0.036926 -0.459338
C74   C     C_3   0.553339 0.292545 0.963865 -0.855997
H40   H     H_    0.499386 0.287687 0.993185 0.248104
H41   H     H_    0.558887 0.326130 0.926339 0.264447
H42   H     H_    0.534752 0.213135 0.915690 0.262078
H43   H     H_    0.694920 0.362874 0.004920 0.229672
H44   H     H_    0.637081 0.315470 0.066531 0.213318
C75   C     C_2   0.686447 0.530879 0.076168 0.489090
H45   H     H_    0.630654 0.510157 0.030986 0.048336
O29   O     O_2   0.761365 0.605085 0.097012 -0.502119
C76   C     C_2   0.002179 0.893152 0.203082 0.517506
H46   H     H_    0.998229 0.917109 0.160850 0.022507
O30   O     O_2   0.933633 0.826687 0.201136 -0.507779
C77   C     C_3   0.089645 0.296657 0.102516 -0.376139
C78   C     C_3   0.008646 0.253628 0.130832 -0.803746
H47   H     H_    0.025089 0.244723 0.182741 0.244619
H48   H     H_    0.986920 0.305762 0.158028 0.273382
H49   H     H_    0.952446 0.176713 0.071849 0.244290
H50   H     H_    0.070734 0.297833 0.045954 0.207634
H51   H     H_    0.109309 0.242398 0.075064 0.194069
C79   C     C_3   0.350901 0.783201 0.341452 -0.474547
C80   C     C_3   0.281911 0.783082 0.295290 -0.806579
H52   H     H_    0.297199 0.785936 0.237957 0.270765
H53   H     H_    0.213462 0.714399 0.273082 0.251706
H54   H     H_    0.284345 0.852927 0.343457 0.239449
H55   H     H_    0.336450 0.788979 0.402499 0.208595
H56   H     H_    0.418295 0.854109 0.364393 0.205656
C81   C     C_3   0.383503 0.680088 0.200694 -0.330618
C82   C     C_3   0.377059 0.581294 0.134239 -0.885898
H57   H     H_    0.413399 0.567237 0.167713 0.253068
H58   H     H_    0.306351 0.513228 0.097736 0.261927
H59   H     H_    0.407301 0.589009 0.083750 0.243174
H60   H     H_    0.344391 0.687051 0.161966 0.230389
H61   H     H_    0.454307 0.747167 0.227001 0.185014
C83   C     C_3   0.174145 0.296570 0.571942 -0.383509
C84   C     C_3   0.114452 0.285511 0.503863 -0.788190
H62   H     H_    0.153046 0.349446 0.496309 0.276240
H63   H     H_    0.086562 0.211168 0.437728 0.236579
H64   H     H_    0.058030 0.286076 0.525575 0.246773
H65   H     H_    0.225763 0.286645 0.546776 0.219098
H66   H     H_    0.132853 0.231695 0.578030 0.194231
C85   C     C_3   0.389681 0.732957 0.994420 -0.408370
C86   C     C_3   0.462237 0.849304 0.050781 -0.910673
H67   H     H_    0.511183 0.869167 0.016486 0.268890
H68   H     H_    0.432085 0.892130 0.064236 0.253584
H69   H     H_    0.498444 0.874442 0.116236 0.255354
H70   H     H_    0.339663 0.717765 0.028819 0.230191
H71   H     H_    0.420800 0.693978 0.993158 0.204403
C87   C     C_3   0.293899 0.735717 0.893209 -0.360382
C88   C     C_3   0.233115 0.683419 0.800188 -0.892810
H72   H     H_    0.268417 0.675818 0.750475 0.258791
H73   H     H_    0.172357 0.606314 0.775360 0.261017
H74   H     H_    0.210696 0.731115 0.805171 0.248770
H75   H     H_    0.252867 0.735390 0.937992 0.201918
H76   H     H_    0.345336 0.817635 0.919812 0.212849
C89   C     C_3   0.861081 0.884953 0.945307 -0.395460
C90   C     C_3   0.850102 0.913464 0.036554 -0.863594
H77   H     H_    0.785802 0.849141 0.028437 0.277004
H78   H     H_    0.906177 0.930944 0.080724 0.252716
H79   H     H_    0.850067 0.983198 0.069306 0.249547
H80   H     H_    0.926725 0.949059 0.955095 0.244221
H81   H     H_    0.807174 0.876204 0.907002 0.215317
C91   C     C_2   0.590080 0.308621 0.605921 0.418814
H82   H     H_    0.592059 0.243479 0.559716 0.038343
O31   O     O_2   0.518800 0.298142 0.597082 -0.571689
C92   C     C_2   0.820322 0.897211 0.772320 0.357147
H83   H     H_    0.781002 0.814016 0.735570 0.062129
O32   O     O_2   0.898695 0.947817 0.816280 -0.603664
C93   C     C_2   0.630784 0.883751 0.515394 0.433159
H84   H     H_    0.586787 0.867331 0.461767 0.039677
O33   O     O_2   0.685257 0.863333 0.499124 -0.562129

loop_
_geom_bond_atom_site_label_1
_geom_bond_atom_site_label_2
_geom_bond_distance
_ccdc_geom_bond_type
C55   C56   1.542572 S    
Zn8   O24   1.933975 S    
C86   H67   1.109894 S    
O17   C59   1.271117 A    
C75   O29   1.220880 D    
O20   C62   1.291402 A    
C80   H52   1.106433 S    
C56   C87   1.559610 S    
C41   C48   1.519848 S    
C15   C16   1.418602 A    
C47   H14   1.109814 S    
C74   H40   1.109883 S    
Zn5   O23   1.938869 S    
C89   C90   1.526848 S    
C77   C78   1.526131 S    
Zn6   O17   1.932762 S    
C19   C20   1.417459 A    
C31   C32   1.550047 S    
O6    C5    1.279459 A    
C48   C79   1.555165 S    
C79   H56   1.112107 S    
C27   C68   1.524715 S    
C8    H2    1.083415 S    
C17   C18   1.387886 A    
O4    C3    1.272158 A    
Zn1   O1    1.941268 S    
C9    C10   1.405032 A    
O22   C62   1.267397 A    
C15   C91   1.490768 S    
C47   H13   1.108174 S    
C53   C58   1.454389 S    
C41   C42   1.402769 A    
C84   H63   1.109958 S    
C45   C61   1.445838 S    
C18   C19   1.408908 A    
C49   C50   1.391208 A    
Zn7   O14   1.945117 S    
C35   C36   1.396344 A    
C33   C40   1.495270 S    
O8    C5    1.277572 A    
O16   C58   1.280195 A    
C33   C34   1.396293 A    
O9    C6    1.274307 A    
C36   C37   1.407902 A    
C14   C15   1.407470 A    
C20   C21   1.419333 A    
C88   H73   1.107109 S    
C65   H19   1.109929 S    
C49   C54   1.366772 A    
Zn3   O8    1.941106 S    
C86   H69   1.110436 S    
C83   C84   1.527019 S    
O21   C61   1.274782 A    
C85   H70   1.110226 S    
C82   H59   1.110531 S    
C37   C60   1.450686 S    
C25   C26   1.394832 A    
Zn8   O20   1.939845 S    
C69   H29   1.107166 S    
C6    C13   1.454403 S    
C67   H26   1.111286 S    
C41   C46   1.369694 A    
C42   C43   1.429643 A    
Zn2   O12   1.938022 S    
Zn7   O18   1.937829 S    
C11   C16   1.430916 A    
C77   H50   1.109019 S    
C81   H61   1.111726 S    
C4    C26   1.453583 S    
O26   C58   1.272980 A    
C82   H58   1.107827 S    
O15   C57   1.283366 A    
C83   H65   1.108685 S    
C48   C81   1.560928 S    
C23   C93   1.518251 S    
C3    C50   1.443449 S    
C49   C56   1.507283 S    
C76   O30   1.219972 D    
C80   H53   1.108769 S    
C72   H37   1.110585 S    
C56   C85   1.551816 S    
C73   H44   1.112812 S    
C16   C62   1.469179 S    
C50   C51   1.403378 A    
C78   H48   1.109421 S    
C47   C48   1.543149 S    
C31   H6    1.113606 S    
C24   C66   1.546616 S    
C79   H55   1.113303 S    
O2    C1    1.279476 A    
O19   C61   1.279039 A    
C45   C46   1.383482 A    
C29   C30   1.387843 A    
C39   H10   1.112342 S    
O10   C3    1.276950 A    
C52   C53   1.428681 A    
C93   H84   1.082524 S    
C44   H12   1.084469 S    
C44   C45   1.401945 A    
C68   H32   1.109947 S    
C84   H64   1.110807 S    
Zn5   O22   1.945761 S    
C32   C75   1.516322 S    
C54   C55   1.495334 S    
C29   C57   1.451854 S    
C35   H7    1.083310 S    
C53   C54   1.394196 A    
Zn6   O14   1.953446 S    
Zn5   O16   1.934753 S    
C36   H8    1.083014 S    
C65   H21   1.110371 S    
C39   H9    1.112229 S    
C17   C22   1.351568 A    
C88   H74   1.110309 S    
C64   H23   1.112166 S    
C64   H22   1.111617 S    
C7    C12   1.417889 A    
C84   H62   1.109781 S    
C10   H3    1.071393 S    
C68   H33   1.109349 S    
C2    C18   1.438620 S    
C78   H49   1.110713 S    
C20   C92   1.479822 S    
C85   H71   1.113062 S    
C1    C34   1.449937 S    
C11   C12   1.409282 A    
C90   H79   1.110618 S    
C92   H83   1.082835 S    
C40   H11   1.113409 S    
O18   C60   1.281201 A    
C37   C38   1.394869 A    
C28   C29   1.420019 A    
C33   C38   1.379004 A    
C66   H28   1.112262 S    
Zn8   O14   1.952959 S    
O12   C1    1.279379 A    
C83   H66   1.112120 S    
C7    H1    1.080974 S    
Zn4   O7    1.939888 S    
Zn8   O15   1.934772 S    
Zn3   O5    1.934648 S    
C77   H51   1.112144 S    
C70   O28   1.219080 D    
C71   H38   1.110477 S    
C25   C32   1.513676 S    
C91   O31   1.221345 D    
Zn4   O2    1.933828 S    
C79   C80   1.525093 S    
C90   H78   1.109083 S    
C51   H15   1.084218 S    
C51   C52   1.407630 A    
C55   H16   1.111774 S    
C22   C23   1.497440 S    
C76   H46   1.084940 S    
C80   H54   1.110562 S    
C72   H36   1.106949 S    
C74   H42   1.110439 S    
Zn2   O1    1.945115 S    
Zn1   O9    1.945910 S    
C21   C22   1.387296 A    
C17   C24   1.504077 S    
C68   C69   1.532463 S    
Zn2   O6    1.945176 S    
C19   H4    1.084380 S    
C30   C31   1.498939 S    
Zn6   O19   1.940854 S    
C32   C73   1.549853 S    
C78   H47   1.110793 S    
Zn6   O25   1.934600 S    
C85   C86   1.529385 S    
C82   H57   1.107743 S    
C46   C47   1.481576 S    
C86   H68   1.109902 S    
C43   C77   1.517117 S    
Zn1   O3    1.938869 S    
C9    C89   1.509704 S    
C8    C9    1.390409 A    
Zn2   O4    1.932665 S    
C23   C24   1.566586 S    
C7    C8    1.385682 A    
C87   C88   1.535925 S    
Zn3   O1    1.953296 S    
Zn7   O21   1.945129 S    
C63   O27   1.221242 D    
C28   C70   1.493700 S    
C63   H18   1.079288 S    
C81   H60   1.107129 S    
C14   C63   1.498036 S    
C89   H80   1.110799 S    
O3    C2    1.272491 A    
C12   C13   1.411703 A    
Zn4   O11   1.934771 S    
C52   C83   1.515258 S    
C21   C59   1.446322 S    
C92   O32   1.220894 D    
C43   C44   1.409140 A    
C10   C11   1.425765 A    
C81   C82   1.535547 S    
C71   C72   1.534524 S    
Zn7   O26   1.932920 S    
O23   C59   1.281794 A    
O5    C4    1.280221 A    
C34   C35   1.406366 A    
C67   H24   1.108829 S    
O11   C4    1.283222 A    
O25   C57   1.278913 A    
C23   C64   1.551822 S    
C69   H31   1.107571 S    
C26   C27   1.430037 A    
C39   C40   1.523889 S    
O7    C6    1.274462 A    
O13   C2    1.278902 A    
C13   C14   1.414363 A    
C66   H27   1.108949 S    
Zn3   O13   1.932660 S    
C31   C71   1.553536 S    
C73   C74   1.529812 S    
C91   H82   1.084852 S    
O24   C60   1.278091 A    
C88   H72   1.107647 S    
C65   H20   1.108216 S    
C70   H34   1.085425 S    
C71   H39   1.111607 S    
Zn5   O14   1.941119 S    
C38   C39   1.494594 S    
C74   H41   1.109900 S    
C24   H5    1.110811 S    
Zn4   O1    1.953110 S    
C90   H77   1.111103 S    
C69   H30   1.110351 S    
C27   C28   1.432933 A    
C73   H43   1.111489 S    
C55   H17   1.109788 S    
C25   C30   1.369697 A    
C75   H45   1.084503 S    
C67   H25   1.110827 S    
C72   H35   1.109568 S    
C89   H81   1.109178 S    
Zn1   O10   1.934752 S    
C87   H75   1.111611 S    
C64   C65   1.534780 S    
C87   H76   1.110637 S    
C5    C42   1.454099 S    
C93   O33   1.221926 D    
C40   C76   1.501633 S    
C66   C67   1.532765 S    
