data_mof_unit_13906.cif
_audit_creation_date              2012-12-10T16:54:06-0500
_audit_creation_method            fapswitch 2.2
_symmetry_space_group_name_H-M    P1
_symmetry_Int_Tables_number       1
_space_group_crystal_system       triclinic
_cell_length_a                    9.685486
_cell_length_b                    10.934658
_cell_length_c                    13.422144
_cell_angle_alpha                 90.047991
_cell_angle_beta                  72.390969
_cell_angle_gamma                 90.049128
_cell_volume                      1354.89717501

loop_
_atom_site_label
_atom_site_type_symbol
_atom_type_description
_atom_site_fract_x
_atom_site_fract_y
_atom_site_fract_z
_atom_type_partial_charge
C1    C     C_R   0.499474 0.734673 0.501243 0.856196
C2    C     C_R   0.438834 0.497912 0.978623 0.095528
C3    C     C_R   0.464413 0.459280 0.873533 0.081583
C4    C     C_R   0.539943 0.464342 0.031977 0.073026
C5    C     C_R   0.656281 0.385006 0.982890 0.134664
C6    C     C_R   0.671749 0.339728 0.883111 -0.234376
C7    C     C_R   0.576680 0.375198 0.829600 -0.202076
C8    C     C_R   0.529143 0.506986 0.132658 -0.283296
C9    C     C_R   0.736629 0.384025 0.138241 0.079240
C10   C     C_R   0.375975 0.504697 0.814956 -0.101486
C11   C     C_2   0.612841 0.067095 0.501309 -0.166227
C12   C     C_R   0.422313 0.497712 0.700225 0.779928
C13   C     C_2   0.500588 0.133376 0.492914 -0.319409
C14   C     C_2   0.614720 0.933128 0.496810 -0.157462
C15   C     C_2   0.495104 0.866658 0.506417 -0.322688
C16   C     C_2   0.051781 0.567713 0.562565 -0.070008
C17   C     C_2   0.897782 0.572476 0.558565 -0.062541
C18   C     C_R   0.500501 0.265329 0.498518 0.835593
C19   C     C_R   0.577756 0.491836 0.300237 0.793592
C20   C     C_R   0.754311 0.348122 0.035004 -0.219486
C21   C     C_R   0.621505 0.464747 0.187669 -0.075969
C22   C     C_R   0.251399 0.572236 0.864938 -0.185170
C23   C     C_R   0.218939 0.601349 0.970125 -0.169951
C24   C     C_R   0.312270 0.567108 0.026201 -0.187302
Cu1   Cu    Cu3+1 0.361370 0.499980 0.499980 0.936042
Cu2   Cu    Cu3+1 0.638630 0.500020 0.500020 0.927314
H1    H     H_    0.406106 0.092299 0.479543 0.149055
H2    H     H_    0.718182 0.888482 0.486932 0.164485
H3    H     H_    0.389299 0.907603 0.520454 0.145670
H4    H     H_    0.079280 0.625208 0.619693 0.146444
H5    H     H_    0.129539 0.451260 0.443505 0.195290
H6    H     H_    0.825751 0.638866 0.608205 0.154557
H7    H     H_    0.911491 0.433931 0.458499 0.191435
H8    H     H_    0.757656 0.275921 0.846203 0.144806
H9    H     H_    0.842236 0.286809 0.996274 0.133919
H10   H     H_    0.447012 0.571879 0.171856 0.149280
H11   H     H_    0.181710 0.606684 0.821613 0.147145
H12   H     H_    0.280091 0.593995 0.107165 0.128511
H13   H     H_    0.122525 0.653803 0.007978 0.139962
H14   H     H_    0.590533 0.333355 0.754197 0.166691
H15   H     H_    0.708502 0.111889 0.510364 0.163954
N1    N     N_2   0.152660 0.501340 0.501130 -0.281044
N2    N     N_2   0.846520 0.501370 0.501160 -0.284420
O1    O     O_R   0.382960 0.678040 0.499980 -0.577432
O2    O     O_R   0.617100 0.678080 0.500020 -0.571762
O3    O     O_R   0.325800 0.499940 0.650950 -0.574642
O4    O     O_R   0.559930 0.499980 0.650990 -0.573843
O5    O     O_R   0.382900 0.321920 0.499980 -0.574823
O6    O     O_R   0.617040 0.321960 0.500020 -0.589765
O7    O     O_R   0.440070 0.500020 0.349010 -0.577404
O8    O     O_R   0.674200 0.500060 0.349050 -0.581156
C25   C     C_3   0.836468 0.326847 0.193072 -0.392562
C26   C     C_3   0.970091 0.407287 0.181789 -0.323856
C27   C     C_3   0.079999 0.343233 0.224809 -0.852963
H16   H     H_    0.028643 0.314725 0.307048 0.238376
H17   H     H_    0.124260 0.261153 0.177041 0.256766
H18   H     H_    0.170935 0.406386 0.221972 0.243835
H19   H     H_    0.022930 0.427842 0.097811 0.228048
H20   H     H_    0.937561 0.495161 0.223850 0.233673
H21   H     H_    0.778748 0.307628 0.276412 0.210647
H22   H     H_    0.873014 0.235737 0.157968 0.187868

loop_
_geom_bond_atom_site_label_1
_geom_bond_atom_site_label_2
_ccdc_geom_bond_type
Cu1   N1    S    
C24   H12   S    
C26   H19   S    
C17   N2    D    
C11   H15   S    
C6    C7    A    
C1    C15   S    
H5    N1    S    
C16   N1    D    
C25   H21   S    
C1    O1    A    
C2    C4    A    
C19   O7    A    
C4    C8    A    
C7    H14   S    
C9    C21   A    
C14   C15   D    
C2    C3    A    
C26   H20   S    
C3    C10   A    
C26   C27   S    
C10   C22   A    
C11   C13   D    
Cu1   O5    S    
C1    O2    A    
C16   C17   S    
C9    C25   S    
C10   C12   S    
C13   C18   S    
C12   O4    A    
C23   H13   S    
Cu2   O4    S    
Cu1   O1    S    
C19   C21   S    
Cu2   N2    S    
C15   H3    S    
C3    C7    A    
C25   H22   S    
C22   C23   A    
C2    C24   A    
C5    C6    A    
C11   C14   S    
C27   H17   S    
Cu2   O8    S    
C23   C24   A    
C16   H4    S    
H7    N2    S    
C19   O8    A    
C25   C26   S    
C12   O3    A    
C8    H10   S    
Cu2   O6    S    
C5    C20   A    
C17   H6    S    
Cu1   O7    S    
C13   H1    S    
C9    C20   A    
Cu2   O2    S    
C14   H2    S    
Cu1   Cu2   S    
C27   H16   S    
C22   H11   S    
Cu1   O3    S    
C20   H9    S    
C6    H8    S    
C18   O6    A    
C18   O5    A    
C4    C5    A    
C27   H18   S    
C8    C21   A    
