data_mof_unit_46452.cif
_audit_creation_date              2012-12-10T18:28:05-0500
_audit_creation_method            fapswitch 2.2
_symmetry_space_group_name_H-M    P1
_symmetry_Int_Tables_number       1
_space_group_crystal_system       triclinic
_cell_length_a                    23.485156
_cell_length_b                    20.202057
_cell_length_c                    14.93869
_cell_angle_alpha                 90.0
_cell_angle_beta                  99.797514
_cell_angle_gamma                 90.00002
_cell_volume                      6984.26726442

loop_
_atom_site_label
_atom_site_type_symbol
_atom_type_description
_atom_site_fract_x
_atom_site_fract_y
_atom_site_fract_z
_atom_type_partial_charge
C1    C     C_R   0.573781 0.089121 0.553113 0.847011
C2    C     C_R   0.425834 0.911255 0.446393 0.845370
C3    C     C_R   0.426219 0.089121 0.446887 0.847011
C4    C     C_R   0.574166 0.911255 0.553607 0.845370
C5    C     C_R   0.073781 0.589121 0.553113 0.847011
C6    C     C_R   0.925834 0.411255 0.446393 0.845370
C7    C     C_R   0.926219 0.589121 0.446887 0.847011
C8    C     C_R   0.074166 0.411255 0.553607 0.845370
C9    C     C_R   0.238798 0.209762 0.664490 0.520102
C10   C     C_R   0.803693 0.830290 0.399265 0.518087
C11   C     C_R   0.761202 0.209762 0.335510 0.520102
C12   C     C_R   0.196307 0.830290 0.600735 0.518087
C13   C     C_R   0.738798 0.709762 0.664490 0.520101
C14   C     C_R   0.303692 0.330290 0.399265 0.518087
C15   C     C_R   0.261201 0.709763 0.335509 0.520102
C16   C     C_R   0.696307 0.330290 0.600734 0.518087
C17   C     C_R   0.628059 0.006650 0.204852 -0.357909
C18   C     C_R   0.371941 0.006651 0.795147 -0.357908
C19   C     C_R   0.128059 0.506650 0.204852 -0.357909
C20   C     C_R   0.871941 0.506651 0.795147 -0.357909
C21   C     C_R   0.606939 0.002019 0.285482 0.012869
C22   C     C_R   0.393061 0.002019 0.714517 0.012869
C23   C     C_R   0.106939 0.502019 0.285482 0.012869
C24   C     C_R   0.893061 0.502019 0.714517 0.012868
C25   C     C_R   0.509977 0.002476 0.207808 -0.009771
C26   C     C_R   0.490023 0.002476 0.792192 -0.009771
C27   C     C_R   0.009977 0.502476 0.207808 -0.009771
C28   C     C_R   0.990023 0.502476 0.792192 -0.009770
C29   C     C_R   0.528363 0.008058 0.123904 -0.003350
C30   C     C_R   0.471637 0.008058 0.876096 -0.003350
C31   C     C_R   0.028363 0.508058 0.123904 -0.003350
C32   C     C_R   0.971637 0.508058 0.876096 -0.003350
C33   C     C_R   0.588819 0.009544 0.123520 0.175370
C34   C     C_R   0.411181 0.009544 0.876480 0.175370
C35   C     C_R   0.088819 0.509543 0.123520 0.175371
C36   C     C_R   0.911181 0.509544 0.876480 0.175371
C37   C     C_R   0.489010 0.011244 0.041403 0.063871
C38   C     C_R   0.510990 0.011245 0.958597 0.063871
C39   C     C_R   0.989010 0.511244 0.041403 0.063871
C40   C     C_R   0.010990 0.511244 0.958597 0.063871
C41   C     C_R   0.571453 0.014647 0.960918 -0.259196
C42   C     C_R   0.428547 0.014647 0.039082 -0.259195
C43   C     C_R   0.071453 0.514646 0.960918 -0.259195
C44   C     C_R   0.928547 0.514647 0.039082 -0.259195
C45   C     C_R   0.609545 0.014083 0.042239 -0.235832
C46   C     C_R   0.390455 0.014083 0.957761 -0.235833
C47   C     C_R   0.109545 0.514082 0.042239 -0.235833
C48   C     C_R   0.890455 0.514083 0.957761 -0.235833
C49   C     C_R   0.616157 0.859685 0.587902 -0.108545
C50   C     C_R   0.390601 0.147651 0.420146 -0.111923
C51   C     C_R   0.383843 0.859685 0.412098 -0.108545
C52   C     C_R   0.609399 0.147651 0.579854 -0.111923
C53   C     C_R   0.116157 0.359685 0.587902 -0.108545
C54   C     C_R   0.890601 0.647651 0.420146 -0.111923
C55   C     C_R   0.883843 0.359685 0.412098 -0.108545
C56   C     C_R   0.109399 0.647651 0.579854 -0.111923
C57   C     C_R   0.653808 0.770823 0.690480 -0.205055
C58   C     C_R   0.372537 0.255021 0.348411 -0.209882
C59   C     C_R   0.346191 0.770823 0.309520 -0.205055
C60   C     C_R   0.627463 0.255021 0.651589 -0.209879
C61   C     C_R   0.153808 0.270823 0.690480 -0.205055
C62   C     C_R   0.872537 0.755021 0.348411 -0.209881
C63   C     C_R   0.846192 0.270823 0.309520 -0.205055
C64   C     C_R   0.127463 0.755021 0.651589 -0.209881
C65   C     C_R   0.611266 0.818560 0.663180 -0.027724
C66   C     C_R   0.403517 0.195611 0.357501 -0.034908
C67   C     C_R   0.388734 0.818560 0.336820 -0.027725
C68   C     C_R   0.596483 0.195611 0.642498 -0.034909
C69   C     C_R   0.111266 0.318560 0.663180 -0.027724
C70   C     C_R   0.903517 0.695611 0.357501 -0.034908
C71   C     C_R   0.888734 0.318560 0.336820 -0.027724
C72   C     C_R   0.096483 0.695611 0.642499 -0.034908
C73   C     C_R   0.663110 0.852615 0.543317 -0.255231
C74   C     C_R   0.346549 0.159468 0.469392 -0.248530
C75   C     C_R   0.336889 0.852615 0.456683 -0.255231
C76   C     C_R   0.653451 0.159468 0.530608 -0.248530
C77   C     C_R   0.163110 0.352616 0.543317 -0.255231
C78   C     C_R   0.846549 0.659468 0.469392 -0.248530
C79   C     C_R   0.836889 0.352616 0.456682 -0.255231
C80   C     C_R   0.153451 0.659468 0.530608 -0.248530
C81   C     C_R   0.705640 0.805013 0.569657 0.058018
C82   C     C_R   0.320585 0.221482 0.469429 0.053862
C83   C     C_R   0.294360 0.805014 0.430343 0.058018
C84   C     C_R   0.679415 0.221482 0.530570 0.053861
C85   C     C_R   0.205640 0.305013 0.569657 0.058018
C86   C     C_R   0.820585 0.721482 0.469429 0.053862
C87   C     C_R   0.794360 0.305013 0.430343 0.058018
C88   C     C_R   0.179415 0.721482 0.530571 0.053861
C89   C     C_R   0.699762 0.762043 0.642534 0.033921
C90   C     C_R   0.332106 0.269114 0.405099 0.028417
C91   C     C_R   0.300237 0.762044 0.357465 0.033920
C92   C     C_R   0.667894 0.269114 0.594900 0.028418
C93   C     C_R   0.199762 0.262043 0.642534 0.033920
C94   C     C_R   0.832106 0.769114 0.405099 0.028417
C95   C     C_R   0.800238 0.262043 0.357466 0.033920
C96   C     C_R   0.167894 0.769114 0.594901 0.028417
C97   C     C_R   0.751034 0.795903 0.519684 -0.003759
C98   C     C_R   0.283172 0.236716 0.531536 0.001545
C99   C     C_R   0.248966 0.795903 0.480315 -0.003758
C100  C     C_R   0.716828 0.236716 0.468463 0.001545
C101  C     C_R   0.251034 0.295903 0.519684 -0.003759
C102  C     C_R   0.783172 0.736716 0.531536 0.001545
C103  C     C_R   0.748966 0.295903 0.480315 -0.003758
C104  C     C_R   0.216828 0.736716 0.468464 0.001545
C105  C     C_R   0.278013 0.195579 0.606552 -0.324512
C106  C     C_R   0.764541 0.843674 0.457340 -0.319110
C107  C     C_R   0.721987 0.195578 0.393448 -0.324512
C108  C     C_R   0.235459 0.843674 0.542659 -0.319110
C109  C     C_R   0.778013 0.695579 0.606552 -0.324512
C110  C     C_R   0.264541 0.343674 0.457340 -0.319110
C111  C     C_R   0.221987 0.695579 0.393447 -0.324512
C112  C     C_R   0.735458 0.343674 0.542658 -0.319112
H1    H     H_    0.591116 0.018850 0.901172 0.144884
H2    H     H_    0.408884 0.018850 0.098828 0.144884
H3    H     H_    0.091116 0.518849 0.901172 0.144884
H4    H     H_    0.908884 0.518850 0.098828 0.144884
H5    H     H_    0.333959 0.119229 0.509207 0.157834
H6    H     H_    0.664212 0.882888 0.484288 0.158120
H7    H     H_    0.666041 0.119229 0.490793 0.157834
H8    H     H_    0.335788 0.882888 0.515712 0.158120
H9    H     H_    0.833959 0.619229 0.509207 0.157834
H10   H     H_    0.164212 0.382888 0.484288 0.158120
H11   H     H_    0.166041 0.619229 0.490793 0.157834
H12   H     H_    0.835788 0.382888 0.515711 0.158120
H13   H     H_    0.649284 0.738523 0.746811 0.190674
H14   H     H_    0.382147 0.291403 0.299734 0.190841
H15   H     H_    0.350716 0.738523 0.253189 0.190674
H16   H     H_    0.617852 0.291403 0.700265 0.190841
H17   H     H_    0.149284 0.238523 0.746811 0.190674
H18   H     H_    0.882147 0.791403 0.299734 0.190841
H19   H     H_    0.850717 0.238522 0.253189 0.190674
H20   H     H_    0.117853 0.791403 0.700266 0.190841
H21   H     H_    0.304645 0.152487 0.623374 0.154211
H22   H     H_    0.746835 0.893075 0.454413 0.162705
H23   H     H_    0.695355 0.152487 0.376626 0.154212
H24   H     H_    0.253164 0.893075 0.545586 0.162705
H25   H     H_    0.804645 0.652487 0.623374 0.154211
H26   H     H_    0.246835 0.393075 0.454413 0.162705
H27   H     H_    0.195354 0.652487 0.376625 0.154211
H28   H     H_    0.753164 0.393076 0.545585 0.162704
H29   H     H_    0.655582 0.016484 0.041397 0.145071
H30   H     H_    0.344418 0.016484 0.958603 0.145071
H31   H     H_    0.155582 0.516483 0.041397 0.145072
H32   H     H_    0.844418 0.516485 0.958603 0.145071
H33   H     H_    0.534525 0.999643 0.783956 0.128288
H34   H     H_    0.465475 0.999643 0.216044 0.128288
H35   H     H_    0.034525 0.499642 0.783956 0.128288
H36   H     H_    0.965475 0.499643 0.216044 0.128288
H37   H     H_    0.363623 0.000715 0.650416 0.132168
H38   H     H_    0.636377 0.000715 0.349583 0.132168
H39   H     H_    0.863623 0.500716 0.650416 0.132167
H40   H     H_    0.136377 0.500715 0.349583 0.132168
H41   H     H_    0.674308 0.008318 0.206006 0.157270
H42   H     H_    0.325692 0.008318 0.793993 0.157270
H43   H     H_    0.174308 0.508317 0.206006 0.157270
H44   H     H_    0.825692 0.508319 0.793993 0.157269
N1    N     N_R   0.549130 1.000000 0.284090 -0.095111
N2    N     N_R   0.450870 0.000000 0.715910 -0.095111
N3    N     N_R   0.049130 0.500000 0.284090 -0.095111
N4    N     N_R   0.950870 0.500000 0.715910 -0.095111
O1    O     O_R   0.541320 0.066090 0.608930 -0.601074
O2    O     O_R   0.458680 0.933910 0.391070 -0.599972
O3    O     O_R   0.458680 0.066090 0.391070 -0.601074
O4    O     O_R   0.541320 0.933910 0.608930 -0.599972
O5    O     O_R   0.041320 0.566090 0.608930 -0.601074
O6    O     O_R   0.958680 0.433910 0.391070 -0.599972
O7    O     O_R   0.958680 0.566090 0.391070 -0.601075
O8    O     O_R   0.041320 0.433910 0.608930 -0.599972
O9    O     O_R   0.572880 0.066110 0.470280 -0.618173
O10   O     O_R   0.427120 0.933890 0.529720 -0.620491
O11   O     O_R   0.427120 0.066110 0.529720 -0.618173
O12   O     O_R   0.572880 0.933890 0.470280 -0.620491
O13   O     O_R   0.072880 0.566110 0.470280 -0.618173
O14   O     O_R   0.927120 0.433890 0.529720 -0.620491
O15   O     O_R   0.927120 0.566110 0.529720 -0.618173
O16   O     O_R   0.072880 0.433890 0.470280 -0.620491
Zn1   Zn    Zn3+2 0.478910 1.000000 0.592580 0.945280
Zn2   Zn    Zn3+2 0.521090 0.000000 0.407420 0.945280
Zn3   Zn    Zn3+2 0.978910 0.500000 0.592580 0.945280
Zn4   Zn    Zn3+2 0.021090 0.500000 0.407420 0.945280
O17   O     O_3   0.233281 0.167305 0.735419 -0.605480
C113  C     C_3   0.283147 0.171787 0.802790 -0.355753
H45   H     H_    0.293549 0.224071 0.823036 0.158736
H46   H     H_    0.320774 0.147627 0.780271 0.167068
H47   H     H_    0.274899 0.144980 0.864117 0.196399
O18   O     O_3   0.816768 0.878764 0.340445 -0.600242
C114  C     C_3   0.770251 0.884447 0.267429 -0.334204
H48   H     H_    0.730781 0.903752 0.290403 0.159594
H49   H     H_    0.760872 0.836312 0.231576 0.153717
H50   H     H_    0.782336 0.920354 0.217698 0.202436
O19   O     O_3   0.766720 0.167305 0.264581 -0.605480
C115  C     C_3   0.716853 0.171787 0.197210 -0.355750
H51   H     H_    0.706451 0.224070 0.176963 0.158735
H52   H     H_    0.679226 0.147625 0.219729 0.167068
H53   H     H_    0.725101 0.144979 0.135883 0.196398
O20   O     O_3   0.183232 0.878765 0.659555 -0.600242
C116  C     C_3   0.229749 0.884447 0.732571 -0.334204
H54   H     H_    0.269218 0.903754 0.709596 0.159595
H55   H     H_    0.239128 0.836313 0.768423 0.153718
H56   H     H_    0.217664 0.920354 0.782302 0.202436
O21   O     O_3   0.733281 0.667305 0.735419 -0.605480
C117  C     C_3   0.783147 0.671787 0.802791 -0.355752
H57   H     H_    0.793549 0.724071 0.823037 0.158736
H58   H     H_    0.820774 0.647627 0.780271 0.167067
H59   H     H_    0.774899 0.644980 0.864117 0.196398
O22   O     O_3   0.316768 0.378765 0.340445 -0.600242
C118  C     C_3   0.270251 0.384446 0.267429 -0.334206
H60   H     H_    0.230781 0.403752 0.290402 0.159595
H61   H     H_    0.260873 0.336312 0.231576 0.153718
H62   H     H_    0.282336 0.420354 0.217698 0.202437
O23   O     O_3   0.266719 0.667306 0.264580 -0.605480
C119  C     C_3   0.216852 0.671787 0.197209 -0.355751
H63   H     H_    0.206449 0.724070 0.176964 0.158735
H64   H     H_    0.179226 0.647625 0.219729 0.167068
H65   H     H_    0.225100 0.644981 0.135883 0.196399
O24   O     O_3   0.683231 0.378765 0.659553 -0.600243
C120  C     C_3   0.729748 0.384450 0.732567 -0.334200
H66   H     H_    0.769216 0.403760 0.709591 0.159594
H67   H     H_    0.739131 0.336317 0.768420 0.153716
H68   H     H_    0.717662 0.420357 0.782299 0.202436
C121  C     C_R   0.450303 0.187313 0.303682 0.135718
C122  C     C_R   0.508332 0.193995 0.345162 -0.075658
C123  C     C_R   0.552395 0.187319 0.293562 -0.115321
C124  C     C_R   0.538812 0.174715 0.200350 -0.119569
C125  C     C_R   0.481097 0.168786 0.158540 -0.141379
C126  C     C_R   0.436887 0.175008 0.209969 -0.166019
H69   H     H_    0.519306 0.204240 0.417216 0.108624
H70   H     H_    0.596995 0.192294 0.325751 0.130173
H71   H     H_    0.572929 0.169567 0.160440 0.122322
H72   H     H_    0.470646 0.159205 0.086313 0.138151
H73   H     H_    0.392309 0.170227 0.176936 0.126974
C127  C     C_R   0.561229 0.821317 0.711700 0.138826
C128  C     C_R   0.569443 0.838303 0.804208 -0.167675
C129  C     C_R   0.522131 0.842434 0.849553 -0.142421
C130  C     C_R   0.466394 0.829724 0.802922 -0.115702
C131  C     C_R   0.457925 0.812052 0.711131 -0.113184
C132  C     C_R   0.505166 0.807232 0.665743 -0.081637
H74   H     H_    0.612314 0.849195 0.840753 0.128849
H75   H     H_    0.528595 0.856211 0.920600 0.136314
H76   H     H_    0.429777 0.833744 0.837877 0.127351
H77   H     H_    0.414741 0.802283 0.675049 0.128402
H78   H     H_    0.498045 0.793671 0.594545 0.098860
C133  C     C_R   0.549697 0.187313 0.696318 0.135717
C134  C     C_R   0.491668 0.193995 0.654838 -0.075658
C135  C     C_R   0.447605 0.187319 0.706438 -0.115320
C136  C     C_R   0.461188 0.174715 0.799650 -0.119570
C137  C     C_R   0.518904 0.168786 0.841460 -0.141379
C138  C     C_R   0.563113 0.175008 0.790031 -0.166018
H79   H     H_    0.480694 0.204240 0.582784 0.108624
H80   H     H_    0.403005 0.192293 0.674249 0.130173
H81   H     H_    0.427071 0.169567 0.839561 0.122322
H82   H     H_    0.529355 0.159205 0.913687 0.138151
H83   H     H_    0.607692 0.170227 0.823064 0.126974
C139  C     C_R   0.438771 0.821317 0.288300 0.138826
C140  C     C_R   0.430557 0.838303 0.195792 -0.167676
C141  C     C_R   0.477869 0.842434 0.150447 -0.142421
C142  C     C_R   0.533605 0.829724 0.197077 -0.115702
C143  C     C_R   0.542075 0.812052 0.288869 -0.113185
C144  C     C_R   0.494833 0.807232 0.334257 -0.081636
H84   H     H_    0.387685 0.849195 0.159247 0.128849
H85   H     H_    0.471405 0.856211 0.079399 0.136314
H86   H     H_    0.570223 0.833744 0.162123 0.127351
H87   H     H_    0.585259 0.802283 0.324951 0.128402
H88   H     H_    0.501955 0.793671 0.405455 0.098859
C145  C     C_R   0.950303 0.687313 0.303681 0.135717
C146  C     C_R   0.008332 0.693995 0.345161 -0.075658
C147  C     C_R   0.052395 0.687319 0.293562 -0.115321
C148  C     C_R   0.038811 0.674715 0.200350 -0.119569
C149  C     C_R   0.981096 0.668786 0.158540 -0.141379
C150  C     C_R   0.936887 0.675007 0.209968 -0.166019
H89   H     H_    0.019306 0.704240 0.417215 0.108624
H90   H     H_    0.096995 0.692294 0.325750 0.130173
H91   H     H_    0.072928 0.669567 0.160439 0.122322
H92   H     H_    0.970645 0.659205 0.086313 0.138151
H93   H     H_    0.892308 0.670227 0.176936 0.126974
C151  C     C_R   0.061229 0.321317 0.711700 0.138826
C152  C     C_R   0.069443 0.338303 0.804208 -0.167676
C153  C     C_R   0.022131 0.342434 0.849553 -0.142421
C154  C     C_R   0.966394 0.329724 0.802922 -0.115702
C155  C     C_R   0.957925 0.312052 0.711131 -0.113184
C156  C     C_R   0.005166 0.307232 0.665743 -0.081636
H94   H     H_    0.112314 0.349195 0.840753 0.128849
H95   H     H_    0.028595 0.356211 0.920600 0.136314
H96   H     H_    0.929777 0.333744 0.837877 0.127351
H97   H     H_    0.914741 0.302283 0.675049 0.128402
H98   H     H_    0.998045 0.293671 0.594545 0.098859
C157  C     C_R   0.049697 0.687313 0.696318 0.135718
C158  C     C_R   0.991668 0.693995 0.654839 -0.075657
C159  C     C_R   0.947605 0.687319 0.706438 -0.115321
C160  C     C_R   0.961189 0.674715 0.799650 -0.119569
C161  C     C_R   0.018904 0.668786 0.841460 -0.141379
C162  C     C_R   0.063113 0.675008 0.790032 -0.166019
H99   H     H_    0.980694 0.704240 0.582785 0.108624
H100  H     H_    0.903005 0.692293 0.674249 0.130173
H101  H     H_    0.927072 0.669566 0.839561 0.122322
H102  H     H_    0.029355 0.659205 0.913687 0.138151
H103  H     H_    0.107692 0.670227 0.823064 0.126974
C163  C     C_R   0.938771 0.321317 0.288301 0.138825
C164  C     C_R   0.930557 0.338302 0.195792 -0.167675
C165  C     C_R   0.977870 0.342434 0.150448 -0.142421
C166  C     C_R   0.033606 0.329724 0.197079 -0.115702
C167  C     C_R   0.042075 0.312052 0.288871 -0.113185
C168  C     C_R   0.994834 0.307232 0.334258 -0.081636
H104  H     H_    0.887686 0.349195 0.159247 0.128849
H105  H     H_    0.971406 0.356211 0.079400 0.136314
H106  H     H_    0.070224 0.333744 0.162125 0.127351
H107  H     H_    0.085259 0.302283 0.324953 0.128402
H108  H     H_    0.001955 0.293671 0.405456 0.098859

loop_
_geom_bond_atom_site_label_1
_geom_bond_atom_site_label_2
_ccdc_geom_bond_type
C135  H80   S    
C33   C45   A    
C123  C124  A    
C53   C69   A    
C79   C87   A    
C111  H27   S    
C137  H82   S    
C132  H78   S    
C10   C94   A    
C47   H31   S    
C19   H43   S    
C134  C135  A    
C30   C38   A    
C37   C42   A    
C116  H55   S    
C155  H97   S    
C14   C90   A    
C77   H10   S    
C8    O8    A    
C40   C43   A    
C161  C162  A    
C56   C72   A    
C118  H62   S    
O7    Zn4   S    
C35   C47   A    
C135  C136  A    
C82   C98   A    
C162  H103  S    
C73   C81   A    
C25   C29   A    
C117  H57   S    
C27   C31   A    
O19   C115  S    
C84   C100  A    
C115  H53   S    
C60   H16   S    
C12   C108  A    
O22   C118  S    
C6    O14   A    
C101  C110  A    
C166  C167  A    
C17   C21   A    
C103  C112  A    
C113  H47   S    
C19   C23   A    
C145  C150  A    
C37   C38   A    
C24   H39   S    
C147  H90   S    
C54   C70   A    
O3    Zn2   S    
C59   C91   A    
C117  H58   S    
C87   C103  A    
C63   C71   A    
C14   O22   S    
C49   C73   A    
C163  C164  A    
O1    Zn1   S    
O8    Zn3   S    
C165  C166  A    
C105  H21   S    
C156  H98   S    
C28   H35   S    
C65   C127  S    
C41   H1    S    
O20   C116  S    
C83   C91   A    
C125  H72   S    
C4    C49   S    
C80   C88   A    
C19   C35   A    
C124  H71   S    
C122  H69   S    
C26   N2    A    
C15   C91   A    
C119  H63   S    
C44   H4    S    
C133  C138  A    
C41   C45   A    
C102  C109  A    
O18   C114  S    
C43   C47   A    
C55   C71   A    
C44   C48   A    
C80   H11   S    
C165  H105  S    
C152  H94   S    
C29   C33   A    
C130  H76   S    
C62   H18   S    
N3    Zn4   S    
C2    O2    A    
C99   C108  A    
C48   H32   S    
C149  H92   S    
C32   C36   A    
C146  H89   S    
C50   C74   A    
C57   H13   S    
C59   H15   S    
C28   N4    A    
C131  C132  A    
C142  C143  A    
C13   C109  A    
C59   C67   A    
C113  H45   S    
C85   C93   A    
C42   H2    S    
C87   C95   A    
C34   C46   A    
C164  H104  S    
C18   H42   S    
C61   H17   S    
C77   C85   A    
C152  C153  A    
C72   C157  S    
C88   C104  A    
C3    C50   S    
C136  H81   S    
C60   C92   A    
C134  H79   S    
C30   C34   A    
C155  C156  A    
C64   C96   A    
C38   C41   A    
C39   C40   A    
C138  H83   S    
C120  H66   S    
C115  H52   S    
C131  H77   S    
C121  C122  A    
C50   C66   A    
C119  H65   S    
C130  C131  A    
C159  C160  A    
C51   C67   A    
C58   H14   S    
C153  H95   S    
C127  C132  A    
O5    Zn3   S    
C10   C106  A    
O6    Zn4   S    
C86   C102  A    
C67   C139  S    
O12   Zn2   S    
C14   C110  A    
C7    O7    A    
C136  C137  A    
C73   H6    S    
C4    O12   A    
C18   C22   A    
C5    O13   A    
C150  H93   S    
C75   H8    S    
C52   C76   A    
C8    C53   S    
C147  C148  A    
C8    O16   A    
C26   C30   A    
C168  H108  S    
C79   H12   S    
C56   C80   A    
C143  C144  A    
C11   C107  A    
C10   O18   S    
C36   C48   A    
C11   O19   S    
N1    Zn2   S    
C116  H54   S    
C113  H46   S    
O2    Zn2   S    
C9    O17   S    
O16   Zn4   S    
C151  C152  A    
C118  H61   S    
C153  C154  A    
O11   Zn1   S    
C84   C92   A    
C149  C150  A    
C23   H40   S    
C88   C96   A    
C12   O20   S    
C5    C56   S    
C6    C55   S    
C124  C125  A    
C76   C84   A    
C46   H30   S    
O17   C113  S    
C120  H68   S    
C57   C89   A    
C61   C93   A    
C68   C133  S    
C11   C95   A    
C133  C134  A    
C63   C95   A    
C160  C161  A    
C42   C46   A    
C16   O24   S    
C78   H9    S    
C112  H28   S    
C114  H50   S    
C107  H23   S    
C140  H84   S    
C64   H20   S    
C27   H36   S    
C117  H59   S    
C154  C155  A    
C25   H34   S    
C63   H19   S    
C97   C102  A    
C3    O3    A    
C81   C89   A    
C99   C104  A    
C22   H37   S    
C1    O1    A    
C83   C99   A    
C141  H85   S    
C45   H29   S    
C17   C33   A    
C74   C82   A    
C66   C121  S    
O10   Zn1   S    
C142  H86   S    
C144  H88   S    
C22   N2    A    
O13   Zn4   S    
C17   H41   S    
C167  H107  S    
C100  C103  A    
C118  H60   S    
C116  H56   S    
C53   C77   A    
C128  H74   S    
C139  C140  A    
C55   C79   A    
O23   C119  S    
C28   C32   A    
C154  H96   S    
C139  C144  A    
C58   C90   A    
C39   C44   A    
C2    O10   A    
C97   C106  A    
C119  H64   S    
C16   C92   A    
C62   C94   A    
C31   C35   A    
C129  C130  A    
C16   C112  A    
C57   C65   A    
C98   C101  A    
C159  H100  S    
C82   C90   A    
C161  H102  S    
C114  H48   S    
C158  C159  A    
C75   C83   A    
C166  H106  S    
C121  C126  A    
C127  C128  A    
C1    C52   S    
C2    C51   S    
C20   C36   A    
C148  C149  A    
C60   C68   A    
C29   C37   A    
C12   C96   A    
C7    C54   S    
C9    C105  A    
C54   C78   A    
O21   C117  S    
C143  H87   S    
C164  C165  A    
C98   C105  A    
C49   C65   A    
N2    Zn1   S    
C51   C75   A    
C108  H24   S    
C151  C156  A    
C126  H73   S    
C109  H25   S    
C15   O23   S    
C86   C94   A    
C43   H3    S    
C58   C66   A    
C20   C24   A    
C31   C39   A    
C6    O6    A    
C7    O15   A    
C148  H91   S    
C4    O4    A    
C5    O5    A    
C145  C146  A    
C52   C68   A    
C163  C168  A    
C78   C86   A    
C32   C40   A    
C62   C70   A    
C76   H7    S    
C160  H101  S    
C15   C111  A    
O24   C120  S    
C123  H70   S    
O15   Zn3   S    
C158  H99   S    
C23   N3    A    
C26   H33   S    
N4    Zn3   S    
C106  H22   S    
C141  C142  A    
C125  C126  A    
C21   H38   S    
C18   C34   A    
C110  H26   S    
C157  C158  A    
C25   N1    A    
C140  C141  A    
C9    C93   A    
O9    Zn2   S    
C85   C101  A    
C70   C145  S    
C128  C129  A    
C61   C69   A    
C74   H5    S    
C167  C168  A    
C100  C107  A    
C20   H44   S    
C13   C89   A    
C157  C162  A    
C21   N1    A    
C104  C111  A    
C137  C138  A    
C24   N4    A    
C120  H67   S    
C115  H51   S    
C71   C163  S    
C3    O11   A    
C81   C97   A    
C1    O9    A    
C13   O21   S    
C69   C151  S    
C129  H75   S    
C64   C72   A    
C122  C123  A    
C114  H49   S    
C146  C147  A    
C27   N3    A    
O14   Zn3   S    
O4    Zn1   S    
