data_mof_unit_60359.cif
_audit_creation_date              2013-03-05T16:02:17-0500
_audit_creation_method            fapswitch 2.2
_symmetry_space_group_name_H-M    P1
_symmetry_Int_Tables_number       1
_space_group_crystal_system       triclinic
_cell_length_a                    11.725776
_cell_length_b                    10.478151
_cell_length_c                    10.742143
_cell_angle_alpha                 89.713746
_cell_angle_beta                  89.983741
_cell_angle_gamma                 90.000896
_cell_volume                      1319.8109826

loop_
_atom_site_label
_atom_site_type_symbol
_atom_site_description
_atom_site_fract_x
_atom_site_fract_y
_atom_site_fract_z
_atom_type_partial_charge
O1    O     O_R   0.337200 0.605810 0.499990 -0.560179
O2    O     O_R   0.662800 0.394190 0.500010 -0.560186
O3    O     O_R   0.662800 0.605810 0.500010 -0.566254
O4    O     O_R   0.337200 0.394190 0.499990 -0.566236
N1    N     N_1   0.500000 0.186410 0.500000 -0.118153
N2    N     N_1   0.500000 0.813590 0.500000 -0.118152
C1    C     C_R   0.283356 0.499998 0.499901 0.864291
C2    C     C_R   0.716644 0.500002 0.500098 0.864287
O5    O     O_R   0.499970 0.605800 0.316850 -0.561805
O6    O     O_R   0.500030 0.394200 0.683150 -0.561793
O7    O     O_R   0.500030 0.605800 0.683150 -0.536595
O8    O     O_R   0.499970 0.394200 0.316850 -0.536608
C3    C     C_R   0.499103 0.500440 0.259382 0.968637
C4    C     C_R   0.500892 0.499560 0.740617 0.968626
Cu1   Cu    Cu3+1 0.500000 0.625300 0.500000 1.130425
Cu2   Cu    Cu3+1 0.500000 0.374700 0.500000 1.130433
C5    C     C_1   0.500000 0.072091 0.500003 0.210710
C6    C     C_1   0.500000 0.927909 0.499997 0.210709
C7    C     C_3   0.495012 0.620550 0.039540 0.174069
C8    C     C_3   0.504974 0.379449 0.960456 0.174051
C9    C     C_3   0.590931 0.564207 0.958745 0.166445
C10   C     C_3   0.409055 0.435793 0.041253 0.166443
C11   C     C_3   0.405280 0.554999 0.957345 0.158730
C12   C     C_3   0.594707 0.445000 0.042653 0.158636
C13   C     C_3   0.501131 0.498768 0.875457 -0.378369
C14   C     C_3   0.498857 0.501234 0.124541 -0.378422
C15   C     C_1   0.161974 0.499994 0.499920 -0.042383
C16   C     C_1   0.838026 0.500005 0.500080 -0.042393
C17   C     C_1   0.059740 0.499997 0.499966 0.091125
C18   C     C_1   0.940260 0.500002 0.500033 0.091121
N3    N     N_R   0.299658 0.614681 0.915107 0.194854
O9    O     O_R   0.225377 0.653899 0.996255 -0.216241
O10   O     O_R   0.276147 0.623091 0.797111 -0.332764
N4    N     N_R   0.700333 0.385325 0.084890 0.194831
O11   O     O_R   0.774630 0.346142 0.003743 -0.216238
O12   O     O_R   0.723838 0.376900 0.202887 -0.332788
N5    N     N_R   0.486478 0.752561 0.081096 0.186589
O13   O     O_R   0.562377 0.836309 0.047252 -0.227353
O14   O     O_R   0.399473 0.788674 0.147227 -0.262831
N6    N     N_R   0.513494 0.247451 0.918859 0.186619
O15   O     O_R   0.437256 0.163866 0.952097 -0.227455
O16   O     O_R   0.600593 0.211285 0.852905 -0.262719
N7    N     N_R   0.693046 0.632336 0.918382 0.202004
O17   O     O_R   0.763788 0.676355 0.000901 -0.224352
O18   O     O_R   0.717991 0.642320 0.800824 -0.320534
N8    N     N_R   0.306935 0.367676 0.081625 0.201980
O19   O     O_R   0.236136 0.323755 0.999116 -0.224243
O20   O     O_R   0.282031 0.357637 0.199188 -0.320569

loop_
_geom_bond_atom_site_label_1
_geom_bond_atom_site_label_2
_geom_bond_distance
_ccdc_geom_bond_type
O4    Cu2   1.919852 S    
C7    C11   1.537860 S    
N7    O17   1.300403 A    
N3    O10   1.299807 A    
C17   C18   1.400999 S    
O1    Cu1   1.919846 S    
C15   C17   1.198771 T    
O2    Cu2   1.919845 S    
N3    O9    1.300208 A    
C9    N7    1.458730 S    
N6    O16   1.300339 A    
C5    C6    1.510756 S    
O5    Cu1   1.979020 S    
O3    Cu1   1.919851 S    
N5    O14   1.300357 A    
O6    Cu2   1.979019 S    
N7    O18   1.299880 A    
N5    O13   1.300332 A    
O4    C1    1.275843 A    
N2    C6    1.197854 T    
C16   C18   1.198771 T    
N6    O15   1.300139 A    
C7    C9    1.539940 S    
C8    C10   1.539958 S    
N4    O11   1.300210 A    
N4    O12   1.299806 A    
C11   C13   1.545572 S    
C4    C13   1.448457 S    
O6    C4    1.267589 A    
C8    N6    1.459036 S    
O7    C4    1.270247 A    
N8    O20   1.299874 A    
C3    C14   1.448465 S    
N1    C5    1.197854 T    
C8    C13   1.545129 S    
Cu1   Cu2   2.625824 S    
C8    C12   1.537880 S    
C1    C15   1.423302 S    
O8    C3    1.270252 A    
C2    C16   1.423302 S    
O3    C2    1.275843 A    
C10   C14   1.544711 S    
C9    C12   1.537328 S    
C7    C14   1.545133 S    
C9    C13   1.544673 S    
N8    O19   1.300394 A    
N1    Cu2   1.972932 S    
O5    C3    1.267588 A    
C7    N5    1.459031 S    
C10   N8    1.458737 S    
N2    Cu1   1.972932 S    
O1    C1    1.275875 A    
O7    Cu1   1.976988 S    
C10   C11   1.537308 S    
O2    C2    1.275875 A    
O8    Cu2   1.976989 S    
C12   C14   1.545576 S    
C11   N3    1.458878 S    
C12   N4    1.458883 S    
