data_mof_unit_39721.cif
_audit_creation_date              2012-12-10T19:30:35-0500
_audit_creation_method            fapswitch 2.2
_symmetry_space_group_name_H-M    P1
_symmetry_Int_Tables_number       1
_space_group_crystal_system       triclinic
_cell_length_a                    14.908785
_cell_length_b                    15.738589
_cell_length_c                    15.744117
_cell_angle_alpha                 90.039007
_cell_angle_beta                  83.170468
_cell_angle_gamma                 89.824659
_cell_volume                      3668.01829122

loop_
_atom_site_label
_atom_site_type_symbol
_atom_type_description
_atom_site_fract_x
_atom_site_fract_y
_atom_site_fract_z
_atom_type_partial_charge
C1    C     C_R   0.499760 0.662430 0.500668 0.873771
C2    C     C_3   0.586396 0.026590 0.496708 0.247984
C3    C     C_3   0.499918 0.916507 0.494759 -0.309743
C4    C     C_3   0.501846 0.083066 0.493377 -0.309111
C5    C     C_1   0.499531 0.825944 0.497276 0.272271
C6    C     C_1   0.501553 0.173795 0.494080 0.268702
C7    C     C_3   0.039692 0.519964 0.421352 0.296896
C8    C     C_3   0.960584 0.480778 0.578304 0.321624
C9    C     C_3   0.977837 0.442411 0.443890 0.344651
C10   C     C_3   0.022411 0.558306 0.555754 0.317927
C11   C     C_3   0.972810 0.578349 0.477274 0.186653
C12   C     C_R   0.500198 0.337500 0.499388 0.899041
C13   C     C_3   0.027403 0.422407 0.522383 0.268572
C14   C     C_3   0.910067 0.500578 0.499830 -0.314642
C15   C     C_3   0.090092 0.500124 0.499854 -0.327230
C16   C     C_R   0.485320 0.498081 0.657635 0.979907
C17   C     C_R   0.514312 0.503695 0.342798 1.005008
C18   C     C_1   0.810153 0.500121 0.499918 0.397819
C19   C     C_1   0.189901 0.500225 0.499903 0.381768
C20   C     C_R   0.468987 0.507356 0.752643 -0.433288
C21   C     C_R   0.524725 0.525435 0.250131 -0.410572
C22   C     C_R   0.538270 0.538343 0.797840 0.371009
C23   C     C_3   0.470573 0.027215 0.422235 0.325555
C24   C     C_R   0.461029 0.492595 0.199806 0.378587
C25   C     C_R   0.517592 0.567437 0.883059 0.330366
C26   C     C_R   0.453190 0.527878 0.118450 0.322019
C27   C     C_R   0.426534 0.583410 0.915120 -0.194019
C28   C     C_R   0.491098 0.608529 0.098049 -0.203620
C29   C     C_R   0.357723 0.543683 0.874325 0.440219
C30   C     C_R   0.562151 0.636827 0.143704 0.440605
C31   C     C_R   0.380257 0.499465 0.796802 0.286086
C32   C     C_R   0.583853 0.591218 0.215883 0.238031
C33   C     C_2   0.401244 0.654536 0.976955 0.465658
C34   C     C_3   0.531203 0.972340 0.565783 0.324833
C35   C     C_2   0.443887 0.672520 0.047761 0.469900
C36   C     C_3   0.649168 0.624631 0.734626 -0.166117
C37   C     C_3   0.316307 0.450342 0.246024 -0.155173
C38   C     C_3   0.031360 0.561230 0.280852 -0.152319
C39   C     C_3   0.970087 0.440584 0.718923 -0.142205
C40   C     C_3   0.461359 0.819303 0.036232 -0.140621
C41   C     C_3   0.264964 0.727416 0.006804 -0.136656
C42   C     C_3   0.237769 0.514763 0.976003 -0.145429
C43   C     C_3   0.660218 0.716680 0.053097 -0.171430
C44   C     C_3   0.435727 0.407735 0.039827 -0.253862
C45   C     C_3   0.554994 0.970622 0.425299 0.251171
C46   C     C_3   0.645340 0.522576 0.939445 -0.233664
C47   C     C_3   0.427530 0.006220 0.286905 -0.044218
C48   C     C_3   0.599185 0.992736 0.689376 -0.062148
C49   C     C_3   0.018399 0.351624 0.328767 -0.076409
C50   C     C_3   0.981942 0.649876 0.670283 -0.108339
C51   C     C_3   0.447026 0.028680 0.562487 0.263295
C52   C     C_1   0.499549 0.750943 0.499176 -0.057728
C53   C     C_1   0.500927 0.248876 0.496390 -0.059779
C54   C     C_3   0.415738 0.972893 0.491341 0.266932
H1    H     H_    0.654722 0.665406 0.791397 0.170793
H2    H     H_    0.038776 0.468915 0.706338 0.191985
H3    H     H_    0.975293 0.370408 0.722219 0.226096
H4    H     H_    0.940133 0.463081 0.782876 0.147933
H5    H     H_    0.002624 0.203025 0.597395 0.393982
H6    H     H_    0.058942 0.743545 0.468059 0.384557
H7    H     H_    0.747780 0.740484 0.223586 0.416548
H8    H     H_    0.172283 0.373425 0.805936 0.389423
H9    H     H_    0.494285 0.801102 0.971460 0.131981
H10   H     H_    0.511466 0.854631 0.069197 0.194171
H11   H     H_    0.405097 0.863695 0.028156 0.172092
H12   H     H_    0.599801 0.652706 0.694661 0.143840
H13   H     H_    0.265175 0.694613 0.069497 0.130777
H14   H     H_    0.205154 0.705428 0.977328 0.195644
H15   H     H_    0.256035 0.796421 0.019540 0.176411
H16   H     H_    0.265210 0.448963 0.975921 0.200718
H17   H     H_    0.163128 0.509498 0.981647 0.168214
H18   H     H_    0.254159 0.549846 0.033068 0.151657
H19   H     H_    0.704332 0.659304 0.046867 0.178670
H20   H     H_    0.705203 0.772537 0.054474 0.176874
H21   H     H_    0.623906 0.724277 0.996326 0.173060
H22   H     H_    0.510449 0.402915 0.039038 0.152725
H23   H     H_    0.716164 0.624172 0.695472 0.186345
H24   H     H_    0.420644 0.393600 0.973990 0.167656
H25   H     H_    0.402237 0.358270 0.082542 0.220970
H26   H     H_    0.618061 0.458896 0.925135 0.160747
H27   H     H_    0.660530 0.520444 0.006649 0.148855
H28   H     H_    0.709890 0.533110 0.897973 0.210047
H29   H     H_    0.704009 0.971778 0.222996 0.377296
H30   H     H_    0.309593 0.019712 0.770570 0.381984
H31   H     H_    0.410781 0.941187 0.311167 0.189762
H32   H     H_    0.490224 0.004545 0.241337 0.191115
H33   H     H_    0.371876 0.027112 0.250822 0.166950
H34   H     H_    0.283915 0.449564 0.186113 0.172924
H35   H     H_    0.572779 0.058557 0.685416 0.187216
H36   H     H_    0.673260 0.991945 0.670627 0.203318
H37   H     H_    0.586902 0.973005 0.757370 0.156899
H38   H     H_    0.829271 0.015731 0.511190 0.394690
H39   H     H_    0.176750 0.987056 0.461635 0.391820
H40   H     H_    0.012216 0.281722 0.322775 0.204579
H41   H     H_    0.087348 0.365096 0.345758 0.161358
H42   H     H_    0.011902 0.379773 0.265223 0.135203
H43   H     H_    0.913003 0.635541 0.653751 0.167775
H44   H     H_    0.987874 0.719939 0.674616 0.195233
H45   H     H_    0.307891 0.514164 0.276767 0.165317
H46   H     H_    0.988596 0.623258 0.734451 0.155234
H47   H     H_    0.279493 0.404247 0.290567 0.184381
H48   H     H_    0.026552 0.631474 0.278429 0.242114
H49   H     H_    0.962529 0.533071 0.292702 0.195662
H50   H     H_    0.061692 0.539442 0.216754 0.133361
N1    N     N_1   0.731990 0.500000 0.499970 -0.058252
N2    N     N_1   0.268010 0.500000 0.500030 -0.063801
O1    O     O_R   0.425540 0.623220 0.500000 -0.609831
O2    O     O_3   0.407776 0.424501 0.230539 -0.595657
O3    O     O_3   0.089385 0.537354 0.341196 -0.628416
O4    O     O_3   0.911428 0.463278 0.658681 -0.590589
O5    O     O_2   0.122393 0.280082 0.475086 -0.277938
O6    O     O_2   0.123175 0.328109 0.622710 -0.278982
O7    O     O_3   0.976635 0.257718 0.580861 -0.492613
O8    O     O_2   0.877435 0.673008 0.376955 -0.212024
O9    O     O_2   0.877133 0.720851 0.524399 -0.284924
O10   O     O_3   0.022982 0.743956 0.419050 -0.483093
O11   O     O_2   0.730831 0.546347 0.290832 -0.259561
O12   O     O_R   0.574460 0.376780 0.500000 -0.603329
O13   O     O_2   0.649160 0.674530 0.343938 -0.239355
O14   O     O_3   0.753051 0.681919 0.200371 -0.522285
O15   O     O_2   0.335883 0.367529 0.699608 -0.235836
O16   O     O_2   0.241289 0.495905 0.703232 -0.264718
O17   O     O_3   0.223374 0.395503 0.834233 -0.557488
O18   O     O_3   0.427713 0.750629 0.088763 -0.593446
O19   O     O_3   0.343467 0.714909 0.947870 -0.596400
O20   O     O_3   0.267060 0.559873 0.900384 -0.545738
O21   O     O_3   0.599419 0.716861 0.128960 -0.534981
O22   O     O_3   0.400148 0.488917 0.063907 -0.664818
O23   O     O_R   0.574480 0.623220 0.499990 -0.574236
O24   O     O_3   0.585816 0.591451 0.930226 -0.659017
O25   O     O_2   0.705294 0.881078 0.372465 -0.170756
O26   O     O_2   0.575545 0.860975 0.292646 -0.307065
O27   O     O_3   0.666515 0.001791 0.269921 -0.511892
O28   O     O_2   0.423308 0.140966 0.692881 -0.309459
O29   O     O_2   0.290514 0.105055 0.622261 -0.178763
O30   O     O_3   0.349753 0.992641 0.723532 -0.490833
O31   O     O_3   0.436558 0.066133 0.351808 -0.556765
O32   O     O_3   0.557661 0.933436 0.639736 -0.568744
O33   O     O_2   0.726882 0.109325 0.411766 -0.200991
O34   O     O_R   0.425520 0.376780 0.500010 -0.568913
O35   O     O_2   0.698614 0.133057 0.566480 -0.317711
O36   O     O_3   0.769363 0.988414 0.512480 -0.480831
O37   O     O_2   0.305149 0.862155 0.424888 -0.313503
O38   O     O_2   0.267722 0.901073 0.575694 -0.214296
O39   O     O_3   0.237566 0.012556 0.460207 -0.466343
O40   O     O_3   0.947007 0.381244 0.388513 -0.561957
O41   O     O_3   0.053446 0.619229 0.611261 -0.576356
O42   O     O_R   0.416730 0.500010 0.615810 -0.548859
O43   O     O_R   0.583270 0.499990 0.384190 -0.548261
O44   O     O_R   0.565670 0.500010 0.615790 -0.576543
O45   O     O_R   0.434330 0.499990 0.384210 -0.611856
O46   O     O_3   0.626586 0.540253 0.758831 -0.570300
S1    S     S_3+6 0.066342 0.319690 0.550478 0.070143
S2    S     S_3+6 0.933892 0.681234 0.449445 0.083411
S3    S     S_3+6 0.680141 0.623168 0.265520 0.110831
S4    S     S_3+6 0.294396 0.438542 0.755125 0.095290
S5    S     S_3+6 0.627350 0.924821 0.338312 0.083444
S6    S     S_3+6 0.375566 0.070650 0.652018 0.106616
S7    S     S_3+6 0.697893 0.068071 0.496591 0.090181
S8    S     S_3+6 0.303854 0.933433 0.488575 0.098767
Zn1   Zn    Zn3+2 0.400550 0.500000 0.500010 1.089886
Zn2   Zn    Zn3+2 0.599450 0.500000 0.499990 1.104256

loop_
_geom_bond_atom_site_label_1
_geom_bond_atom_site_label_2
_ccdc_geom_bond_type
C50   O41   S    
C43   H19   S    
C37   H47   S    
C8    C13   S    
C23   C45   S    
O15   S4    D    
C27   C29   A    
C14   C18   S    
C37   H34   S    
C2    C4    S    
O36   S7    S    
C31   S4    S    
O37   S8    D    
C41   H13   S    
C27   C33   S    
C15   C19   S    
C34   C51   S    
C40   H9    S    
O42   Zn1   S    
C47   H31   S    
C35   O18   S    
C24   C26   A    
C1    O23   A    
C36   H23   S    
C3    C54   S    
C36   H12   S    
C39   H3    S    
C9    O40   S    
C42   H16   S    
C44   H22   S    
N2    Zn1   S    
O25   S5    D    
C9    C13   S    
C38   H50   S    
C11   S2    S    
C33   C35   D    
C46   H28   S    
O35   S7    D    
C39   O4    S    
H30   O30   S    
O1    Zn1   S    
C28   C35   S    
C2    S7    S    
O45   Zn1   S    
C48   H37   S    
O11   S3    D    
C8    C14   S    
C12   O34   A    
C5    C52   T    
H39   O39   S    
C24   O2    S    
C49   H40   S    
O38   S8    D    
H38   O36   S    
O12   Zn2   S    
O10   S2    S    
C12   C53   S    
H5    O7    S    
C10   O41   S    
O30   S6    S    
C2    C34   S    
C43   H20   S    
C7    C15   S    
O33   S7    D    
O29   S6    D    
C48   H36   S    
C29   O20   S    
H7    O14   S    
C17   O45   A    
C40   O18   S    
C25   O24   S    
C42   H18   S    
H8    O17   S    
C41   H14   S    
O17   S4    S    
C2    C45   S    
C43   H21   S    
O44   Zn2   S    
C21   C32   A    
C22   O46   S    
C50   H44   S    
C4    C51   S    
C47   H32   S    
C41   O19   S    
C45   S5    S    
C37   O2    S    
C4    C6    S    
C43   O21   S    
C4    C23   S    
C36   O46   S    
C3    C34   S    
O34   Zn1   S    
C39   H4    S    
C22   C25   A    
O14   S3    S    
C17   C21   S    
C7    O3    S    
C47   H33   S    
C7    C11   S    
C9    C14   S    
C38   H49   S    
C8    O4    S    
C32   S3    S    
C39   H2    S    
C16   C20   S    
C47   O31   S    
C33   O19   S    
C26   O22   S    
C49   H41   S    
C38   O3    S    
O5    S1    D    
C13   S1    S    
C1    O1    A    
C12   O12   A    
C8    C10   S    
O28   S6    D    
C20   C22   A    
C40   H11   S    
C13   C15   S    
O9    S2    D    
H6    O10   S    
C6    C53   T    
C37   H45   S    
C23   C54   S    
C41   H15   S    
C46   H27   S    
O39   S8    S    
C30   O21   S    
C44   O22   S    
C50   H43   S    
O13   S3    D    
C10   C15   S    
O16   S4    D    
C23   O31   S    
C44   H25   S    
C17   O43   A    
O7    S1    S    
C3    C5    S    
C46   O24   S    
C25   C27   A    
C51   S6    S    
C26   C28   A    
O26   S5    D    
C40   H10   S    
C48   O32   S    
O6    S1    D    
C51   C54   S    
C44   H24   S    
C18   N1    T    
C38   H48   S    
C36   H1    S    
C30   C32   A    
C34   O32   S    
C16   O42   A    
C28   C30   A    
C42   H17   S    
C11   C14   S    
C3    C45   S    
C49   O40   S    
O27   S5    S    
C49   H42   S    
C1    C52   S    
C50   H46   S    
H29   O27   S    
C10   C11   S    
C42   O20   S    
C54   S8    S    
C19   N2    T    
C7    C9    S    
C29   C31   A    
C21   C24   A    
N1    Zn2   S    
C16   O44   A    
O43   Zn2   S    
C46   H26   S    
O23   Zn2   S    
O8    S2    D    
C48   H35   S    
C20   C31   A    
