data_mof_unit_43618.cif
_audit_creation_date              2012-10-26T20:08:12-0400
_audit_creation_method            fapswitch 2.2
_symmetry_space_group_name_H-M    P1
_symmetry_Int_Tables_number       1
_space_group_crystal_system       triclinic
_cell_length_a                    10.892012
_cell_length_b                    10.802696
_cell_length_c                    9.540854
_cell_angle_alpha                 90.579553
_cell_angle_beta                  91.365713
_cell_angle_gamma                 90.278394
_cell_volume                      1122.21549099

loop_
_atom_site_label
_atom_site_type_symbol
_atom_type_description
_atom_site_fract_x
_atom_site_fract_y
_atom_site_fract_z
_atom_type_partial_charge
C1    C     C_R   0.497680 0.262369 0.499104 0.546773
C2    C     C_R   0.573434 0.068424 0.594846 -0.132171
C3    C     C_R   0.502890 0.871564 0.502448 0.020528
C4    C     C_R   0.497112 0.128436 0.497551 0.020528
C5    C     C_R   0.530844 0.396163 0.073889 0.005538
C6    C     C_R   0.469159 0.603836 0.926110 0.005540
C7    C     C_R   0.530965 0.396200 0.925571 0.012199
C8    C     C_R   0.469025 0.603799 0.074429 0.012199
C9    C     C_R   0.262152 0.500163 0.497920 0.542848
C10   C     C_R   0.737848 0.499837 0.502080 0.542847
C11   C     C_R   0.180520 0.523988 0.010901 -0.097074
C12   C     C_R   0.502319 0.737630 0.500896 0.546771
C13   C     C_R   0.819482 0.476005 0.989098 -0.097074
C14   C     C_R   0.140539 0.547372 0.146584 -0.054874
C15   C     C_R   0.859465 0.452623 0.853417 -0.054875
C16   C     C_R   0.108364 0.448705 0.233069 0.064355
C17   C     C_R   0.891636 0.551292 0.766932 0.064355
C18   C     C_R   0.113375 0.326965 0.181083 -0.101331
C19   C     C_R   0.886618 0.673032 0.818917 -0.101329
C20   C     C_R   0.155384 0.303796 0.046078 -0.128130
C21   C     C_R   0.844605 0.696199 0.953920 -0.128125
C22   C     C_R   0.189375 0.402225 0.961193 -0.096189
C23   C     C_R   0.871809 0.498481 0.505618 -0.009459
C24   C     C_R   0.810619 0.597768 0.038806 -0.096187
C25   C     C_R   0.930150 0.471229 0.380193 -0.158630
C26   C     C_R   0.069850 0.528771 0.619807 -0.158630
C27   C     C_3   0.333512 0.121547 0.301142 -0.383628
C28   C     C_3   0.666475 0.878453 0.698869 -0.383624
C29   C     C_R   0.128191 0.501518 0.494382 -0.009459
C30   C     C_R   0.943070 0.526131 0.627917 -0.035587
C31   C     C_R   0.056930 0.473868 0.372083 -0.035587
C32   C     C_R   0.422153 0.060109 0.401855 -0.023545
C33   C     C_R   0.577846 0.939891 0.598145 -0.023546
C34   C     C_R   0.426569 0.931576 0.405150 -0.132170
Cu1   Cu    Cu3+1 0.500000 0.500020 0.640660 0.924313
Cu2   Cu    Cu3+1 0.500000 0.499980 0.359340 0.924313
H1    H     H_    0.221665 0.384049 0.856670 0.135029
H2    H     H_    0.839413 0.790339 0.993131 0.097624
H3    H     H_    0.876706 0.447411 0.286710 0.130613
H4    H     H_    0.123294 0.552589 0.713290 0.130614
H5    H     H_    0.557699 0.313005 0.870771 0.106537
H6    H     H_    0.442278 0.686994 0.129229 0.106529
H7    H     H_    0.275606 0.187608 0.359595 0.140828
H8    H     H_    0.384360 0.171377 0.219450 0.153239
H9    H     H_    0.271574 0.053333 0.247176 0.101567
H10   H     H_    0.724366 0.812368 0.640435 0.140845
H11   H     H_    0.728434 0.946660 0.752818 0.101563
H12   H     H_    0.778327 0.615942 0.143328 0.135033
H13   H     H_    0.615615 0.828654 0.780572 0.153221
H14   H     H_    0.368773 0.877558 0.333108 0.110595
H15   H     H_    0.631231 0.122442 0.666889 0.110597
H16   H     H_    0.557467 0.313065 0.128520 0.104085
H17   H     H_    0.442541 0.686933 0.871479 0.104089
H18   H     H_    0.204908 0.600479 0.944630 0.090882
H19   H     H_    0.795096 0.399513 0.055370 0.090882
H20   H     H_    0.133484 0.642059 0.183836 0.092687
H21   H     H_    0.866526 0.357936 0.816165 0.092687
H22   H     H_    0.084001 0.250409 0.244769 0.092319
H23   H     H_    0.915989 0.749589 0.755231 0.092317
H24   H     H_    0.160570 0.209656 0.006867 0.097624
N1    N     N_R   0.500030 0.500030 0.852070 -0.220118
N2    N     N_R   0.499970 0.499970 0.147930 -0.220115
O1    O     O_R   0.499990 0.319660 0.618740 -0.518351
O2    O     O_R   0.500010 0.680340 0.381260 -0.518350
O3    O     O_R   0.499990 0.319630 0.381170 -0.510375
O4    O     O_R   0.500010 0.680370 0.618830 -0.510375
O5    O     O_R   0.319650 0.500020 0.618780 -0.516050
O6    O     O_R   0.680350 0.499980 0.381220 -0.516050
O7    O     O_R   0.319640 0.500000 0.381210 -0.487053
O8    O     O_R   0.680360 0.500000 0.618790 -0.487052

loop_
_geom_bond_atom_site_label_1
_geom_bond_atom_site_label_2
_ccdc_geom_bond_type
C19   H23   S    
C28   C33   S    
C2    C4    A    
C9    O5    A    
C5    H16   S    
Cu1   O1    S    
C9    C29   S    
C10   C23   S    
C20   H24   S    
C5    C7    A    
C28   H13   S    
C11   C22   A    
C14   H20   S    
Cu1   Cu2   S    
Cu1   O4    S    
C13   C15   A    
Cu1   O5    S    
C1    C4    S    
C28   H10   S    
C27   H9    S    
Cu2   O6    S    
C9    O7    A    
C29   C31   A    
C25   H3    S    
C16   C31   S    
C17   C30   S    
C15   H21   S    
C26   H4    S    
C4    C32   A    
C11   H18   S    
C26   C29   A    
Cu2   N2    S    
C1    O1    A    
C6    N1    A    
C16   C18   A    
C13   C24   A    
C19   C21   A    
C8    H6    S    
C5    N2    A    
C26   C30   A    
C10   O6    A    
C7    H5    S    
C27   H8    S    
C12   O2    A    
C11   C14   A    
C14   C16   A    
C34   H14   S    
C2    H15   S    
C3    C33   A    
C6    H17   S    
C24   H12   S    
C23   C30   A    
C10   O8    A    
C23   C25   A    
Cu2   O7    S    
C2    C33   A    
C18   C20   A    
Cu1   N1    S    
C21   C24   A    
C8    N2    A    
C15   C17   A    
C27   H7    S    
Cu2   O3    S    
C7    N1    A    
C6    C8    A    
C3    C12   S    
C3    C34   A    
C17   C19   A    
C27   C32   S    
Cu2   O2    S    
C22   H1    S    
C12   O4    A    
C1    O3    A    
C18   H22   S    
C28   H11   S    
C21   H2    S    
C25   C31   A    
Cu1   O8    S    
C20   C22   A    
C13   H19   S    
C32   C34   A    
