data_mof_unit_52133.cif
_audit_creation_date              2012-12-10T19:11:28-0500
_audit_creation_method            fapswitch 2.2
_symmetry_space_group_name_H-M    P1
_symmetry_Int_Tables_number       1
_space_group_crystal_system       triclinic
_cell_length_a                    10.879536
_cell_length_b                    9.90316
_cell_length_c                    10.718348
_cell_angle_alpha                 88.975639
_cell_angle_beta                  90.35911
_cell_angle_gamma                 91.665691
_cell_volume                      1154.12241394

loop_
_atom_site_label
_atom_site_type_symbol
_atom_type_description
_atom_site_fract_x
_atom_site_fract_y
_atom_site_fract_z
_atom_type_partial_charge
C1    C     C_R   0.257697 0.498966 0.498745 0.980859
C2    C     C_3   0.480871 0.501149 0.119288 -0.066258
C3    C     C_3   0.075232 0.650000 0.463145 -0.153189
C4    C     C_3   0.066041 0.461680 0.625552 -0.211093
C5    C     C_3   0.933591 0.660339 0.490239 0.200478
C6    C     C_3   0.923198 0.435078 0.621136 0.155157
C7    C     C_3   0.066130 0.401463 0.384196 0.027274
C8    C     C_3   0.119795 0.499150 0.490951 -0.122058
C9    C     C_3   0.877117 0.505766 0.493794 0.026020
C10   C     C_3   0.922570 0.428978 0.369677 0.081957
C11   C     C_3   0.396066 0.077487 0.423346 -0.094148
C12   C     C_3   0.402075 0.918222 0.414652 -0.086466
C13   C     C_3   0.617252 0.084015 0.449823 -0.259490
C14   C     C_3   0.620367 0.924316 0.458186 -0.230598
C15   C     C_3   0.490668 0.075592 0.627053 -0.116161
C16   C     C_3   0.480344 0.913968 0.625632 -0.144002
C17   C     C_R   0.490818 0.500589 0.256854 0.941665
C18   C     C_R   0.741318 0.502237 0.496106 0.853856
C19   C     C_R   0.509394 0.499435 0.740824 0.890525
C20   C     C_3   0.436512 0.611401 0.026371 0.071440
C21   C     C_3   0.430919 0.388316 0.031568 0.059974
C22   C     C_3   0.387167 0.499289 0.939823 -0.320339
C23   C     C_3   0.511145 0.498592 0.874038 -0.064967
C24   C     C_3   0.559558 0.608993 0.959159 0.046497
C25   C     C_3   0.554683 0.390453 0.964553 0.131805
C26   C     C_3   0.607330 0.501015 0.051131 -0.280309
H1    H     H_    0.296962 0.500212 0.890745 0.164024
H2    H     H_    0.308325 0.097280 0.470022 0.143167
H3    H     H_    0.312052 0.875901 0.445768 0.123070
H4    H     H_    0.637710 0.120106 0.353924 0.217552
H5    H     H_    0.653378 0.882257 0.370223 0.229270
H6    H     H_    0.576798 0.103119 0.678720 0.075397
H7    H     H_    0.556612 0.877542 0.686219 0.106324
H8    H     H_    0.694631 0.124085 0.507242 0.147444
H9    H     H_    0.692720 0.895811 0.526645 0.127010
H10   H     H_    0.700745 0.500457 0.091672 0.138348
H11   H     H_    0.124407 0.718125 0.529449 0.202027
H12   H     H_    0.081243 0.556562 0.678892 0.200920
N1    N     N_3   0.499750 0.138610 0.497240 -0.074832
N2    N     N_3   0.499750 0.861390 0.497240 -0.087712
O1    O     O_R   0.314910 0.616040 0.499970 -0.657147
O2    O     O_R   0.314910 0.383960 0.499970 -0.584869
O3    O     O_R   0.500080 0.616020 0.313900 -0.599557
O4    O     O_R   0.500080 0.383980 0.313900 -0.618964
O5    O     O_R   0.685320 0.616040 0.499930 -0.626443
O6    O     O_R   0.685320 0.383960 0.499930 -0.641465
O7    O     O_R   0.500150 0.616060 0.686000 -0.654262
O8    O     O_R   0.500150 0.383940 0.686000 -0.601799
Zn1   Zn    Zn3+2 0.500150 0.654960 0.499940 0.947697
Zn2   Zn    Zn3+2 0.500150 0.345040 0.499940 0.973969
N3    N     N_3   0.901082 0.518232 0.260475 -0.439039
H13   H     H_    0.809318 0.546485 0.261292 0.162106
H14   H     H_    0.908255 0.465677 0.177226 0.179363
N4    N     N_3   0.854480 0.301414 0.341277 -0.425350
H15   H     H_    0.767557 0.318598 0.302923 0.196464
H16   H     H_    0.845575 0.234556 0.415687 0.223880
C27   C     C_2   0.384274 0.146100 0.299348 0.484142
H17   H     H_    0.301584 0.199190 0.276085 0.069678
O9    O     O_2   0.467802 0.142422 0.224288 -0.538934
C28   C     C_2   0.406077 0.870840 0.282195 0.494620
H18   H     H_    0.319194 0.855429 0.235059 0.055653
O10   O     O_2   0.501018 0.868557 0.222403 -0.576974
C29   C     C_2   0.393145 0.130074 0.708375 0.497219
H19   H     H_    0.391591 0.099311 0.804977 0.096394
O11   O     O_2   0.312188 0.199261 0.667608 -0.559769
C30   C     C_2   0.365292 0.852853 0.688762 0.425984
H20   H     H_    0.374725 0.787635 0.770190 0.087932
O12   O     O_2   0.261742 0.882466 0.655937 -0.622731
C31   C     C_2   0.355293 0.729551 0.033369 0.419451
H21   H     H_    0.391425 0.830225 0.010902 0.113636
O13   O     O_2   0.246735 0.712826 0.059229 -0.564761
C32   C     C_2   0.337643 0.274786 0.041153 0.469754
H22   H     H_    0.245276 0.294160 0.069938 0.057570
O14   O     O_2   0.362235 0.160994 0.010475 -0.590041
N5    N     N_3   0.630642 0.728253 0.917903 -0.480816
H23   H     H_    0.656228 0.781782 0.997550 0.220082
H24   H     H_    0.711596 0.694995 0.878181 0.194676
N6    N     N_3   0.626089 0.274190 0.932152 -0.461494
H25   H     H_    0.644612 0.221201 0.015020 0.232655
H26   H     H_    0.570328 0.210743 0.878338 0.194384
N7    N     N_3   0.107923 0.701078 0.337752 -0.382884
H27   H     H_    0.095635 0.805500 0.334935 0.184193
H28   H     H_    0.201895 0.693717 0.325069 0.247320
N8    N     N_3   0.134426 0.363071 0.700483 -0.404177
H29   H     H_    0.127448 0.386927 0.794818 0.174992
H30   H     H_    0.098757 0.264996 0.695501 0.225910
N9    N     N_3   0.921143 0.723481 0.613544 -0.457317
H31   H     H_    0.965550 0.818672 0.614198 0.192573
H32   H     H_    0.828833 0.740446 0.632256 0.213006
N10   N     N_3   0.868952 0.499860 0.730482 -0.456509
H33   H     H_    0.775709 0.472414 0.737956 0.188512
H34   H     H_    0.911138 0.465125 0.812504 0.186957
N11   N     N_3   0.870206 0.750344 0.399121 -0.447808
H35   H     H_    0.897111 0.744406 0.306677 0.231592
H36   H     H_    0.888986 0.851489 0.420735 0.175490
N12   N     N_3   0.884810 0.290509 0.628763 -0.465757
H37   H     H_    0.943697 0.226895 0.584750 0.169297
H38   H     H_    0.882050 0.256413 0.721702 0.185497
C33   C     C_2   0.129270 0.420493 0.257770 0.445510
H39   H     H_    0.087417 0.374037 0.176532 0.086730
O15   O     O_2   0.228974 0.477433 0.245003 -0.654300
C34   C     C_2   0.091412 0.253418 0.415311 0.234816
H40   H     H_    0.137164 0.224548 0.500260 0.157266
O16   O     O_2   0.063817 0.163225 0.342845 -0.614241

loop_
_geom_bond_atom_site_label_1
_geom_bond_atom_site_label_2
_ccdc_geom_bond_type
C7    C10   S    
C30   O12   D    
N9    H31   S    
C29   O11   D    
C32   O14   D    
N11   H35   S    
C12   H3    S    
C1    C8    S    
O2    Zn2   S    
C14   H5    S    
C4    C8    S    
C6    C9    S    
N7    H27   S    
C27   H17   S    
C15   H6    S    
O7    Zn1   S    
C7    C33   S    
C21   C22   S    
N8    H30   S    
C34   O16   D    
N6    H26   S    
C27   O9    D    
N2    Zn1   S    
C26   H10   S    
C28   O10   D    
C31   O13   D    
C20   C24   S    
C7    C34   S    
N12   H38   S    
C3    N7    S    
C23   C24   S    
C9    C10   S    
O8    Zn2   S    
C30   H20   S    
N11   H36   S    
C13   C14   S    
C2    C17   S    
C31   H21   S    
C10   N3    S    
C18   O6    A    
O1    Zn1   S    
N7    H28   S    
N4    H16   S    
C21   C32   S    
C2    C20   S    
N3    H13   S    
C13   H4    S    
C7    C8    S    
N8    H29   S    
C4    C6    S    
C3    C8    S    
C14   H9    S    
C19   O8    A    
O3    Zn1   S    
C25   C26   S    
C6    N10   S    
C25   N6    S    
C28   H18   S    
N3    H14   S    
C5    N9    S    
C12   N2    S    
C19   C23   S    
N5    H23   S    
C17   O3    A    
C5    C9    S    
C16   H7    S    
C1    O2    A    
N10   H34   S    
C33   H39   S    
C4    N8    S    
O5    Zn1   S    
N12   H37   S    
C2    C21   S    
C2    C26   S    
C11   N1    S    
N5    H24   S    
C15   N1    S    
C16   N2    S    
C1    O1    A    
C33   O15   D    
C20   C22   S    
C6    N12   S    
C22   H1    S    
N9    H32   S    
C20   C31   S    
C16   C30   S    
C18   O5    A    
O4    Zn2   S    
C21   C25   S    
N4    H15   S    
N6    H25   S    
C24   C26   S    
C32   H22   S    
C3    C5    S    
C5    N11   S    
C11   C12   S    
C24   N5    S    
O6    Zn2   S    
C17   O4    A    
C13   H8    S    
N10   H33   S    
C11   H2    S    
C19   O7    A    
C23   C25   S    
C34   H40   S    
C10   N4    S    
C13   N1    S    
C14   N2    S    
C29   H19   S    
C12   C28   S    
C9    C18   S    
N1    Zn2   S    
C3    H11   S    
C15   C29   S    
C22   C23   S    
C4    H12   S    
C11   C27   S    
C15   C16   S    
