data_mof_unit_35800.cif
_audit_creation_date              2013-03-05T15:50:59-0500
_audit_creation_method            fapswitch 2.2
_symmetry_space_group_name_H-M    P1
_symmetry_Int_Tables_number       1
_space_group_crystal_system       triclinic
_cell_length_a                    6.933771
_cell_length_b                    17.570845
_cell_length_c                    19.269386
_cell_angle_alpha                 109.353815
_cell_angle_beta                  90.475863
_cell_angle_gamma                 90.37884
_cell_volume                      2214.7820417

loop_
_atom_site_label
_atom_site_type_symbol
_atom_site_description
_atom_site_fract_x
_atom_site_fract_y
_atom_site_fract_z
_atom_type_partial_charge
O1    O     O_R   0.505810 0.439670 0.562310 -0.598669
O2    O     O_R   0.169070 0.404920 0.411210 -0.601659
O3    O     O_R   0.005550 0.560330 0.437690 -0.608829
C1    C     C_R   0.338406 0.382186 0.382729 0.958876
O4    O     O_R   0.175650 0.430000 0.560110 -0.605810
O5    O     O_R   0.012170 0.585580 0.587650 -0.570896
C2    C     C_R   0.344893 0.414914 0.581772 0.992194
O6    O     O_R   0.499180 0.414420 0.412350 -0.607089
O7    O     O_3   0.341430 0.551020 0.508860 -0.222582
V1    V     V_3+5 0.063930 0.490540 0.498360 1.227064
O8    O     O_R   0.682850 0.595080 0.588790 -0.538036
C3    C     C_R   0.853209 0.618029 0.616854 1.049067
O9    O     O_R   0.676280 0.570000 0.439890 -0.576860
C4    C     C_R   0.844769 0.585046 0.418383 0.966112
V2    V     V_3+5 0.564760 0.509460 0.501640 1.275214
O10   O     O_3   0.837130 0.448980 0.491140 -0.296891
C5    C     C_R   0.066150 0.876017 0.188349 -0.134064
C6    C     C_R   0.919150 0.868964 0.134702 -0.216275
C7    C     C_R   0.763505 0.815914 0.129885 -0.128128
C8    C     C_R   0.752118 0.769548 0.176595 0.150550
C9    C     C_R   0.899585 0.775275 0.229236 0.047887
C10   C     C_R   0.056748 0.828698 0.235506 0.055953
C11   C     C_R   0.594320 0.717551 0.171473 -0.180378
C12   C     C_R   0.582268 0.671062 0.217651 -0.190126
C13   C     C_R   0.727427 0.675834 0.270073 0.138631
C14   C     C_R   0.887412 0.728368 0.276421 0.042936
C15   C     C_R   0.032803 0.734639 0.330419 0.062554
C16   C     C_R   0.190561 0.788697 0.336826 -0.140585
C17   C     C_R   0.198562 0.835063 0.290034 -0.206419
C18   C     C_R   0.713944 0.629159 0.316482 -0.111013
C19   C     C_R   0.855961 0.635154 0.370191 -0.159623
C20   C     C_R   0.011989 0.688471 0.377559 -0.169783
H1    H     H_    0.650979 0.810213 0.088988 0.146180
H2    H     H_    0.479478 0.712984 0.131755 0.149786
H3    H     H_    0.458360 0.631603 0.212651 0.155242
H4    H     H_    0.592820 0.588091 0.310850 0.141410
H5    H     H_    0.112838 0.694394 0.421973 0.191075
H6    H     H_    0.319816 0.875916 0.296335 0.191095
C21   C     C_3   0.712673 0.787117 0.766173 -0.108757
C22   C     C_3   0.828037 0.776577 0.695303 0.268299
H7    H     H_    0.570144 0.816624 0.779164 0.186289
C23   C     C_3   0.869745 0.688253 0.686885 -0.389531
C24   C     C_3   0.757040 0.697702 0.758341 -0.068910
C25   C     C_3   0.945849 0.725312 0.804625 -0.242255
C26   C     C_3   0.055275 0.716289 0.732969 0.301071
C27   C     C_3   0.014273 0.804097 0.740494 0.176822
C28   C     C_3   0.902808 0.813996 0.811638 -0.348983
H8    H     H_    0.653988 0.652899 0.766167 0.209416
H9    H     H_    0.996341 0.703965 0.849757 0.183033
C29   C     C_3   0.556902 0.288733 0.274672 -0.270020
C30   C     C_3   0.506115 0.199816 0.262814 0.329320
H10   H     H_    0.698835 0.318286 0.293709 0.162419
C31   C     C_3   0.415489 0.189401 0.187260 -0.388597
C32   C     C_3   0.459630 0.278663 0.199904 0.379771
C33   C     C_3   0.263247 0.304772 0.236843 -0.201023
C34   C     C_3   0.217172 0.214528 0.225399 -0.123568
C35   C     C_3   0.310912 0.223464 0.301508 -0.170349
C36   C     C_3   0.357602 0.312600 0.311884 -0.163536
H11   H     H_    0.162774 0.348292 0.225552 0.155432
H12   H     H_    0.075985 0.184525 0.205852 0.198595
H13   H     H_    0.249653 0.199926 0.343523 0.174864
C37   C     C_R   0.564764 0.131918 0.819118 -0.122403
C38   C     C_R   0.416044 0.134639 0.868993 -0.147044
C39   C     C_R   0.255777 0.183594 0.870808 -0.122807
C40   C     C_R   0.245163 0.230877 0.824789 0.151448
C41   C     C_R   0.392479 0.226688 0.773599 0.072351
C42   C     C_R   0.551816 0.174955 0.768955 -0.000153
C43   C     C_R   0.089803 0.282994 0.830082 -0.293869
C44   C     C_R   0.077680 0.332058 0.785606 0.327412
C45   C     C_R   0.220374 0.325829 0.731614 -0.006585
C46   C     C_R   0.379563 0.274012 0.726903 0.070305
C47   C     C_R   0.526745 0.269757 0.675656 0.163306
C48   C     C_R   0.682316 0.217781 0.670464 -0.282061
C49   C     C_R   0.694764 0.168863 0.715062 0.317206
C50   C     C_R   0.207268 0.368827 0.681423 -0.121168
C51   C     C_R   0.355581 0.365823 0.631308 -0.180656
C52   C     C_R   0.515840 0.316858 0.629487 -0.159154
H14   H     H_    0.689526 0.095627 0.819826 0.168695
H15   H     H_    0.141124 0.186421 0.909500 0.133428
H16   H     H_    0.979561 0.287297 0.870740 0.182532
H17   H     H_    0.082676 0.405289 0.680894 0.171888
H18   H     H_    0.630302 0.313898 0.590688 0.136811
H19   H     H_    0.792553 0.213506 0.629812 0.178888
O11   O     O_R   0.271890 0.085690 0.087580 -0.604991
O12   O     O_R   0.595690 0.070020 0.939870 -0.602162
O13   O     O_R   0.758900 0.914390 0.912370 -0.613003
C53   C     C_R   0.426504 0.085328 0.918338 1.017719
O14   O     O_R   0.602020 0.095100 0.088770 -0.551945
O15   O     O_R   0.765280 0.939660 0.062330 -0.568357
C54   C     C_R   0.432818 0.118664 0.116784 1.072198
O16   O     O_R   0.265520 0.060430 0.937620 -0.584382
O17   O     O_3   0.429560 0.949050 0.991100 -0.282963
V3    V     V_3+5 0.707160 0.009450 0.001650 1.253624
O18   O     O_R   0.094540 0.929890 0.060190 -0.616355
C55   C     C_R   0.926507 0.916183 0.083080 0.995957
O19   O     O_R   0.088200 0.904800 0.911290 -0.581190
C56   C     C_R   0.918200 0.882821 0.882603 1.051902
V4    V     V_3+5 0.206300 0.990390 0.998440 1.235165
O20   O     O_3   0.934030 0.050940 0.008900 -0.274446
C57   C     C_2   0.220416 0.937413 0.198844 1.045382
O21   O     O_2   0.387956 0.916813 0.185753 -0.641998
O22   O     O_R   0.172468 0.018893 0.223650 -0.755863
H20   H     H_    0.290676 0.054718 0.231098 0.321457
N1    N     N_R   0.240857 0.676611 0.716063 0.230989
O23   O     O_R   0.292218 0.625416 0.748231 -0.422515
O24   O     O_R   0.339456 0.681757 0.660736 -0.332100
N2    N     N_R   0.155421 0.860344 0.728488 0.263277
O25   O     O_R   0.242866 0.842657 0.665793 -0.259626
O26   O     O_R   0.186378 0.930301 0.778300 -0.383234
N3    N     N_R   0.640584 0.145083 0.280140 0.234987
O27   O     O_R   0.708576 0.162473 0.346737 -0.373151
O28   O     O_R   0.694372 0.079229 0.229645 -0.379417
N4    N     N_R   0.541234 0.311559 0.146302 0.236949
O29   O     O_R   0.575139 0.388624 0.164671 -0.400139
O30   O     O_R   0.578893 0.264685 0.079975 -0.419774
N5    N     N_R   0.924893 0.390050 0.798666 0.233304
O31   O     O_R   0.963682 0.464380 0.804077 -0.378706
O32   O     O_R   0.757908 0.373701 0.820954 -0.403730
N6    N     N_R   0.848176 0.111166 0.702212 0.241059
O33   O     O_R   0.810373 0.036960 0.697432 -0.306922
O34   O     O_R   0.014633 0.127502 0.679507 -0.383732
C58   C     C_2   0.351451 0.799857 0.391155 1.060306
O35   O     O_2   0.416164 0.742592 0.406081 -0.641219
O36   O     O_R   0.435603 0.876276 0.422867 -0.743326
H21   H     H_    0.545953 0.876316 0.457749 0.369725
N7    N     N_R   0.761283 0.803403 0.635309 0.251688
O37   O     O_R   0.856855 0.858088 0.617686 -0.279835
O38   O     O_R   0.607319 0.771227 0.597840 -0.296888

loop_
_geom_bond_atom_site_label_1
_geom_bond_atom_site_label_2
_geom_bond_distance
_ccdc_geom_bond_type
C25   H9    1.110159 S    
C43   H16   1.084094 S    
C9    C14   1.417796 A    
C44   N5    1.439672 S    
N7    O37   1.299725 A    
C10   C17   1.409587 A    
C53   O16   1.297522 A    
C48   C49   1.405012 A    
C32   C33   1.542460 S    
O12   V3    1.995642 S    
C7    C8    1.402301 A    
C4    C19   1.478420 S    
C1    O6    1.286897 A    
N1    O24   1.298977 A    
O17   V4    1.701308 S    
C21   H7    1.110402 S    
C31   C32   1.533663 S    
N5    O31   1.301383 A    
C22   C27   1.534139 S    
C49   N6    1.439733 S    
C14   C15   1.419939 A    
C29   C32   1.541185 S    
C37   C42   1.413557 A    
C16   C17   1.402454 A    
O13   V3    1.997960 S    
C33   H11   1.110050 S    
O5    C3    1.289396 A    
C18   C19   1.400469 A    
C16   C58   1.490155 S    
O18   V4    1.997289 S    
V2    O10   2.151101 S    
C32   N4    1.456771 S    
C34   C35   1.558255 S    
C6    C7    1.403512 A    
O13   C56   1.290138 A    
N3    O27   1.300219 A    
O17   V3    2.167036 S    
C3    C23   1.499542 S    
C27   C28   1.538931 S    
O8    V2    2.010030 S    
C37   C38   1.405685 A    
C19   C20   1.401478 A    
C43   C44   1.405082 A    
O19   V4    2.009810 S    
C17   H6    1.081406 S    
C29   H10   1.110722 S    
C11   C12   1.395747 A    
C45   C46   1.419766 A    
C30   C35   1.542525 S    
C24   H8    1.107282 S    
V3    O20   1.714407 S    
C25   C28   1.550087 S    
C40   C43   1.400839 A    
C22   C23   1.535667 S    
C41   C42   1.419821 A    
O9    C4    1.297325 A    
C27   N2    1.459661 S    
C6    C55   1.492572 S    
N2    O26   1.299772 A    
C44   C45   1.419989 A    
O11   C54   1.289331 A    
N1    O23   1.300146 A    
C5    C6    1.420842 A    
N6    O34   1.301221 A    
C12   H3    1.083793 S    
O12   C53   1.300274 A    
O22   H20   1.009936 S    
C29   C36   1.557078 S    
C12   C13   1.402251 A    
C7    H1    1.084570 S    
C21   C22   1.546453 S    
O4    C2    1.300351 A    
C50   H17   1.080915 S    
C21   C24   1.560701 S    
C13   C14   1.416656 A    
C26   C27   1.529869 S    
C34   H12   1.110670 S    
C30   C31   1.534467 S    
C23   C26   1.539097 S    
O15   C55   1.299136 A    
O2    C1    1.308035 A    
C50   C51   1.405809 A    
C47   C52   1.403507 A    
C26   N1    1.454738 S    
C41   C46   1.415849 A    
C8    C11   1.402424 A    
N2    O25   1.299817 A    
C11   H2    1.083783 S    
C22   N7    1.458783 S    
O19   C56   1.298384 A    
C33   C34   1.557353 S    
C57   O22   1.394295 S    
C29   C30   1.540107 S    
C31   C54   1.513091 S    
C42   C49   1.420261 A    
C20   H5    1.078095 S    
C51   C52   1.403384 A    
O3    C4    1.294773 A    
O1    V2    1.997259 S    
O14   C54   1.306925 A    
C40   C41   1.411164 A    
O6    V2    2.007080 S    
O9    V2    1.997154 S    
C24   C25   1.558883 S    
C39   H15   1.084504 S    
C23   C24   1.549901 S    
C58   O36   1.398822 S    
O2    V1    1.993792 S    
C45   C50   1.413575 A    
C25   C26   1.543131 S    
C21   C28   1.557871 S    
N4    O29   1.300328 A    
O7    V1    2.167133 S    
C31   C34   1.560654 S    
C13   C18   1.402687 A    
O14   V3    1.993699 S    
N7    O38   1.299711 A    
C38   C53   1.485199 S    
C15   C20   1.411743 A    
O1    C2    1.297470 A    
C37   H14   1.080755 S    
C47   C48   1.400681 A    
O5    V1    1.997906 S    
N6    O33   1.301045 A    
C35   H13   1.110053 S    
C2    C51   1.485268 S    
C30   N3    1.457797 S    
C5    C10   1.422063 A    
C28   C56   1.497848 S    
C18   H4    1.084623 S    
O11   V4    2.007924 S    
C39   C40   1.403571 A    
O7    V2    1.703444 S    
O4    V1    1.995478 S    
O3    V1    1.995803 S    
V1    O10   1.714486 S    
C35   C36   1.543516 S    
C52   H18   1.084517 S    
C57   O21   1.222318 D    
N5    O32   1.301224 A    
O16   V4    2.003470 S    
O15   V3    1.995591 S    
O18   C55   1.298171 A    
C5    C57   1.478290 S    
N3    O28   1.300089 A    
C38   C39   1.403344 A    
C46   C47   1.411042 A    
C8    C9    1.413614 A    
V4    O20   2.151116 S    
C33   C36   1.545671 S    
C1    C36   1.508351 S    
C15   C16   1.421353 A    
C58   O35   1.221533 D    
C9    C10   1.411514 A    
C48   H19   1.084086 S    
O8    C3    1.299574 A    
O36   H21   1.014097 S    
N4    O30   1.300271 A    
