data_mof_unit_9312.cif
_audit_creation_date              2012-12-10T19:03:05-0500
_audit_creation_method            fapswitch 2.2
_symmetry_space_group_name_H-M    P1
_symmetry_Int_Tables_number       1
_space_group_crystal_system       triclinic
_cell_length_a                    10.780631
_cell_length_b                    10.793364
_cell_length_c                    9.650629
_cell_angle_alpha                 88.48729
_cell_angle_beta                  90.047997
_cell_angle_gamma                 90.967853
_cell_volume                      1122.38859681

loop_
_atom_site_label
_atom_site_type_symbol
_atom_type_description
_atom_site_fract_x
_atom_site_fract_y
_atom_site_fract_z
_atom_type_partial_charge
C1    C     C_R   0.499186 0.263076 0.501626 0.896327
C2    C     C_3   0.878854 0.496388 0.499391 0.002773
C3    C     C_3   0.933358 0.611925 0.421245 -0.455326
C4    C     C_3   0.922724 0.377644 0.428471 -0.480748
C5    C     C_R   0.406260 0.061054 0.567544 -0.026477
C6    C     C_R   0.501525 0.130041 0.503061 -0.245436
C7    C     C_R   0.592988 0.070482 0.426676 0.503001
C8    C     C_R   0.593553 0.940496 0.427924 -0.332304
C9    C     C_R   0.500209 0.871320 0.497196 -0.166162
C10   C     C_R   0.406339 0.932904 0.565439 0.039594
C11   C     C_3   0.367649 0.921354 0.714290 -0.135456
C12   C     C_R   0.260414 0.494942 0.499758 0.882217
C13   C     C_3   0.363970 0.062992 0.715174 0.369741
C14   C     C_R   0.509608 0.609044 0.068985 0.185899
C15   C     C_R   0.473401 0.395156 0.076972 -0.074404
C16   C     C_R   0.472670 0.395522 0.928994 -0.119627
C17   C     C_R   0.519149 0.605542 0.923411 0.082145
C18   C     C_3   0.628782 0.691715 0.916906 0.327573
C19   C     C_3   0.603725 0.715603 0.070698 0.195060
C20   C     C_R   0.501287 0.737432 0.498961 0.840372
C21   C     C_R   0.740155 0.499889 0.500047 0.816744
C22   C     C_3   0.072004 0.494518 0.648234 -0.421951
C23   C     C_3   0.930647 0.495068 0.648605 -0.398088
C24   C     C_3   0.076228 0.608447 0.415594 0.309846
C25   C     C_3   0.070074 0.371666 0.424339 0.838150
C26   C     C_3   0.122205 0.491609 0.497258 -0.018676
Cu1   Cu    Cu3+1 0.499990 0.499980 0.640670 0.955277
Cu2   Cu    Cu3+1 0.500010 0.500020 0.359330 0.969195
H1    H     H_    0.107200 0.578658 0.700784 0.210063
H2    H     H_    0.875465 0.370685 0.327402 0.169286
H3    H     H_    0.104813 0.598290 0.305146 0.116964
H4    H     H_    0.900671 0.614166 0.313632 0.132999
H5    H     H_    0.670695 0.894643 0.382193 0.152356
H6    H     H_    0.442411 0.883567 0.780876 0.121018
H7    H     H_    0.434381 0.106825 0.783943 0.036449
H8    H     H_    0.453997 0.309038 0.132805 0.151783
H9    H     H_    0.104795 0.413065 0.710385 0.212443
H10   H     H_    0.454496 0.309936 0.877215 0.139246
H11   H     H_    0.612966 0.773328 0.847291 0.091628
H12   H     H_    0.896335 0.410830 0.706268 0.174494
H13   H     H_    0.899970 0.579094 0.701946 0.245529
H14   H     H_    0.901597 0.697875 0.470698 0.200381
H15   H     H_    0.885178 0.296666 0.489810 0.199945
N1    N     N_R   0.500800 0.500930 0.147930 -0.188281
N2    N     N_R   0.500800 0.500890 0.852020 -0.180923
O1    O     O_R   0.500000 0.319640 0.618810 -0.604530
O2    O     O_R   0.500010 0.319680 0.381230 -0.565185
O3    O     O_R   0.317690 0.499960 0.618790 -0.591396
O4    O     O_R   0.317700 0.500000 0.381210 -0.552412
O5    O     O_R   0.499990 0.680320 0.618770 -0.588095
O6    O     O_R   0.500000 0.680360 0.381190 -0.589900
O7    O     O_R   0.682300 0.500000 0.618790 -0.576268
O8    O     O_R   0.682310 0.500040 0.381210 -0.594255
O9    O     O_3   0.691115 0.140107 0.370902 -0.590953
C27   C     C_3   0.701667 0.119373 0.227816 -0.353436
H16   H     H_    0.760857 0.194267 0.180778 0.171252
H17   H     H_    0.610160 0.122784 0.174169 0.159515
H18   H     H_    0.748223 0.030247 0.209700 0.164664
C28   C     C_3   0.244074 0.851456 0.734970 -0.690382
H19   H     H_    0.169900 0.890699 0.668112 0.276244
H20   H     H_    0.256388 0.752690 0.710094 0.249980
H21   H     H_    0.215009 0.855646 0.844969 0.198344
O10   O     O_3   0.243013 0.110970 0.722634 -0.530133
C29   C     C_3   0.213980 0.137740 0.860985 -0.307519
H22   H     H_    0.255838 0.228155 0.888956 0.154707
H23   H     H_    0.243517 0.063794 0.936041 0.138467
H24   H     H_    0.111879 0.145835 0.869950 0.183042
O11   O     O_3   0.747131 0.638876 0.888624 -0.571310
C30   C     C_3   0.763818 0.512550 0.930453 -0.314251
H25   H     H_    0.735666 0.449315 0.848242 0.204777
H26   H     H_    0.712681 0.480482 0.023546 0.152006
H27   H     H_    0.863729 0.498330 0.951670 0.152303
C31   C     C_3   0.717581 0.705902 0.164962 -0.686655
H28   H     H_    0.694952 0.725884 0.272755 0.222748
H29   H     H_    0.755919 0.612977 0.166940 0.219191
H30   H     H_    0.790601 0.773176 0.129226 0.205025
C32   C     C_3   0.537677 0.839893 0.087728 -0.966446
H31   H     H_    0.504665 0.849499 0.195011 0.278820
H32   H     H_    0.601790 0.918083 0.060132 0.228934
H33   H     H_    0.454756 0.846790 0.019809 0.203570
O12   O     O_3   0.127930 0.717867 0.472271 -0.583235
C33   C     C_3   0.151036 0.808069 0.366328 -0.376076
H34   H     H_    0.065400 0.828807 0.306142 0.157853
H35   H     H_    0.226221 0.778060 0.296441 0.180272
H36   H     H_    0.183109 0.895012 0.413990 0.186968
O13   O     O_3   0.129795 0.366439 0.290928 -0.589039
C34   C     C_3   0.052950 0.365003 0.172777 -0.444482
H37   H     H_    0.998301 0.451011 0.162506 0.158086
H38   H     H_    0.993662 0.279919 0.171817 0.163532
H39   H     H_    0.113227 0.362596 0.079824 0.201072
O14   O     O_3   0.107546 0.267613 0.507112 -0.583038
C35   C     C_3   0.093005 0.154906 0.436727 -0.199987
H40   H     H_    0.173262 0.141398 0.366900 0.176409
H41   H     H_    0.004781 0.148563 0.377458 0.138836
H42   H     H_    0.091028 0.077534 0.514441 0.197724

loop_
_geom_bond_atom_site_label_1
_geom_bond_atom_site_label_2
_ccdc_geom_bond_type
Cu1   O3    S    
C8    C9    A    
C34   H37   S    
Cu2   O2    S    
C22   H1    S    
C31   H28   S    
C12   O3    A    
C12   O4    A    
C7    C8    A    
C3    H14   S    
C32   H31   S    
C24   C26   S    
C15   N1    A    
C13   H7    S    
C20   O6    A    
C5    C6    A    
Cu2   O6    S    
C1    O1    A    
C18   O11   S    
C23   H12   S    
C19   C32   S    
C18   C19   S    
C30   H26   S    
C18   H11   S    
C35   H40   S    
C20   O5    A    
O11   C30   S    
C9    C10   A    
C5    C13   S    
Cu1   O5    S    
Cu1   N2    S    
C28   H19   S    
C31   H29   S    
C14   C17   A    
C3    C24   S    
C3    H4    S    
C11   C28   S    
O12   C33   S    
C32   H32   S    
C28   H20   S    
C25   O14   S    
C1    C6    S    
C29   H24   S    
C19   C31   S    
O14   C35   S    
O13   C34   S    
C1    O2    A    
C25   C26   S    
C22   H9    S    
Cu2   N1    S    
C35   H42   S    
C12   C26   S    
C29   H23   S    
C30   H27   S    
C2    C4    S    
C24   O12   S    
Cu2   O4    S    
C9    C20   S    
C13   O10   S    
C2    C21   S    
C35   H41   S    
C17   C18   S    
Cu1   O1    S    
C33   H35   S    
C27   H17   S    
C31   H30   S    
C34   H39   S    
C4    C25   S    
C15   H8    S    
C2    C23   S    
Cu1   O7    S    
C14   N1    A    
C32   H33   S    
O9    C27   S    
C28   H21   S    
C14   C19   S    
C11   H6    S    
C17   N2    A    
C16   N2    A    
Cu2   O8    S    
C6    C7    A    
C4    H15   S    
C33   H36   S    
C23   H13   S    
C29   H22   S    
C34   H38   S    
C2    C3    S    
C24   H3    S    
C5    C10   A    
C21   O8    A    
C11   C13   S    
C25   O13   S    
C8    H5    S    
C30   H25   S    
C10   C11   S    
C27   H16   S    
O10   C29   S    
C33   H34   S    
C22   C26   S    
C27   H18   S    
Cu1   Cu2   S    
C22   C23   S    
C7    O9    S    
C21   O7    A    
C4    H2    S    
C15   C16   A    
C16   H10   S    
