data_mof_unit_28193.cif
_audit_creation_date              2012-12-10T19:13:31-0500
_audit_creation_method            fapswitch 2.2
_symmetry_space_group_name_H-M    P1
_symmetry_Int_Tables_number       1
_space_group_crystal_system       triclinic
_cell_length_a                    9.724845
_cell_length_b                    10.630872
_cell_length_c                    16.645668
_cell_angle_alpha                 89.462919
_cell_angle_beta                  84.835902
_cell_angle_gamma                 90.62867
_cell_volume                      1713.70776369

loop_
_atom_site_label
_atom_site_type_symbol
_atom_type_description
_atom_site_fract_x
_atom_site_fract_y
_atom_site_fract_z
_atom_type_partial_charge
C1    C     C_R   0.499730 0.742417 0.501124 0.844908
C2    C     C_R   0.532430 0.518210 0.258712 -0.071832
C3    C     C_3   0.570798 0.930494 0.421916 -0.421423
C4    C     C_R   0.480597 0.506503 0.653247 0.880383
C5    C     C_3   0.566803 0.074856 0.420435 -0.493618
C6    C     C_3   0.346615 0.926555 0.511013 -0.396700
C7    C     C_3   0.570367 0.926481 0.575761 -0.462959
C8    C     C_3   0.497758 0.878758 0.502411 0.166158
C9    C     C_3   0.497467 0.121736 0.502104 0.166897
C10   C     C_3   0.346225 0.069396 0.509700 -0.395631
C11   C     C_3   0.584240 0.070581 0.570304 0.091437
C12   C     C_R   0.345594 0.529786 0.785716 -0.216892
C13   C     C_3   0.909225 0.575742 0.568983 -0.198684
C14   C     C_3   0.071660 0.586102 0.564275 -0.233970
C15   C     C_3   0.916369 0.371835 0.513437 -0.307078
C16   C     C_R   0.499122 0.257779 0.500735 0.881267
C17   C     C_3   0.933997 0.549395 0.423090 0.154068
C18   C     C_3   0.078374 0.374634 0.516825 -0.259973
C19   C     C_3   0.095857 0.543734 0.422164 -0.223383
C20   C     C_R   0.519483 0.500213 0.346187 0.873449
C21   C     C_R   0.468319 0.549219 0.736151 -0.026238
C22   C     C_R   0.573858 0.625292 0.762364 -0.225442
C23   C     C_R   0.426415 0.536323 0.133322 -0.228800
C24   C     C_R   0.559771 0.676408 0.838820 -0.163069
C25   C     C_R   0.441436 0.649153 0.890714 0.207863
C26   C     C_R   0.332404 0.579484 0.863006 -0.174468
C27   C     C_3   0.323155 0.290387 0.257319 -0.804031
C28   C     C_3   0.423626 0.140958 0.689085 -0.803471
C29   C     C_3   0.888473 0.679661 0.390870 -0.354690
C30   C     C_3   0.932983 0.800107 0.432466 -0.927050
C31   C     C_R   0.420629 0.492104 0.212617 0.213484
C32   C     C_R   0.652261 0.577304 0.222153 -0.271619
C33   C     C_R   0.657378 0.619360 0.142811 -0.183985
C34   C     C_R   0.542712 0.603480 0.099164 0.174860
C35   C     C_2   0.439894 0.670909 0.977258 -0.251464
C36   C     C_2   0.552416 0.643778 0.014704 -0.215854
H1    H     H_    0.666667 0.646695 0.723422 0.138978
H2    H     H_    0.674823 0.885297 0.576728 0.143282
H3    H     H_    0.694690 0.090713 0.549562 0.109732
H4    H     H_    0.291222 0.891408 0.568487 0.164402
H5    H     H_    0.283311 0.104094 0.563439 0.173225
H6    H     H_    0.871423 0.531301 0.627792 0.131442
H7    H     H_    0.861525 0.669288 0.571319 0.154897
H8    H     H_    0.106068 0.685040 0.553099 0.145845
H9    H     H_    0.106606 0.559921 0.623907 0.145250
H10   H     H_    0.865945 0.328594 0.569880 0.163705
H11   H     H_    0.104313 0.339977 0.576857 0.147709
H12   H     H_    0.749862 0.666577 0.115943 0.129400
H13   H     H_    0.905811 0.483415 0.375352 0.082294
H14   H     H_    0.740308 0.595754 0.255677 0.147067
H15   H     H_    0.148941 0.633398 0.403343 0.165321
H16   H     H_    0.134636 0.475802 0.375372 0.149851
H17   H     H_    0.889536 0.309663 0.463617 0.143000
H18   H     H_    0.126062 0.307729 0.471809 0.155073
H19   H     H_    0.652353 0.633508 0.980773 0.146579
H20   H     H_    0.240484 0.557745 0.902642 0.118860
H21   H     H_    0.341280 0.514612 0.097917 0.125058
H22   H     H_    0.261508 0.474488 0.765233 0.137338
H23   H     H_    0.519222 0.892984 0.369912 0.167848
H24   H     H_    0.340287 0.680319 0.011724 0.145059
H25   H     H_    0.643394 0.733189 0.858422 0.123043
H26   H     H_    0.213305 0.440945 0.217404 0.205649
H27   H     H_    0.227787 0.246637 0.287653 0.225341
H28   H     H_    0.408419 0.274632 0.296123 0.233452
H29   H     H_    0.347909 0.244240 0.198231 0.236904
H30   H     H_    0.633999 0.106412 0.687680 0.219508
H31   H     H_    0.430301 0.168552 0.752831 0.230704
H32   H     H_    0.366786 0.049935 0.688953 0.237591
H33   H     H_    0.366763 0.216601 0.660531 0.240639
H34   H     H_    0.679502 0.899976 0.414582 0.189310
H35   H     H_    0.863370 0.820909 0.486619 0.253573
H36   H     H_    0.040818 0.798885 0.448057 0.245013
H37   H     H_    0.925551 0.880981 0.390420 0.235304
H38   H     H_    0.934557 0.687415 0.327329 0.156554
H39   H     H_    0.776639 0.682284 0.386030 0.244850
H40   H     H_    0.673833 0.113272 0.408760 0.170707
H41   H     H_    0.508298 0.107055 0.369772 0.173464
H42   H     H_    0.289160 0.891580 0.460553 0.175130
H43   H     H_    0.292420 0.101473 0.456936 0.168225
H44   H     H_    0.510561 0.895778 0.632788 0.176445
N1    N     N_3   0.861190 0.500250 0.501720 -0.040407
N2    N     N_3   0.138550 0.503270 0.501080 -0.045132
N3    N     N_2   0.301626 0.423466 0.245488 -0.307648
N4    N     N_2   0.561377 0.130910 0.648951 -0.307068
O1    O     O_R   0.383960 0.685090 0.500020 -0.635891
O2    O     O_R   0.616040 0.685320 0.499960 -0.635251
O3    O     O_R   0.370240 0.499890 0.615830 -0.626895
O4    O     O_R   0.602330 0.500120 0.615770 -0.617118
O5    O     O_R   0.383960 0.314680 0.500040 -0.637503
O6    O     O_R   0.616040 0.314910 0.499980 -0.629892
O7    O     O_R   0.397670 0.499880 0.384230 -0.589161
O8    O     O_R   0.629760 0.500110 0.384170 -0.648563
Zn1   Zn    Zn3+2 0.345040 0.499850 0.500040 0.902985
Zn2   Zn    Zn3+2 0.654960 0.500150 0.499960 0.902477

loop_
_geom_bond_atom_site_label_1
_geom_bond_atom_site_label_2
_ccdc_geom_bond_type
C15   C18   S    
H26   N3    S    
C16   O6    A    
C24   H25   S    
C4    C21   S    
C28   N4    S    
C1    C8    S    
C17   C29   S    
C35   C36   D    
C18   H11   S    
C30   H35   S    
C7    C8    S    
C15   N1    S    
C4    O3    A    
C7    C11   S    
C20   O8    A    
C15   H17   S    
C28   H32   S    
C9    C16   S    
C6    H4    S    
C6    H42   S    
C13   N1    S    
C31   N3    S    
C2    C32   A    
O2    Zn2   S    
C17   C19   S    
O1    Zn1   S    
C19   H16   S    
C28   H33   S    
C19   N2    S    
C9    C10   S    
C17   N1    S    
C12   H22   S    
C16   O5    A    
N2    Zn1   S    
C13   C14   S    
C10   H5    S    
C13   H6    S    
O6    Zn2   S    
C14   H9    S    
C1    O1    A    
C20   O7    A    
O4    Zn2   S    
C2    C20   S    
C28   H31   S    
C24   C25   A    
C3    C8    S    
C17   H13   S    
C30   H37   S    
C6    C8    S    
C29   H38   S    
C25   C26   A    
C22   H1    S    
C12   C21   A    
C12   C26   A    
C35   H24   S    
C23   C31   A    
C5    C9    S    
C29   C30   S    
C27   H29   S    
O7    Zn1   S    
C23   C34   A    
C3    H34   S    
O8    Zn2   S    
C33   C34   A    
C11   H3    S    
C9    C11   S    
C32   H14   S    
C27   H27   S    
C25   C35   S    
C4    O4    A    
C22   C24   A    
C14   N2    S    
C5    H41   S    
C13   H7    S    
C14   H8    S    
C1    O2    A    
C23   H21   S    
C3    C5    S    
C26   H20   S    
C6    C10   S    
C30   H36   S    
C10   H43   S    
C29   H39   S    
C11   N4    S    
C32   C33   A    
C5    H40   S    
C27   N3    S    
C36   H19   S    
N1    Zn2   S    
O3    Zn1   S    
C18   N2    S    
C7    H2    S    
C34   C36   S    
O5    Zn1   S    
C27   H28   S    
C18   H18   S    
H30   N4    S    
C19   H15   S    
C33   H12   S    
C2    C31   A    
C15   H10   S    
C21   C22   A    
C7    H44   S    
C3    H23   S    
