data_mof_unit_66324.cif
_audit_creation_date              2012-12-10T16:41:28-0500
_audit_creation_method            fapswitch 2.2
_symmetry_space_group_name_H-M    P1
_symmetry_Int_Tables_number       1
_space_group_crystal_system       triclinic
_cell_length_a                    18.878477
_cell_length_b                    19.252465
_cell_length_c                    19.12913
_cell_angle_alpha                 110.594947
_cell_angle_beta                  109.415179
_cell_angle_gamma                 109.630485
_cell_volume                      5269.05536954

loop_
_atom_site_label
_atom_site_type_symbol
_atom_type_description
_atom_site_fract_x
_atom_site_fract_y
_atom_site_fract_z
_atom_type_partial_charge
C1    C     C_R   0.381035 0.383108 0.499364 0.810000
C2    C     C_R   0.505775 0.678175 0.762669 0.096443
C3    C     C_R   0.495280 0.678512 0.686001 -0.151511
C4    C     C_R   0.485313 0.742686 0.673616 -0.182163
C5    C     C_R   0.487324 0.808596 0.736613 0.156505
C6    C     C_R   0.502787 0.812079 0.815505 -0.109351
C7    C     C_2   0.244355 0.263980 0.572142 -0.159888
C8    C     C_2   0.200540 0.179152 0.515183 -0.312670
C9    C     C_2   0.316976 0.322197 0.570064 -0.166810
C10   C     C_2   0.308796 0.318767 0.495818 0.039929
C11   C     C_2   0.488722 0.172476 0.248460 0.417559
C12   C     C_R   0.497370 0.614966 0.618455 0.806849
C13   C     C_2   0.523028 0.187161 0.199397 -0.023995
C14   C     C_2   0.500842 0.245527 0.322666 -0.267711
C15   C     C_2   0.482480 0.303413 0.311118 -0.343846
C16   C     C_2   0.746031 0.738981 0.419961 0.371271
C17   C     C_2   0.805718 0.818176 0.493195 0.110492
C18   C     C_2   0.671897 0.676455 0.417714 0.197982
C19   C     C_2   0.686226 0.666438 0.486913 -0.292767
C20   C     C_R   0.381239 0.994338 0.878044 0.716430
C21   C     C_R   0.501053 0.878921 0.879861 0.798187
C22   C     C_R   0.618629 0.999032 0.115237 0.718497
C23   C     C_R   0.617864 0.612006 0.495487 0.859219
C24   C     C_R   0.505462 0.115892 0.119897 0.864770
C25   C     C_R   0.879351 0.996770 0.382757 0.833798
C26   C     C_R   0.122340 0.116927 0.505077 0.845158
C27   C     C_R   0.123327 0.006125 0.617461 0.809481
C28   C     C_R   0.879982 0.882544 0.497893 0.750570
C29   C     C_2   0.243725 0.980128 0.670920 -0.095879
C30   C     C_2   0.205617 0.027199 0.686863 0.075369
C31   C     C_2   0.316763 0.989968 0.741823 -0.203616
C32   C     C_2   0.309269 0.985215 0.807642 0.275427
C33   C     C_2   0.764169 0.028847 0.330484 -0.105058
C34   C     C_R   0.495132 0.378056 0.381137 0.863599
C35   C     C_2   0.804278 0.984787 0.314304 -0.278545
C36   C     C_2   0.689247 0.016226 0.258808 0.127913
C37   C     C_2   0.690026 0.007308 0.185442 0.252732
C38   C     C_R   0.506294 0.609266 0.773552 -0.155571
C39   C     C_R   0.522599 0.613478 0.851964 -0.140856
C40   C     C_R   0.538178 0.685721 0.920673 -0.125960
C41   C     C_R   0.533913 0.752496 0.910128 -0.154886
C42   C     C_R   0.514162 0.748203 0.829970 0.052757
Cu1   Cu    Cu3+1 0.561020 0.499620 0.560640 0.957215
Cu2   Cu    Cu3+1 0.438980 0.500380 0.439360 0.951662
Cu3   Cu    Cu3+1 0.561070 0.057880 0.996780 0.957130
Cu4   Cu    Cu3+1 0.439050 0.935860 0.996810 0.987782
Cu5   Cu    Cu3+1 1.000000 0.061410 0.561410 0.959934
Cu6   Cu    Cu3+1 1.000000 0.938590 0.438590 0.977579
H1    H     H_    0.476453 0.741650 0.614181 0.166053
H2    H     H_    0.521378 0.249412 0.384796 0.168643
H3    H     H_    0.453665 0.293562 0.246388 0.167465
H4    H     H_    0.752994 0.697620 0.539271 0.163869
H5    H     H_    0.217575 0.929326 0.605192 0.135830
H6    H     H_    0.492384 0.550736 0.721614 0.142423
H7    H     H_    0.374534 0.996946 0.737698 0.117417
H8    H     H_    0.784599 0.072885 0.396972 0.159698
H9    H     H_    0.779236 0.935358 0.248245 0.187748
H10   H     H_    0.523548 0.560600 0.859538 0.134934
H11   H     H_    0.552449 0.689553 0.982050 0.136964
H12   H     H_    0.546776 0.807381 0.965569 0.139298
H13   H     H_    0.227228 0.290981 0.619721 0.169819
H14   H     H_    0.224781 0.153095 0.474652 0.168133
H15   H     H_    0.376318 0.373287 0.631851 0.128178
O1    O     O_R   0.462500 0.410660 0.551220 -0.606342
O2    O     O_R   0.359500 0.945890 0.908340 -0.576726
O3    O     O_R   0.551580 0.958790 0.907180 -0.581821
O4    O     O_R   0.448540 0.855750 0.907210 -0.585463
O5    O     O_R   0.640630 0.047850 0.085250 -0.580347
O6    O     O_R   0.537580 0.944800 0.085280 -0.597032
O7    O     O_R   0.551590 0.137990 0.086380 -0.589335
O8    O     O_R   0.448540 0.034950 0.086410 -0.530878
O9    O     O_R   0.910970 0.052410 0.463390 -0.581951
O10   O     O_R   0.910970 0.948690 0.359670 -0.583463
O11   O     O_R   0.089030 0.140870 0.551850 -0.584209
O12   O     O_R   0.359440 0.411300 0.448810 -0.584063
O13   O     O_R   0.089030 0.037160 0.448130 -0.588382
O14   O     O_R   0.089030 0.051310 0.640330 -0.581450
O15   O     O_R   0.089030 0.947590 0.536610 -0.597566
O16   O     O_R   0.910970 0.962840 0.551870 -0.582588
O17   O     O_R   0.910970 0.859130 0.448150 -0.566903
O18   O     O_R   0.551530 0.589280 0.640810 -0.586925
O19   O     O_R   0.448470 0.589920 0.538390 -0.583715
O20   O     O_R   0.640560 0.588700 0.551190 -0.580819
O21   O     O_R   0.537500 0.589340 0.448780 -0.579581
O22   O     O_R   0.551530 0.410080 0.461610 -0.579561
O23   O     O_R   0.448470 0.410720 0.359190 -0.594849
O24   O     O_R   0.462540 0.048930 0.908310 -0.593275
C43   C     C_3   0.221903 0.259752 0.409896 -0.804852
H16   H     H_    0.221054 0.279815 0.362058 0.238785
H17   H     H_    0.209266 0.192945 0.378702 0.220896
H18   H     H_    0.167356 0.260337 0.419865 0.250111
O25   O     O_3   0.442411 0.089108 0.229582 -0.724971
H19   H     H_    0.422304 0.091291 0.271657 0.323078
C44   C     C_3   0.590041 0.278024 0.228356 -0.898188
H20   H     H_    0.647096 0.278510 0.223282 0.255607
H21   H     H_    0.559652 0.299390 0.186223 0.240745
H22   H     H_    0.618670 0.326688 0.297335 0.252678
O26   O     O_3   0.747488 0.715083 0.343505 -0.731795
H23   H     H_    0.760522 0.764712 0.334799 0.315881
O27   O     O_3   0.791349 0.842047 0.562276 -0.753106
H24   H     H_    0.844207 0.896337 0.613891 0.348107
C45   C     C_3   0.582764 0.625102 0.336341 -0.759241
H25   H     H_    0.586023 0.637159 0.284551 0.240799
H26   H     H_    0.555735 0.554791 0.310420 0.224650
H27   H     H_    0.537699 0.644429 0.350553 0.234173
C46   C     C_3   0.248571 0.108370 0.774675 -0.752404
H28   H     H_    0.252182 0.162987 0.765360 0.203939
H29   H     H_    0.208939 0.097723 0.805722 0.253745
H30   H     H_    0.316707 0.129569 0.819890 0.227913
O28   O     O_3   0.229645 0.962880 0.803911 -0.711103
H31   H     H_    0.236867 0.968377 0.859689 0.330343
C47   C     C_3   0.616913 0.021057 0.273909 -0.855901
H32   H     H_    0.632075 0.035938 0.340534 0.229830
H33   H     H_    0.608483 0.072775 0.266111 0.239474
H34   H     H_    0.554666 0.958085 0.227470 0.257645
O29   O     O_3   0.765160 0.019395 0.181976 -0.740763
H35   H     H_    0.753151 0.006114 0.122834 0.327113
C48   C     C_3   0.470833 0.873209 0.717419 -0.830537
H36   H     H_    0.530662 0.938357 0.761579 0.249468
H37   H     H_    0.452817 0.856066 0.649687 0.221764
H38   H     H_    0.416063 0.875285 0.725985 0.215737

loop_
_geom_bond_atom_site_label_1
_geom_bond_atom_site_label_2
_ccdc_geom_bond_type
C21   O3    A    
Cu1   O20   S    
C41   C42   A    
Cu6   O13   S    
Cu5   O16   S    
C27   O15   A    
C47   H33   S    
C24   O7    A    
C7    C8    D    
C37   O29   S    
C14   H2    S    
Cu3   Cu4   S    
C10   C43   S    
C32   O28   S    
O25   H19   S    
C36   C37   D    
Cu3   O24   S    
Cu2   O19   S    
C34   O23   A    
C5    C6    A    
C45   H26   S    
C11   C14   S    
C46   H28   S    
C20   O24   A    
C11   C13   D    
C33   C36   S    
C8    C26   S    
O29   H35   S    
C45   H27   S    
C18   C19   D    
C18   C45   S    
Cu6   O15   S    
C28   O16   A    
O28   H31   S    
C7    H13   S    
Cu4   O6    S    
C3    C12   S    
C33   C35   D    
C48   H36   S    
C11   O25   S    
Cu5   Cu6   S    
C16   C17   D    
C36   C47   S    
C26   O13   A    
C15   H3    S    
C9    C10   D    
C15   C34   S    
C46   H29   S    
C33   H8    S    
C40   H11   S    
C21   O4    A    
C27   C30   S    
C44   H20   S    
Cu2   O23   S    
C19   H4    S    
C47   H32   S    
Cu1   O1    S    
C23   O21   A    
Cu1   O22   S    
C20   O2    A    
Cu5   O11   S    
Cu4   O2    S    
C39   C40   A    
C44   H22   S    
Cu2   O21   S    
C22   C37   S    
C13   C24   S    
C48   H38   S    
C1    O12   A    
Cu2   O12   S    
C19   C23   S    
Cu1   Cu2   S    
C29   C30   D    
C2    C38   A    
C31   C32   D    
C38   H6    S    
C43   H18   S    
Cu3   O5    S    
C13   C44   S    
C12   O19   A    
C25   O9    A    
C44   H21   S    
C22   O5    A    
Cu4   O8    S    
C23   O20   A    
C25   C35   S    
C40   C41   A    
C43   H17   S    
Cu1   O18   S    
Cu5   O14   S    
C3    C4    A    
C1    O1    A    
C20   C32   S    
C7    C9    S    
C22   O6    A    
Cu3   O7    S    
C9    H15   S    
C17   C28   S    
Cu6   O10   S    
C1    C10   S    
C41   H12   S    
C4    C5    A    
C27   O14   A    
C4    H1    S    
C5    C48   S    
C35   H9    S    
Cu6   O17   S    
C2    C3    A    
Cu4   O4    S    
C29   C31   S    
C6    C21   S    
C16   O26   S    
C38   C39   A    
C29   H5    S    
C2    C42   A    
C39   H10   S    
O27   H24   S    
C26   O11   A    
C12   O18   A    
C25   O10   A    
C45   H25   S    
C28   O17   A    
C17   O27   S    
C48   H37   S    
Cu5   O9    S    
C43   H16   S    
C16   C18   S    
O26   H23   S    
C6    C42   A    
Cu3   O3    S    
C14   C15   D    
C31   H7    S    
C34   O22   A    
C47   H34   S    
C30   C46   S    
C24   O8    A    
C8    H14   S    
C46   H30   S    
