data_mof_unit_5455.cif
_audit_creation_date              2012-12-11T15:58:53-0500
_audit_creation_method            fapswitch 2.2
_symmetry_space_group_name_H-M    P1
_symmetry_Int_Tables_number       1
_space_group_crystal_system       triclinic
_cell_length_a                    8.227266
_cell_length_b                    18.744892
_cell_length_c                    19.026797
_cell_angle_alpha                 98.215886
_cell_angle_beta                  94.45768
_cell_angle_gamma                 91.561876
_cell_volume                      2893.20770023

loop_
_atom_site_label
_atom_site_type_symbol
_atom_type_description
_atom_site_fract_x
_atom_site_fract_y
_atom_site_fract_z
_atom_type_partial_charge
Ba1   Ba    Ba6+2 0.152460 0.535140 0.468980 1.733690
Ba2   Ba    Ba6+2 0.657710 0.464850 0.530960 1.725168
C1    C     C_3   0.344299 0.806211 0.245805 -0.254674
C2    C     C_R   0.100987 0.902141 0.562560 0.040475
C3    C     C_R   0.258961 0.924217 0.592405 -0.080374
C4    C     C_3   0.840788 0.728182 0.292121 0.433265
C5    C     C_R   0.320937 0.993798 0.589278 -0.089215
C6    C     C_R   0.225183 0.043089 0.557293 0.031806
C7    C     C_R   0.067300 0.021258 0.526206 0.013147
C8    C     C_R   0.284194 0.114037 0.557265 -0.103552
C9    C     C_R   0.186379 0.165031 0.528139 -0.046343
C10   C     C_R   0.029021 0.142705 0.494965 -0.003113
C11   C     C_R   0.970598 0.070514 0.493921 -0.005515
C12   C     C_3   0.390837 0.752263 0.295932 0.738024
C13   C     C_R   0.239567 0.238074 0.532249 0.006323
C14   C     C_R   0.136439 0.287355 0.504798 -0.268452
C15   C     C_R   0.982892 0.266256 0.470564 0.026579
C16   C     C_3   0.802026 0.776882 0.235650 -0.289026
C17   C     C_R   0.929121 0.192490 0.463585 -0.055574
C18   C     C_R   0.847875 0.927969 0.497407 0.000768
C19   C     C_R   0.785964 0.856836 0.499653 0.034516
C20   C     C_R   0.883110 0.807802 0.533667 -0.059462
C21   C     C_R   0.037575 0.832820 0.566976 -0.051145
C22   C     C_R   0.777882 0.166931 0.427298 -0.042344
C23   C     C_3   0.351446 0.683094 0.736578 0.218236
C24   C     C_R   0.717521 0.096449 0.428695 0.032244
C25   C     C_R   0.813639 0.047986 0.462271 0.006071
C26   C     C_R   0.752230 0.976940 0.464130 0.015101
C27   C     C_R   0.560378 0.074078 0.398030 -0.077373
C28   C     C_3   0.785492 0.381286 0.311597 0.310437
C29   C     C_R   0.498814 0.004387 0.400824 -0.092321
C30   C     C_R   0.594072 0.955342 0.433397 0.041304
C31   C     C_R   0.627702 0.834995 0.467296 -0.051046
C32   C     C_R   0.532781 0.885316 0.435744 -0.115239
C33   C     C_R   0.566886 0.764210 0.469698 -0.005913
C34   C     C_3   0.432511 0.713536 0.809694 -0.389468
C35   C     C_R   0.655495 0.718872 0.510398 -0.083573
C36   C     C_R   0.820376 0.736341 0.535489 -0.051934
C37   C     C_R   0.612677 0.528752 0.299371 -0.234551
C38   C     C_R   0.467386 0.490269 0.274315 0.058611
C39   C     C_R   0.414225 0.483707 0.201618 -0.015951
C40   C     C_3   0.804452 0.371642 0.231706 -0.353378
C41   C     C_R   0.510169 0.512906 0.153420 0.084310
C42   C     C_R   0.663524 0.546200 0.179171 -0.054541
C43   C     C_R   0.713737 0.554328 0.252054 -0.035293
C44   C     C_R   0.457296 0.566054 0.038273 0.417255
C45   C     C_3   0.912200 0.265911 0.669664 0.342608
C46   C     C_R   0.403710 0.557502 0.965804 -0.070608
C47   C     C_R   0.341833 0.490592 0.929563 0.006152
C48   C     C_R   0.332156 0.431986 0.967635 -0.080073
C49   C     C_R   0.387308 0.439800 0.040003 -0.144945
C50   C     C_R   0.451932 0.506543 0.076348 0.000219
C51   C     C_R   0.140876 0.446851 0.823696 -0.094703
C52   C     C_3   0.874202 0.672606 0.702718 0.594985
C53   C     C_R   0.090817 0.443689 0.750970 0.066683
C54   C     C_R   0.336253 0.511338 0.734081 -0.009879
C55   C     C_R   0.387506 0.514462 0.806238 -0.137138
C56   C     C_3   0.903252 0.189167 0.686706 -0.351593
C57   C     C_R   0.289980 0.482760 0.852055 0.018315
C58   C     C_R   0.189798 0.475213 0.706691 -0.201093
C59   C     C_3   0.870013 0.746515 0.749575 -0.133053
C60   C     C_3   0.269138 0.320561 0.259129 0.622326
C61   C     C_3   0.184091 0.248548 0.264519 -0.280446
C62   C     C_3   0.425706 0.306249 0.710941 0.361204
C63   C     C_3   0.439456 0.282351 0.784103 -0.351050
C64   C     C_R   0.005638 0.950263 0.528264 0.003444
Cl1   Cl    Cl    0.379312 0.664411 0.246188 -0.656399
Cl2   Cl    Cl    0.909916 0.607633 0.761463 -0.730170
Cl3   Cl    Cl    0.423744 0.304031 0.198909 -0.802969
Cl4   Cl    Cl    0.521053 0.653601 0.079175 -0.687257
H1    H     H_    0.789558 0.313849 0.208218 0.185606
H2    H     H_    0.118731 0.225974 0.212467 0.101587
H3    H     H_    0.094982 0.255711 0.305449 0.084323
H4    H     H_    0.516321 0.767242 0.319532 -0.154915
H5    H     H_    0.428649 0.803568 0.202776 0.123139
H6    H     H_    0.294664 0.728183 0.712912 0.076401
H7    H     H_    0.250672 0.644563 0.742731 0.080343
H8    H     H_    0.513714 0.760699 0.805418 0.133774
H9    H     H_    0.337858 0.731336 0.846237 0.111983
H10   H     H_    0.505453 0.671991 0.832175 0.131246
H11   H     H_    0.351853 0.861753 0.275725 0.033965
H12   H     H_    0.711611 0.401865 0.204312 0.090464
H13   H     H_    0.719100 0.819559 0.255520 0.072810
H14   H     H_    0.830793 0.268499 0.620922 0.093346
H15   H     H_    0.039559 0.278933 0.659209 -0.074527
H16   H     H_    0.776271 0.174182 0.696449 0.144020
H17   H     H_    0.941531 0.151166 0.641344 0.072315
H18   H     H_    0.985542 0.184647 0.734846 0.115502
H19   H     H_    0.296101 0.317084 0.697225 -0.087781
H20   H     H_    0.500603 0.356827 0.713748 0.086109
H21   H     H_    0.396885 0.325392 0.823991 0.063559
H22   H     H_    0.568452 0.271720 0.799713 0.147947
H23   H     H_    0.925841 0.392760 0.221414 0.082941
H24   H     H_    0.362927 0.232463 0.783321 0.113502
H25   H     H_    0.334888 0.887558 0.618164 0.065772
H26   H     H_    0.443157 0.009406 0.612866 0.075120
H27   H     H_    0.177730 0.343221 0.509052 0.081689
H28   H     H_    0.405941 0.129078 0.581314 0.107980
H29   H     H_    0.109741 0.799306 0.597933 0.089612
H30   H     H_    0.703145 0.201608 0.398833 0.109880
H31   H     H_    0.484065 0.110843 0.372614 0.072069
H32   H     H_    0.376525 0.988784 0.377312 0.072040
H33   H     H_    0.409132 0.871267 0.413918 0.081646
H34   H     H_    0.756150 0.658649 0.672758 0.024461
H35   H     H_    0.724991 0.699889 0.300172 0.003288
H36   H     H_    0.502360 0.542137 0.826685 0.095830
H37   H     H_    0.407828 0.603910 0.937861 0.107025
H38   H     H_    0.298397 0.456144 0.182715 0.071322
H39   H     H_    0.285054 0.379730 0.941089 0.083055
H40   H     H_    0.381426 0.393155 0.067488 0.136680
H41   H     H_    0.062438 0.423297 0.858092 0.073689
H42   H     H_    0.744076 0.565162 0.142845 0.109441
H43   H     H_    0.149861 0.473860 0.650954 0.069355
H44   H     H_    0.915604 0.803264 0.222109 0.113055
H45   H     H_    0.996051 0.765795 0.770432 0.113368
H46   H     H_    0.652305 0.534724 0.355535 0.056723
H47   H     H_    0.742481 0.744410 0.186659 0.173636
H48   H     H_    0.655045 0.384139 0.320496 0.046942
H49   H     H_    0.852071 0.432159 0.336314 0.033310
H50   H     H_    0.872259 0.816823 0.676932 0.167122
H51   H     H_    0.685419 0.778703 0.682403 0.166318
H52   H     H_    0.942001 0.737968 0.394866 0.202928
H53   H     H_    0.999436 0.805062 0.351064 0.211851
H54   H     H_    0.629460 0.636352 0.570716 0.170068
H55   H     H_    0.464079 0.674848 0.551231 0.196935
H56   H     H_    0.800586 0.740966 0.796395 0.139841
H57   H     H_    0.178118 0.355384 0.236779 -0.018030
H58   H     H_    0.217801 0.794176 0.221316 0.143658
H59   H     H_    0.274619 0.209585 0.280262 0.123810
N1    N     N_3   0.792179 0.800737 0.711867 -0.516653
N2    N     N_3   0.900022 0.772239 0.359288 -0.514801
N3    N     N_3   0.570101 0.656735 0.528670 -0.433544
O1    O     O_2   0.118870 0.674530 0.547560 -0.436211
O2    O     O_2   0.750861 0.442794 0.744818 -0.443016
O3    O     O_3   0.861754 0.313186 0.727349 -0.612160
O4    O     O_3   0.870460 0.585330 0.542110 -0.457424
O5    O     O_3   0.436130 0.464210 0.414140 -0.453101
O6    O     O_2   0.629420 0.533310 0.672080 -0.404950
O7    O     O_3   0.469655 0.654457 0.691832 -0.649831
O8    O     O_2   0.580073 0.243109 0.533236 -0.496403
O9    O     O_3   0.482842 0.251989 0.661092 -0.609000
O10   O     O_3   0.354280 0.631750 0.418430 -0.414082
O11   O     O_2   0.241875 0.753971 0.477889 -0.493264
O12   O     O_3   0.338370 0.350312 0.327448 -0.621731
O13   O     O_3   0.005288 0.670587 0.659490 -0.644104
O14   O     O_3   0.278854 0.755219 0.347796 -0.596768
O15   O     O_2   0.180880 0.466650 0.327890 -0.475550
O16   O     O_3   0.939000 0.596010 0.380670 -0.488376
O17   O     O_2   0.050761 0.548394 0.254456 -0.436671
O18   O     O_3   0.961119 0.680444 0.268426 -0.532105
O19   O     O_2   0.691430 0.325420 0.452420 -0.452178
O20   O     O_3   0.939830 0.414660 0.457830 -0.487960
O21   O     O_3   0.456020 0.368240 0.581510 -0.482801
O22   O     O_3   0.845578 0.321174 0.339147 -0.638482
O23   O     O_3   0.374170 0.535780 0.585810 -0.450944
O24   O     O_3   0.871300 0.403980 0.619270 -0.490103
P1    P     P_3+3 0.947550 0.663200 0.567530 0.993921
P2    P     P_3+3 0.354660 0.445020 0.336980 1.027483
P3    P     P_3+3 0.915371 0.593915 0.287962 1.027909
P4    P     P_3+3 0.862750 0.336790 0.432410 0.995254
P5    P     P_3+3 0.893424 0.402007 0.711359 1.003706
P6    P     P_3+3 0.366297 0.726697 0.425456 1.002778
P7    P     P_3+3 0.449549 0.559997 0.674886 0.990127
P8    P     P_3+3 0.439524 0.274576 0.575628 0.949370

loop_
_geom_bond_atom_site_label_1
_geom_bond_atom_site_label_2
_ccdc_geom_bond_type
C63   H22   S    
C21   H29   S    
O20   P4    S    
C38   C39   A    
Ba2   O23   S    
C39   H38   S    
C40   H23   S    
O3    P5    S    
C40   H12   S    
C62   H20   S    
H51   N1    S    
C56   H17   S    
C16   H44   S    
C51   C57   A    
C5    C6    A    
C5    H26   S    
O14   P6    S    
C54   P7    S    
C24   C25   A    
C35   C36   A    
O5    P2    S    
H50   N1    S    
C12   H4    S    
C18   C64   A    
Ba1   P2    S    
C23   O7    S    
C22   C24   A    
C60   H57   S    
C14   H27   S    
C55   C57   A    
C46   H37   S    
C19   C31   A    
C62   O9    S    
C13   C14   A    
C20   C36   A    
C44   C50   A    
C54   C55   A    
H54   N3    S    
Ba1   O20   S    
Ba1   O23   S    
Ba1   Ba2   S    
C8    H28   S    
C15   P4    S    
C7    C11   A    
C7    C64   A    
Ba1   O10   S    
C31   C33   A    
C9    C13   A    
C14   C15   A    
C43   P3    S    
Ba2   O21   S    
C59   H45   S    
C12   Cl1   S    
O6    P7    D    
Ba1   O4    S    
C1    H5    S    
O11   P6    D    
C18   C26   A    
C37   C43   A    
C45   O3    S    
C51   H41   S    
C55   H36   S    
C53   C58   A    
C39   C41   A    
C58   H43   S    
C62   H19   S    
Ba1   O1    S    
C56   H16   S    
C3    H25   S    
C48   C49   A    
C51   C53   A    
Ba2   O20   S    
C4    C16   S    
C44   C46   A    
C61   H2    S    
C33   P6    S    
O18   P3    S    
O21   P8    S    
C49   C50   A    
Ba2   O6    S    
C29   H32   S    
C13   P8    S    
C26   C30   A    
C53   P5    S    
C34   H10   S    
C37   C38   A    
C3    C5    A    
C2    C21   A    
C1    H58   S    
C6    C7    A    
C28   H48   S    
O23   P7    S    
C48   H39   S    
Ba2   O4    S    
C54   C58   A    
C60   Cl3   S    
O16   P3    S    
C30   C32   A    
C41   C42   A    
O22   P4    S    
C60   C61   S    
O13   P1    S    
C29   C30   A    
C16   H13   S    
C27   H31   S    
C45   H14   S    
C10   C11   A    
O17   P3    D    
C16   H47   S    
C59   H56   S    
C1    C12   S    
C59   N1    S    
C24   C27   A    
C52   O13   S    
O4    P1    S    
C42   H42   S    
Ba2   P4    S    
C63   H24   S    
O24   P5    S    
C47   C48   A    
C49   H40   S    
C23   H7    S    
Ba1   O15   S    
O12   P2    S    
C45   H15   S    
H52   N2    S    
Ba1   O5    S    
C42   C43   A    
C33   C35   A    
C38   P2    S    
Ba2   O19   S    
C63   H21   S    
C46   C47   A    
Ba2   O24   S    
H53   N2    S    
C22   H30   S    
Ba2   O5    S    
C28   C40   S    
C1    H11   S    
C4    N2    S    
C36   P1    S    
C60   O12   S    
C2    C3    A    
C34   H9    S    
C56   H18   S    
O10   P6    S    
C9    C10   A    
C35   N3    S    
C52   C59   S    
O8    P8    D    
C61   H3    S    
C12   O14   S    
C32   H33   S    
C47   C57   S    
O2    P5    D    
C23   H6    S    
C62   C63   S    
O7    P7    S    
C17   C22   A    
C27   C29   A    
C34   H8    S    
O19   P4    D    
C45   C56   S    
C2    C64   A    
H55   N3    S    
C10   C17   A    
Ba1   P1    S    
C40   H1    S    
C15   C17   A    
C4    H35   S    
C31   C32   A    
O1    P1    D    
C61   H59   S    
C41   C50   S    
C44   Cl4   S    
C8    C9    A    
C23   C34   S    
C4    O18   S    
C28   O22   S    
C52   Cl2   S    
C18   C19   A    
O9    P8    S    
C6    C8    A    
C37   H46   S    
C28   H49   S    
C25   C26   A    
C20   C21   A    
C11   C25   A    
Ba1   O16   S    
C52   H34   S    
C19   C20   A    
O15   P2    D    
