data_mof_unit_53641.cif
_audit_creation_date              2012-10-26T18:33:01-0400
_audit_creation_method            fapswitch 2.2
_symmetry_space_group_name_H-M    P1
_symmetry_Int_Tables_number       1
_space_group_crystal_system       triclinic
_cell_length_a                    13.860926
_cell_length_b                    13.86988
_cell_length_c                    15.137108
_cell_angle_alpha                 86.210255
_cell_angle_beta                  88.034014
_cell_angle_gamma                 84.050073
_cell_volume                      2886.98801048

loop_
_atom_site_label
_atom_site_type_symbol
_atom_type_description
_atom_site_fract_x
_atom_site_fract_y
_atom_site_fract_z
_atom_type_partial_charge
C1    C     C_R   0.500455 0.509132 0.328942 0.611517
C2    C     C_R   0.468836 0.326659 0.975399 0.119235
C3    C     C_R   0.790950 0.571335 0.452616 0.378854
C4    C     C_R   0.208554 0.429862 0.548331 0.344319
C5    C     C_R   0.800098 0.423851 0.541726 0.220356
C6    C     C_R   0.200389 0.575616 0.457056 0.209342
C7    C     C_R   0.904614 0.416254 0.533087 0.017677
C8    C     C_R   0.095747 0.584342 0.466493 -0.017737
C9    C     C_R   0.948729 0.499376 0.500303 -0.057434
C10   C     C_R   0.051507 0.500936 0.498843 -0.045702
C11   C     C_R   0.889671 0.581281 0.468797 0.006050
C12   C     C_R   0.499596 0.490530 0.671076 0.616179
C13   C     C_R   0.110352 0.419228 0.531228 0.024357
C14   C     C_R   0.966388 0.329951 0.554906 0.099964
C15   C     C_R   0.033209 0.671445 0.447663 0.101145
C16   C     C_R   0.516260 0.317314 0.498036 0.568015
C17   C     C_R   0.483731 0.682604 0.502046 0.572543
C18   C     C_R   0.068794 0.331231 0.550769 0.127606
C19   C     C_R   0.931239 0.669571 0.451393 0.162873
C20   C     C_1   0.473271 0.785656 0.502822 0.047817
C21   C     C_1   0.526586 0.214182 0.496452 0.023755
C22   C     C_2   0.458891 0.976457 0.502654 0.216204
C23   C     C_R   0.498544 0.496894 0.953482 -0.034064
C24   C     C_2   0.539840 0.023450 0.493626 0.213502
C25   C     C_1   0.533563 0.127322 0.495240 0.038978
C26   C     C_1   0.465799 0.872531 0.502846 0.048480
C27   C     C_R   0.498563 0.401196 0.822961 0.263728
C28   C     C_R   0.502833 0.598066 0.177147 0.228994
C29   C     C_R   0.497117 0.488961 0.768139 0.016884
C30   C     C_R   0.503043 0.510477 0.231965 -0.004718
C31   C     C_R   0.498575 0.578639 0.805940 0.044513
C32   C     C_R   0.501325 0.420815 0.194277 0.044829
C33   C     C_R   0.506134 0.581343 0.897625 0.039896
C34   C     C_R   0.502247 0.502398 0.046666 -0.033905
C35   C     C_R   0.494457 0.417990 0.102548 0.039382
C36   C     C_R   0.487692 0.407164 0.916526 0.055525
C37   C     C_R   0.513590 0.592035 0.083590 0.045543
C38   C     C_R   0.524939 0.667183 0.933874 -0.078272
C39   C     C_R   0.476413 0.331968 0.066251 -0.082780
C40   C     C_R   0.533202 0.672274 0.024701 0.116273
Cu1   Cu    Cu3+1 0.597420 0.500010 0.499990 1.124351
Cu2   Cu    Cu3+1 0.402580 0.499990 0.500010 1.113970
H1    H     H_    0.537984 0.730826 0.891443 0.170928
H2    H     H_    0.442215 0.335129 0.291915 0.253975
H3    H     H_    0.639779 0.761127 0.025864 0.240061
H4    H     H_    0.526043 0.817977 0.031809 0.270891
H5    H     H_    0.478592 0.180910 0.968080 0.266724
H6    H     H_    0.364006 0.235809 0.974161 0.244900
H7    H     H_    0.719159 0.548449 0.225971 0.362421
H8    H     H_    0.332956 0.259112 0.624556 0.388924
H9    H     H_    0.756550 0.288931 0.563638 0.271097
H10   H     H_    0.784406 0.343199 0.657093 0.259366
H11   H     H_    0.248397 0.707763 0.425829 0.225387
H12   H     H_    0.463674 0.268197 0.108628 0.167903
H13   H     H_    0.215978 0.647457 0.337052 0.240022
H14   H     H_    0.948389 0.213881 0.640544 0.261995
H15   H     H_    0.952043 0.189497 0.531566 0.262448
H16   H     H_    0.113342 0.776138 0.485539 0.258642
H17   H     H_    0.103954 0.771144 0.371978 0.245746
H18   H     H_    0.119229 0.199717 0.507305 0.267439
H19   H     H_    0.115126 0.203837 0.618906 0.287390
H20   H     H_    0.886798 0.799278 0.387288 0.305813
H21   H     H_    0.882550 0.799293 0.498821 0.280012
H22   H     H_    0.730800 0.076568 0.412996 0.346037
H23   H     H_    0.263254 0.943874 0.443641 0.337379
H24   H     H_    0.616111 0.230843 0.665435 0.366389
H25   H     H_    0.386784 0.770077 0.333604 0.351092
H26   H     H_    0.556798 0.664837 0.708184 0.250563
H27   H     H_    0.433328 0.674949 0.713695 0.253294
H28   H     H_    0.565710 0.324396 0.286920 0.246294
N1    N     N_R   0.743820 0.499960 0.499930 -0.236780
N2    N     N_3   0.068660 0.764897 0.433750 -0.634032
N3    N     N_3   0.131682 0.242127 0.559509 -0.543733
N4    N     N_3   0.868888 0.759138 0.445352 -0.485146
N5    N     N_R   0.256180 0.500040 0.500070 -0.228690
N6    N     N_3   0.496002 0.667702 0.751085 -0.619734
N7    N     N_3   0.503222 0.331881 0.249267 -0.627386
N8    N     N_3   0.570575 0.756462 0.054576 -0.504892
N9    N     N_3   0.433023 0.241745 0.945459 -0.495386
N10   N     N_3   0.752180 0.353945 0.595291 -0.498183
N11   N     N_3   0.248904 0.640685 0.398551 -0.513678
N12   N     N_3   0.926329 0.239974 0.577303 -0.646358
O1    O     O_R   0.582280 0.500030 0.370250 -0.443934
O2    O     O_2   0.661008 0.905388 0.397422 -0.220022
O3    O     O_3   0.741681 0.040171 0.470928 -0.497334
O4    O     O_2   0.331899 0.073067 0.609415 -0.223522
O5    O     O_2   0.325176 0.122804 0.451378 -0.298677
O6    O     O_3   0.256528 0.961041 0.506209 -0.496223
O7    O     O_2   0.613885 0.234003 0.839572 -0.274916
O8    O     O_2   0.456162 0.224937 0.775174 -0.176756
O9    O     O_3   0.589198 0.297646 0.678161 -0.515532
O10   O     O_2   0.551908 0.770580 0.227161 -0.173081
O11   O     O_2   0.393907 0.769325 0.160549 -0.275463
O12   O     O_R   0.417720 0.499970 0.629750 -0.432275
O13   O     O_3   0.413822 0.703083 0.321689 -0.517073
O14   O     O_2   0.657170 0.677371 0.351758 -0.175396
O15   O     O_2   0.824077 0.673737 0.295839 -0.268705
O16   O     O_3   0.740410 0.519748 0.284672 -0.519825
O17   O     O_2   0.258269 0.476500 0.708252 -0.243588
O18   O     O_2   0.171401 0.334953 0.708187 -0.264491
O19   O     O_3   0.349655 0.317329 0.652771 -0.425309
O20   O     O_R   0.417740 0.500020 0.370270 -0.472441
O21   O     O_R   0.582260 0.499980 0.629730 -0.484466
O22   O     O_R   0.593900 0.362160 0.500010 -0.481754
O23   O     O_R   0.406100 0.637840 0.499990 -0.488207
O24   O     O_R   0.429360 0.362150 0.500030 -0.476266
O25   O     O_R   0.570640 0.637850 0.499970 -0.457348
O26   O     O_2   0.678167 0.890976 0.558086 -0.240774
S1    S     S_3+6 0.657080 0.961157 0.479541 0.027869
S2    S     S_3+6 0.341292 0.037467 0.517637 0.008795
S3    S     S_3+6 0.538755 0.286358 0.779416 0.064276
S4    S     S_3+6 0.466377 0.713364 0.221213 0.054192
S5    S     S_3+6 0.751658 0.615291 0.345068 0.097187
S6    S     S_3+6 0.245684 0.389567 0.657259 0.093879

loop_
_geom_bond_atom_site_label_1
_geom_bond_atom_site_label_2
_ccdc_geom_bond_type
C30   C32   A    
C16   C21   S    
C12   C29   S    
C27   C29   A    
C34   C37   A    
Cu1   Cu2   S    
C14   C18   A    
C35   C39   A    
H5    N9    S    
O17   S6    D    
C6    N5    A    
O5    S2    D    
C28   S4    S    
C15   C19   A    
C15   N2    S    
C11   C19   A    
Cu2   N5    S    
C13   C18   A    
H6    N9    S    
C4    S6    S    
H2    N7    S    
O4    S2    D    
C37   C40   A    
O3    S1    S    
O13   S4    S    
C17   O25   A    
C39   H12   S    
Cu1   O1    S    
H18   N3    S    
C17   C20   S    
O26   S1    D    
H27   N6    S    
H11   N11   S    
C34   C35   A    
O9    S3    S    
C4    C13   A    
H9    N10   S    
C4    N5    A    
C2    N9    S    
C22   S2    S    
H7    O16   S    
C2    C39   A    
C16   O22   A    
C7    C14   A    
C23   C33   A    
C31   C33   A    
H3    N8    S    
H13   N11   S    
C9    C10   A    
C16   O24   A    
H17   N2    S    
Cu1   N1    S    
O6    S2    S    
C32   N7    S    
C27   S3    S    
C6    N11   S    
H28   N7    S    
H25   O13   S    
O19   S6    S    
C12   O12   A    
O8    S3    D    
Cu2   O20   S    
C32   C35   A    
O18   S6    D    
C24   C25   S    
C12   O21   A    
C3    S5    S    
C5    C7    A    
O10   S4    D    
O16   S5    S    
C6    C8    A    
H19   N3    S    
Cu1   O21   S    
C3    N1    A    
C17   O23   A    
C9    C11   A    
C23   C34   A    
C5    N10   S    
Cu2   O24   S    
C8    C10   A    
C8    C15   A    
C22   C24   D    
O14   S5    D    
H26   N6    S    
C14   N12   S    
O15   S5    D    
H22   O3    S    
H23   O6    S    
H4    N8    S    
C2    C36   A    
C7    C9    A    
C21   C25   T    
Cu1   O25   S    
Cu2   O12   S    
C19   N4    S    
C24   S1    S    
O2    S1    D    
C10   C13   A    
H14   N12   S    
H24   O9    S    
H21   N4    S    
C27   C36   A    
C1    O1    A    
O7    S3    D    
C33   C38   A    
Cu1   O22   S    
C18   N3    S    
C28   C30   A    
C38   H1    S    
C5    N1    A    
C38   C40   A    
H16   N2    S    
C31   N6    S    
C20   C26   T    
C28   C37   A    
C1    C30   S    
C40   N8    S    
Cu2   O23   S    
C3    C11   A    
O11   S4    D    
H8    O19   S    
C29   C31   A    
C23   C36   A    
C22   C26   S    
H15   N12   S    
H20   N4    S    
H10   N10   S    
C1    O20   A    
