data_mof_unit_65344.cif
_audit_creation_date              2012-12-10T17:49:37-0500
_audit_creation_method            fapswitch 2.2
_symmetry_space_group_name_H-M    P1
_symmetry_Int_Tables_number       1
_space_group_crystal_system       triclinic
_cell_length_a                    27.790606
_cell_length_b                    36.200696
_cell_length_c                    27.791121
_cell_angle_alpha                 90.000036
_cell_angle_beta                  89.99989
_cell_angle_gamma                 90.000408
_cell_volume                      27958.9593455

loop_
_atom_site_label
_atom_site_type_symbol
_atom_type_description
_atom_site_fract_x
_atom_site_fract_y
_atom_site_fract_z
_atom_type_partial_charge
C1    C     C_R   0.500010 0.650331 0.250004 0.828167
C2    C     C_R   0.000011 0.650331 0.249997 0.828245
C3    C     C_1   0.499978 0.249996 0.431111 -0.147173
C4    C     C_1   0.499978 0.250004 0.931111 -0.147552
C5    C     C_1   0.499978 0.250004 0.068889 -0.147553
C6    C     C_1   0.499978 0.749996 0.068889 -0.147153
C7    C     C_1   0.499978 0.749996 0.931111 -0.147152
C8    C     C_1   0.999978 0.750004 0.931111 -0.147534
C9    C     C_1   0.999978 0.750004 0.068889 -0.147544
C10   C     C_1   0.999978 0.249996 0.068889 -0.147141
C11   C     C_1   0.999978 0.249996 0.931111 -0.147130
C12   C     C_1   0.999978 0.250004 0.431111 -0.147573
C13   C     C_R   0.000010 0.349668 0.249994 0.829298
C14   C     C_1   0.999978 0.250004 0.568889 -0.147562
C15   C     C_1   0.999978 0.749996 0.568889 -0.147173
C16   C     C_1   0.999978 0.749996 0.431111 -0.147182
C17   C     C_1   0.499974 0.750007 0.474550 0.000714
C18   C     C_1   0.499974 0.750007 0.525450 0.000714
C19   C     C_1   0.499974 0.249993 0.525450 0.001092
C20   C     C_1   0.499974 0.249993 0.474550 0.001092
C21   C     C_1   0.499974 0.250007 0.974550 0.000731
C22   C     C_1   0.499974 0.250007 0.025450 0.000731
C23   C     C_1   0.499974 0.749993 0.025450 0.001117
C24   C     C_R   0.000009 0.349669 0.750006 0.829224
C25   C     C_1   0.499974 0.749993 0.974550 0.001117
C26   C     C_1   0.999974 0.750007 0.974550 0.000754
C27   C     C_1   0.999974 0.750007 0.025450 0.000752
C28   C     C_1   0.999974 0.249993 0.025450 0.001138
C29   C     C_1   0.999974 0.249993 0.974550 0.001142
C30   C     C_1   0.999974 0.250007 0.474550 0.000714
C31   C     C_1   0.999974 0.250007 0.525450 0.000716
C32   C     C_1   0.999974 0.749993 0.525450 0.001091
C33   C     C_1   0.999974 0.749993 0.474550 0.001088
C34   C     C_R   0.499986 0.750002 0.120626 0.821640
C35   C     C_R   0.000011 0.150331 0.250004 0.828216
C36   C     C_R   0.499986 0.750002 0.879373 0.821639
C37   C     C_R   0.499986 0.249998 0.879373 0.821409
C38   C     C_R   0.499986 0.249998 0.120626 0.821407
C39   C     C_R   0.499986 0.250002 0.620626 0.821626
C40   C     C_R   0.499986 0.250002 0.379373 0.821624
C41   C     C_R   0.499986 0.749998 0.379373 0.821405
C42   C     C_R   0.499986 0.749998 0.620626 0.821408
C43   C     C_R   0.999986 0.750002 0.620626 0.821617
C44   C     C_R   0.999986 0.750002 0.379373 0.821616
C45   C     C_R   0.999986 0.249998 0.379373 0.821412
C46   C     C_R   0.000010 0.150331 0.749996 0.828171
C47   C     C_R   0.999986 0.249998 0.620626 0.821407
C48   C     C_R   0.999986 0.250002 0.120626 0.821638
C49   C     C_R   0.999986 0.250002 0.879373 0.821643
C50   C     C_R   0.999986 0.749998 0.879373 0.821408
C51   C     C_R   0.999986 0.749998 0.120626 0.821416
C52   C     C_R   0.370622 0.750000 0.250000 0.821781
C53   C     C_R   0.370622 0.750000 0.750000 0.821779
C54   C     C_R   0.370622 0.250000 0.750000 0.821783
C55   C     C_R   0.370622 0.250000 0.250000 0.821783
C56   C     C_R   0.870622 0.750000 0.750000 0.821795
C57   C     C_R   0.000009 0.849669 0.749993 0.829151
C58   C     C_R   0.870622 0.750000 0.250000 0.821790
C59   C     C_R   0.870622 0.250000 0.250000 0.821786
C60   C     C_R   0.870622 0.250000 0.750000 0.821788
C61   C     C_R   0.629371 0.750000 0.250000 0.821453
C62   C     C_R   0.629371 0.750000 0.750000 0.821463
C63   C     C_R   0.629371 0.250000 0.750000 0.821461
C64   C     C_R   0.629371 0.250000 0.250000 0.821452
C65   C     C_R   0.129371 0.750000 0.750000 0.821447
C66   C     C_R   0.129371 0.750000 0.250000 0.821463
C67   C     C_R   0.129371 0.250000 0.250000 0.821464
C68   C     C_R   0.000009 0.849669 0.250006 0.829240
C69   C     C_R   0.129371 0.250000 0.750000 0.821449
C70   C     C_1   0.681108 0.750000 0.250000 -0.148065
C71   C     C_1   0.681108 0.750000 0.750000 -0.148050
C72   C     C_1   0.681108 0.250000 0.750000 -0.148053
C73   C     C_1   0.681108 0.250000 0.250000 -0.148068
C74   C     C_1   0.181108 0.750000 0.750000 -0.148062
C75   C     C_1   0.181108 0.750000 0.250000 -0.148065
C76   C     C_1   0.181108 0.250000 0.250000 -0.148063
C77   C     C_1   0.181108 0.250000 0.750000 -0.148060
C78   C     C_1   0.724547 0.750000 0.250000 -0.000106
C79   C     C_3   0.479294 0.978470 0.299309 -0.065909
C80   C     C_1   0.724547 0.750000 0.750000 -0.000085
C81   C     C_1   0.724547 0.250000 0.750000 -0.000091
C82   C     C_1   0.724547 0.250000 0.250000 -0.000110
C83   C     C_1   0.224547 0.750000 0.750000 -0.000104
C84   C     C_1   0.224547 0.750000 0.250000 -0.000103
C85   C     C_1   0.224547 0.250000 0.250000 -0.000099
C86   C     C_1   0.224547 0.250000 0.750000 -0.000101
C87   C     C_1   0.775446 0.750000 0.250000 0.000046
C88   C     C_1   0.775446 0.750000 0.750000 0.000069
C89   C     C_1   0.775446 0.250000 0.750000 0.000059
C90   C     C_3   0.479127 0.978469 0.700762 -0.065893
C91   C     C_1   0.775446 0.250000 0.250000 0.000039
C92   C     C_1   0.275446 0.750000 0.750000 0.000046
C93   C     C_1   0.275446 0.750000 0.250000 0.000048
C94   C     C_1   0.275446 0.250000 0.250000 0.000053
C95   C     C_1   0.275446 0.250000 0.750000 0.000051
C96   C     C_1   0.818885 0.750000 0.250000 -0.147914
C97   C     C_1   0.818885 0.750000 0.750000 -0.147891
C98   C     C_1   0.818885 0.250000 0.750000 -0.147905
C99   C     C_1   0.818885 0.250000 0.250000 -0.147925
C100  C     C_1   0.318885 0.750000 0.750000 -0.147916
C101  C     C_3   0.484025 0.021661 0.698979 -0.050619
C102  C     C_1   0.318885 0.750000 0.250000 -0.147915
C103  C     C_1   0.318885 0.250000 0.250000 -0.147907
C104  C     C_1   0.318885 0.250000 0.750000 -0.147909
C105  C     C_3   0.550605 0.978705 0.241479 -0.404988
C106  C     C_3   0.550631 0.978705 0.758353 -0.404958
C107  C     C_3   0.549616 0.021293 0.763163 -0.404085
C108  C     C_3   0.549570 0.021292 0.236659 -0.404110
C109  C     C_3   0.550487 0.478705 0.740776 -0.404953
C110  C     C_3   0.550430 0.478705 0.259534 -0.404950
C111  C     C_3   0.549300 0.521292 0.264328 -0.404081
C112  C     C_R   0.500011 0.650331 0.749996 0.828175
C113  C     C_3   0.484211 0.021661 0.301078 -0.050595
C114  C     C_3   0.549387 0.521292 0.735972 -0.404091
C115  C     C_3   0.050433 0.978705 0.740477 -0.404933
C116  C     C_3   0.050770 0.978705 0.257420 -0.404996
C117  C     C_3   0.049843 0.021293 0.262246 -0.404116
C118  C     C_3   0.049305 0.021292 0.735684 -0.404067
C119  C     C_3   0.050952 0.478705 0.244039 -0.405034
C120  C     C_3   0.050736 0.478705 0.757652 -0.404990
C121  C     C_3   0.049788 0.521292 0.762478 -0.404101
C122  C     C_3   0.050166 0.521293 0.239194 -0.404135
C123  C     C_3   0.479985 0.478470 0.799593 -0.065910
C124  C     C_3   0.480294 0.478470 0.200283 -0.065875
C125  C     C_3   0.485243 0.521661 0.198613 -0.050617
C126  C     C_3   0.484929 0.521661 0.801295 -0.050608
C127  C     C_3   0.980279 0.978469 0.799710 -0.065857
C128  C     C_3   0.978216 0.978469 0.201156 -0.065937
C129  C     C_3   0.983079 0.021661 0.199284 -0.050622
C130  C     C_3   0.985227 0.021661 0.801382 -0.050595
C131  C     C_3   0.976813 0.478469 0.298196 -0.065948
C132  C     C_R   0.500009 0.349669 0.749994 0.829160
C133  C     C_3   0.978442 0.478469 0.701057 -0.065887
C134  C     C_3   0.983316 0.521661 0.699206 -0.050569
C135  C     C_3   0.981615 0.521661 0.300204 -0.050592
C136  C     C_1   0.999865 0.610750 0.249924 -0.151539
C137  C     C_1   0.999869 0.610750 0.750069 -0.151501
C138  C     C_1   0.999862 0.389250 0.750083 -0.152074
C139  C     C_1   0.999858 0.389249 0.249912 -0.152122
C140  C     C_1   0.999875 0.110750 0.749937 -0.151480
C141  C     C_1   0.999868 0.110750 0.250070 -0.151524
C142  C     C_1   0.999862 0.889250 0.250083 -0.152099
C143  C     C_R   0.500009 0.349669 0.250006 0.829144
C144  C     C_1   0.999867 0.889250 0.749924 -0.152040
C145  C     C_1   0.499875 0.610750 0.749936 -0.151493
C146  C     C_1   0.499875 0.610750 0.250062 -0.151492
C147  C     C_1   0.499867 0.389250 0.250075 -0.152056
C148  C     C_1   0.499867 0.389250 0.749924 -0.152058
C149  C     C_1   0.499872 0.110750 0.249934 -0.151499
C150  C     C_1   0.499871 0.110750 0.750067 -0.151498
C151  C     C_1   0.499864 0.889250 0.750080 -0.152065
C152  C     C_1   0.499865 0.889250 0.249921 -0.152068
C153  C     C_3   0.499013 0.963294 0.250047 0.185759
C154  C     C_R   0.500011 0.150331 0.750004 0.828199
C155  C     C_3   0.499011 0.963294 0.749957 0.185746
C156  C     C_3   0.499015 0.036704 0.749948 0.184814
C157  C     C_3   0.499017 0.036704 0.250055 0.184828
C158  C     C_3   0.499018 0.463295 0.750061 0.185742
C159  C     C_3   0.499020 0.463295 0.249931 0.185729
C160  C     C_3   0.499026 0.536704 0.249922 0.184811
C161  C     C_3   0.499024 0.536704 0.750071 0.184812
C162  C     C_3   0.999019 0.963295 0.750067 0.185702
C163  C     C_3   0.999004 0.963294 0.249977 0.185804
C164  C     C_3   0.999008 0.036704 0.249968 0.184860
C165  C     C_R   0.500011 0.150331 0.249996 0.828192
C166  C     C_3   0.999025 0.036704 0.750076 0.184784
C167  C     C_3   0.998994 0.463294 0.249993 0.185844
C168  C     C_3   0.999005 0.463294 0.749972 0.185764
C169  C     C_3   0.999010 0.536704 0.749963 0.184824
C170  C     C_3   0.998998 0.536705 0.250001 0.184883
C171  C     C_3   0.962695 0.521531 0.211300 -0.066153
C172  C     C_3   0.961430 0.521531 0.787427 -0.066161
C173  C     C_3   0.965235 0.478337 0.790986 -0.052435
C174  C     C_3   0.966608 0.478336 0.207877 -0.052408
C175  C     C_3   0.960079 0.021531 0.714035 -0.066124
C176  C     C_R   0.500009 0.849669 0.249994 0.829194
C177  C     C_3   0.961602 0.021531 0.287605 -0.066110
C178  C     C_3   0.965422 0.978336 0.291146 -0.052382
C179  C     C_3   0.963753 0.978337 0.710331 -0.052413
C180  C     C_3   0.460289 0.521531 0.713803 -0.066099
C181  C     C_3   0.460070 0.521531 0.285953 -0.066095
C182  C     C_3   0.463745 0.478337 0.289658 -0.052383
C183  C     C_3   0.463989 0.478337 0.710117 -0.052376
C184  C     C_3   0.460792 0.021530 0.213252 -0.066128
C185  C     C_3   0.460922 0.021531 0.786889 -0.066103
C186  C     C_3   0.464676 0.978337 0.790500 -0.052400
C187  C     C_R   0.500009 0.849669 0.750006 0.829202
C188  C     C_3   0.464544 0.978337 0.209619 -0.052385
C189  C     C_1   0.999561 0.577467 0.249925 -0.113380
C190  C     C_1   0.999569 0.577467 0.750058 -0.113261
C191  C     C_1   0.999561 0.422532 0.750071 -0.114209
C192  C     C_1   0.999554 0.422532 0.249913 -0.114350
C193  C     C_1   0.999579 0.077466 0.749961 -0.113145
C194  C     C_1   0.999567 0.077467 0.250060 -0.113284
C195  C     C_1   0.999561 0.922532 0.250073 -0.114235
C196  C     C_1   0.999571 0.922533 0.749948 -0.114067
C197  C     C_1   0.499579 0.577466 0.749958 -0.113168
C198  C     C_R   0.000011 0.650331 0.750004 0.828205
C199  C     C_1   0.499580 0.577466 0.250038 -0.113141
C200  C     C_1   0.499571 0.422533 0.250051 -0.114070
C201  C     C_1   0.499570 0.422533 0.749946 -0.114093
C202  C     C_1   0.499574 0.077467 0.249951 -0.113205
C203  C     C_1   0.499572 0.077467 0.750051 -0.113211
C204  C     C_1   0.499565 0.922532 0.750063 -0.114150
C205  C     C_1   0.499566 0.922532 0.249939 -0.114146
C206  C     C_1   0.499978 0.750004 0.431111 -0.147565
C207  C     C_1   0.499978 0.750004 0.568889 -0.147564
C208  C     C_1   0.499978 0.249996 0.568889 -0.147172
H1    H     H_    0.077383 0.533681 0.263623 0.169701
H2    H     H_    0.578182 0.533686 0.241897 0.169875
H3    H     H_    0.478577 0.937339 0.840758 0.189506
H4    H     H_    0.498411 0.041459 0.846665 0.196678
H5    H     H_    0.449358 0.066192 0.831772 0.185874
H6    H     H_    0.498058 0.041480 0.153349 0.196672
H7    H     H_    0.449040 0.066190 0.168418 0.185858
H8    H     H_    0.511215 0.475552 0.651766 0.200630
H9    H     H_    0.477056 0.437349 0.659623 0.189374
H10   H     H_    0.510607 0.475544 0.348300 0.200634
H11   H     H_    0.476488 0.437346 0.340231 0.189339
H12   H     H_    0.496132 0.541477 0.346590 0.196601
H13   H     H_    0.575462 0.470918 0.230156 0.169916
H14   H     H_    0.447431 0.566191 0.330543 0.185785
H15   H     H_    0.496720 0.541486 0.653393 0.196608
H16   H     H_    0.447916 0.566193 0.669141 0.185797
H17   H     H_    0.010631 0.975542 0.651701 0.200661
H18   H     H_    0.976514 0.937345 0.659765 0.189364
H19   H     H_    0.014693 0.975528 0.347778 0.200629
H20   H     H_    0.980247 0.937339 0.341139 0.189619
H21   H     H_    0.000188 0.041458 0.346680 0.196705
H22   H     H_    0.950870 0.066191 0.332694 0.185928
H23   H     H_    0.996160 0.041475 0.653409 0.196635
H24   H     H_    0.575337 0.470919 0.770309 0.169925
H25   H     H_    0.947462 0.066195 0.669444 0.185807
H26   H     H_    0.017483 0.475513 0.152682 0.200669
H27   H     H_    0.982844 0.437333 0.158331 0.189840
H28   H     H_    0.014247 0.475530 0.847843 0.200707
H29   H     H_    0.979833 0.437340 0.841048 0.189632
H30   H     H_    0.999741 0.541462 0.846678 0.196773
H31   H     H_    0.950486 0.566192 0.832463 0.185936
H32   H     H_    0.002974 0.541444 0.153358 0.196819
H33   H     H_    0.953281 0.566190 0.165913 0.186053
H34   H     H_    0.577997 0.033688 0.259663 0.169832
H35   H     H_    0.577958 0.033683 0.740051 0.169843
H36   H     H_    0.574970 0.970912 0.728402 0.169916
H37   H     H_    0.575040 0.970919 0.271354 0.169898
H38   H     H_    0.440006 0.972208 0.300562 0.114955
H39   H     H_    0.439837 0.972201 0.699636 0.114951
H40   H     H_    0.447770 0.033021 0.690276 0.128027
H41   H     H_    0.077809 0.533683 0.738978 0.169784
H42   H     H_    0.447992 0.033027 0.309917 0.128052
H43   H     H_    0.440718 0.472210 0.801392 0.114982
H44   H     H_    0.441039 0.472207 0.198240 0.115009
H45   H     H_    0.449207 0.533026 0.189051 0.128080
H46   H     H_    0.448836 0.533027 0.810639 0.128076
H47   H     H_    0.941023 0.972206 0.801744 0.115016
H48   H     H_    0.938913 0.972199 0.200754 0.114892
H49   H     H_    0.946669 0.033020 0.191252 0.127978
H50   H     H_    0.949187 0.033025 0.810933 0.128089
H51   H     H_    0.937515 0.472197 0.297471 0.114812
H52   H     H_    0.074658 0.470913 0.727366 0.169872
H53   H     H_    0.939140 0.472201 0.700475 0.114924
H54   H     H_    0.946944 0.533021 0.691004 0.128013
H55   H     H_    0.944987 0.533018 0.307180 0.127918
H56   H     H_    0.427891 0.966972 0.216447 0.124950
H57   H     H_    0.427999 0.966978 0.783786 0.124921
H58   H     H_    0.424537 0.027802 0.772019 0.113155
H59   H     H_    0.424461 0.027793 0.228256 0.113154
H60   H     H_    0.427435 0.466973 0.717455 0.124976
H61   H     H_    0.427236 0.466975 0.282092 0.124991
H62   H     H_    0.424047 0.527796 0.270225 0.113215
H63   H     H_    0.073853 0.470909 0.275102 0.169832
H64   H     H_    0.424170 0.527794 0.729312 0.113188
H65   H     H_    0.927242 0.966975 0.717889 0.125011
H66   H     H_    0.928628 0.966978 0.285109 0.124861
H67   H     H_    0.924950 0.027802 0.273410 0.113088
H68   H     H_    0.924050 0.027797 0.729752 0.113238
H69   H     H_    0.929655 0.466981 0.212859 0.124785
H70   H     H_    0.928469 0.466978 0.784782 0.124900
H71   H     H_    0.924844 0.527801 0.773061 0.113124
H72   H     H_    0.925649 0.527807 0.224429 0.113014
H73   H     H_    0.567061 0.966308 0.208824 0.172324
H74   H     H_    0.078181 0.033685 0.758125 0.169889
H75   H     H_    0.567192 0.966314 0.790959 0.172315
H76   H     H_    0.559750 0.029085 0.800402 0.172280
H77   H     H_    0.559566 0.029077 0.199381 0.172286
H78   H     H_    0.566488 0.466308 0.707894 0.172338
H79   H     H_    0.566227 0.466310 0.292515 0.172346
H80   H     H_    0.558550 0.529079 0.301799 0.172287
H81   H     H_    0.558865 0.529077 0.698558 0.172283
H82   H     H_    0.066238 0.966311 0.707499 0.172349
H83   H     H_    0.067930 0.966314 0.289714 0.172281
H84   H     H_    0.060664 0.029086 0.299291 0.172264
H85   H     H_    0.077754 0.033683 0.238615 0.169780
H86   H     H_    0.058567 0.029080 0.698216 0.172292
H87   H     H_    0.069030 0.466316 0.212249 0.172247
H88   H     H_    0.067749 0.466313 0.790024 0.172311
H89   H     H_    0.060435 0.529083 0.799574 0.172297
H90   H     H_    0.062052 0.529089 0.202479 0.172266
H91   H     H_    0.537883 0.958516 0.338601 0.193258
H92   H     H_    0.486996 0.933813 0.345021 0.191768
H93   H     H_    0.537594 0.958526 0.661277 0.193279
H94   H     H_    0.486692 0.933816 0.655020 0.191792
H95   H     H_    0.551403 0.024475 0.665889 0.198311
H96   H     H_    0.074552 0.970912 0.227025 0.169877
H97   H     H_    0.517065 0.062655 0.658627 0.189823
H98   H     H_    0.551711 0.024455 0.333921 0.198285
H99   H     H_    0.517422 0.062647 0.341304 0.189789
H100  H     H_    0.539114 0.458503 0.838059 0.193250
H101  H     H_    0.488312 0.433814 0.845196 0.191657
H102  H     H_    0.539662 0.458516 0.162177 0.193233
H103  H     H_    0.488917 0.433812 0.154738 0.191610
H104  H     H_    0.553388 0.524459 0.167128 0.198284
H105  H     H_    0.519251 0.562649 0.159062 0.189650
H106  H     H_    0.552881 0.524446 0.833195 0.198307
H107  H     H_    0.075459 0.970917 0.769860 0.169932
H108  H     H_    0.518714 0.562646 0.841042 0.189693
H109  H     H_    0.039639 0.958509 0.837824 0.193218
H110  H     H_    0.988888 0.933813 0.845259 0.191612
H111  H     H_    0.035947 0.958533 0.160597 0.193312
H112  H     H_    0.984945 0.933814 0.155286 0.191928
H113  H     H_    0.049834 0.024479 0.164955 0.198305
H114  H     H_    0.015364 0.062657 0.158328 0.189957
H115  H     H_    0.053364 0.024458 0.832886 0.198286
H116  H     H_    0.019229 0.062649 0.840936 0.189641
H117  H     H_    0.033359 0.458538 0.340395 0.193326
H118  H     H_    0.578132 0.533687 0.758579 0.169878
H119  H     H_    0.982228 0.433817 0.344245 0.192137
H120  H     H_    0.036356 0.458528 0.660764 0.193248
H121  H     H_    0.985376 0.433814 0.655218 0.191894
H122  H     H_    0.050232 0.524475 0.665190 0.198254
H123  H     H_    0.015796 0.562654 0.658401 0.189896
H124  H     H_    0.047350 0.524488 0.336447 0.198284
H125  H     H_    0.012688 0.562661 0.342081 0.190153
H126  H     H_    0.512576 0.975551 0.151930 0.200656
H127  H     H_    0.478307 0.937348 0.159309 0.189488
H128  H     H_    0.512895 0.975528 0.848030 0.200646
N1    N     N_3   0.500607 0.960639 0.341884 -0.418321
N2    N     N_3   0.998608 0.960644 0.158126 -0.418256
N3    N     N_3   0.014683 0.033817 0.159838 -0.419887
N4    N     N_3   0.018462 0.033809 0.839469 -0.420014
N5    N     N_3   0.995964 0.460647 0.341794 -0.418213
N6    N     N_3   0.999029 0.460642 0.658121 -0.418312
N7    N     N_3   0.015105 0.533814 0.659908 -0.419971
N8    N     N_3   0.012063 0.533820 0.340547 -0.419855
N9    N     N_3   0.478231 0.966189 0.160959 -0.421634
N10   N     N_3   0.478515 0.966180 0.839112 -0.421632
N11   N     N_3   0.463036 0.039358 0.834458 -0.419939
N12   N     N_3   0.500307 0.960643 0.658115 -0.418302
N13   N     N_3   0.462727 0.039362 0.165679 -0.419943
N14   N     N_3   0.476998 0.466189 0.661271 -0.421706
N15   N     N_3   0.476448 0.466186 0.338583 -0.421707
N16   N     N_3   0.461054 0.539362 0.333556 -0.420034
N17   N     N_3   0.461562 0.539365 0.666209 -0.420024
N18   N     N_3   0.976469 0.966185 0.661410 -0.421610
N19   N     N_3   0.980155 0.966179 0.339495 -0.421646
N20   N     N_3   0.964594 0.039357 0.335127 -0.419926
N21   N     N_3   0.961078 0.039363 0.666433 -0.419950
N22   N     N_3   0.982718 0.466173 0.159971 -0.421515
N23   N     N_3   0.516353 0.033815 0.660123 -0.419944
N24   N     N_3   0.979747 0.466181 0.839403 -0.421498
N25   N     N_3   0.964200 0.539359 0.834961 -0.419809
N26   N     N_3   0.967062 0.539353 0.163882 -0.419782
N27   N     N_3   0.516687 0.033807 0.339814 -0.419970
N28   N     N_3   0.501889 0.460637 0.841868 -0.418333
N29   N     N_3   0.502460 0.460639 0.158144 -0.418359
N30   N     N_3   0.518488 0.533809 0.160535 -0.420009
N31   N     N_3   0.517945 0.533806 0.839574 -0.419969
N32   N     N_3   0.002437 0.960638 0.841853 -0.418362
O1    O     O_3   0.499990 0.750000 0.250000 -0.479254
O2    O     O_R   0.527870 0.668020 0.722120 -0.636606
O3    O     O_R   0.972140 0.331980 0.722150 -0.638001
O4    O     O_R   0.972140 0.168020 0.222150 -0.637052
O5    O     O_R   0.972140 0.168020 0.777850 -0.637031
O6    O     O_R   0.972140 0.831980 0.777850 -0.637941
O7    O     O_R   0.972140 0.831980 0.222150 -0.638006
O8    O     O_R   0.527870 0.331980 0.722120 -0.636670
O9    O     O_R   0.527870 0.331980 0.277880 -0.636665
O10   O     O_R   0.527870 0.168020 0.777880 -0.636617
O11   O     O_R   0.527870 0.168020 0.222120 -0.636616
O12   O     O_R   0.527870 0.831980 0.222120 -0.636682
O13   O     O_R   0.527870 0.831980 0.777880 -0.636682
O14   O     O_R   0.027870 0.668020 0.777880 -0.636621
O15   O     O_R   0.027870 0.668020 0.222120 -0.636661
O16   O     O_R   0.027870 0.331980 0.222120 -0.636726
O17   O     O_3   0.499990 0.750000 0.750000 -0.479255
O18   O     O_R   0.027870 0.331980 0.777880 -0.636686
O19   O     O_R   0.027870 0.168020 0.277880 -0.636640
O20   O     O_R   0.027870 0.168020 0.722120 -0.636592
O21   O     O_R   0.027870 0.831980 0.722120 -0.636655
O22   O     O_R   0.027870 0.831980 0.277880 -0.636705
O23   O     O_R   0.472130 0.728510 0.143730 -0.633605
O24   O     O_R   0.472130 0.728510 0.856270 -0.633605
O25   O     O_R   0.472130 0.271490 0.856270 -0.634085
O26   O     O_R   0.472130 0.271490 0.143730 -0.634085
O27   O     O_R   0.472130 0.228510 0.643730 -0.633607
O28   O     O_3   0.499990 0.250000 0.750000 -0.479256
O29   O     O_R   0.472130 0.228510 0.356270 -0.633606
O30   O     O_R   0.472130 0.771490 0.356270 -0.634086
O31   O     O_R   0.472130 0.771490 0.643730 -0.634085
O32   O     O_R   0.972130 0.728510 0.643730 -0.633608
O33   O     O_R   0.972130 0.728510 0.356270 -0.633616
O34   O     O_R   0.972130 0.271490 0.356270 -0.634083
O35   O     O_R   0.972130 0.271490 0.643730 -0.634084
O36   O     O_R   0.972130 0.228510 0.143730 -0.633620
O37   O     O_R   0.972130 0.228510 0.856270 -0.633610
O38   O     O_R   0.972130 0.771490 0.856270 -0.634089
O39   O     O_3   0.499990 0.250000 0.250000 -0.479256
O40   O     O_R   0.972130 0.771490 0.143730 -0.634089
O41   O     O_R   0.393720 0.728520 0.222140 -0.634013
O42   O     O_R   0.393720 0.728520 0.777860 -0.634012
O43   O     O_R   0.393720 0.271480 0.777860 -0.634070
O44   O     O_R   0.393720 0.271480 0.222140 -0.634068
O45   O     O_R   0.393720 0.228520 0.722140 -0.634005
O46   O     O_R   0.393720 0.228520 0.277860 -0.634007
O47   O     O_R   0.393720 0.771480 0.277860 -0.634070
O48   O     O_R   0.393720 0.771480 0.722140 -0.634072
O49   O     O_R   0.893720 0.728520 0.722140 -0.633992
O50   O     O_3   0.999990 0.750000 0.750000 -0.479262
O51   O     O_R   0.893720 0.728520 0.277860 -0.633979
O52   O     O_R   0.893720 0.271480 0.277860 -0.634078
O53   O     O_R   0.893720 0.271480 0.722140 -0.634066
O54   O     O_R   0.893720 0.228520 0.222140 -0.633996
O55   O     O_R   0.893720 0.228520 0.777860 -0.634009
O56   O     O_R   0.893720 0.771480 0.777860 -0.634066
O57   O     O_R   0.893720 0.771480 0.222140 -0.634081
O58   O     O_R   0.606280 0.728500 0.277860 -0.634140
O59   O     O_R   0.606280 0.728500 0.722140 -0.634140
O60   O     O_R   0.606280 0.271500 0.722140 -0.634194
O61   O     O_3   0.999990 0.750000 0.250000 -0.479245
O62   O     O_R   0.606280 0.271500 0.277860 -0.634196
O63   O     O_R   0.606280 0.228500 0.777860 -0.634140
O64   O     O_R   0.606280 0.228500 0.222140 -0.634143
O65   O     O_R   0.606280 0.771500 0.222140 -0.634199
O66   O     O_R   0.606280 0.771500 0.777860 -0.634194
O67   O     O_R   0.106280 0.728500 0.777860 -0.634139
O68   O     O_R   0.106280 0.728500 0.222140 -0.634136
O69   O     O_R   0.106280 0.271500 0.222140 -0.634196
O70   O     O_R   0.106280 0.271500 0.777860 -0.634194
O71   O     O_R   0.106280 0.228500 0.277860 -0.634143
O72   O     O_3   0.999990 0.250000 0.250000 -0.479243
O73   O     O_R   0.106280 0.228500 0.722140 -0.634148
O74   O     O_R   0.106280 0.771500 0.722140 -0.634201
O75   O     O_R   0.106280 0.771500 0.277860 -0.634203
O76   O     O_R   0.527850 0.771500 0.143710 -0.634406
O77   O     O_R   0.527850 0.771500 0.856290 -0.634407
O78   O     O_R   0.527850 0.228500 0.856290 -0.634283
O79   O     O_R   0.527850 0.228500 0.143710 -0.634283
O80   O     O_R   0.527850 0.271500 0.643710 -0.634410
O81   O     O_R   0.527850 0.271500 0.356290 -0.634409
O82   O     O_R   0.527850 0.728500 0.356290 -0.634281
O83   O     O_3   0.999990 0.250000 0.750000 -0.479258
O84   O     O_R   0.527850 0.728500 0.643710 -0.634283
O85   O     O_R   0.027850 0.771500 0.643710 -0.634405
O86   O     O_R   0.027850 0.771500 0.356290 -0.634409
O87   O     O_R   0.027850 0.228500 0.356290 -0.634290
O88   O     O_R   0.027850 0.228500 0.643710 -0.634279
O89   O     O_R   0.027850 0.271500 0.143710 -0.634392
O90   O     O_R   0.027850 0.271500 0.856290 -0.634390
O91   O     O_R   0.027850 0.728500 0.856290 -0.634270
O92   O     O_R   0.027850 0.728500 0.143710 -0.634279
O93   O     O_R   0.472140 0.668020 0.222150 -0.637034
O94   O     O_R   0.527870 0.668020 0.277880 -0.636600
O95   O     O_R   0.472140 0.668020 0.777850 -0.637035
O96   O     O_R   0.472140 0.331980 0.777850 -0.637953
O97   O     O_R   0.472140 0.331980 0.222150 -0.637943
O98   O     O_R   0.472140 0.168020 0.722150 -0.637043
O99   O     O_R   0.472140 0.168020 0.277850 -0.637040
O100  O     O_R   0.472140 0.831980 0.277850 -0.637973
O101  O     O_R   0.472140 0.831980 0.722150 -0.637978
O102  O     O_R   0.972140 0.668020 0.722150 -0.637050
O103  O     O_R   0.972140 0.668020 0.277850 -0.637066
O104  O     O_R   0.972140 0.331980 0.277850 -0.638050
Zn1   Zn    Zn3+2 0.539790 0.780710 0.210180 0.979557
Zn2   Zn    Zn3+2 0.039790 0.780710 0.289820 0.979542
Zn3   Zn    Zn3+2 0.039790 0.219290 0.289820 0.979406
Zn4   Zn    Zn3+2 0.039790 0.219290 0.710180 0.979427
Zn5   Zn    Zn3+2 0.039790 0.280710 0.210180 0.979563
Zn6   Zn    Zn3+2 0.039790 0.280710 0.789820 0.979576
Zn7   Zn    Zn3+2 0.039790 0.719290 0.789820 0.979425
Zn8   Zn    Zn3+2 0.039790 0.719290 0.210180 0.979411
Zn9   Zn    Zn3+2 0.460190 0.719300 0.210200 0.980235
Zn10  Zn    Zn3+2 0.460190 0.719300 0.789800 0.980237
Zn11  Zn    Zn3+2 0.460190 0.280700 0.789800 0.979379
Zn12  Zn    Zn3+2 0.539790 0.780710 0.789820 0.979566
Zn13  Zn    Zn3+2 0.460190 0.280700 0.210200 0.979382
Zn14  Zn    Zn3+2 0.460190 0.219300 0.710200 0.980239
Zn15  Zn    Zn3+2 0.460190 0.219300 0.289800 0.980238
Zn16  Zn    Zn3+2 0.460190 0.780700 0.289800 0.979368
Zn17  Zn    Zn3+2 0.460190 0.780700 0.710200 0.979368
Zn18  Zn    Zn3+2 0.960190 0.719300 0.710200 0.980249
Zn19  Zn    Zn3+2 0.960190 0.719300 0.289800 0.980246
Zn20  Zn    Zn3+2 0.960190 0.280700 0.289800 0.979341
Zn21  Zn    Zn3+2 0.960190 0.280700 0.710200 0.979368
Zn22  Zn    Zn3+2 0.960190 0.219300 0.210200 0.980242
Zn23  Zn    Zn3+2 0.539790 0.219290 0.789820 0.979421
Zn24  Zn    Zn3+2 0.960190 0.219300 0.789800 0.980249
Zn25  Zn    Zn3+2 0.960190 0.780700 0.789800 0.979397
Zn26  Zn    Zn3+2 0.960190 0.780700 0.210200 0.979359
Zn27  Zn    Zn3+2 0.539790 0.219290 0.210180 0.979414
Zn28  Zn    Zn3+2 0.539790 0.280710 0.710180 0.979557
Zn29  Zn    Zn3+2 0.539790 0.280710 0.289820 0.979551
Zn30  Zn    Zn3+2 0.539790 0.719290 0.289820 0.979421
Zn31  Zn    Zn3+2 0.539790 0.719290 0.710180 0.979424
Zn32  Zn    Zn3+2 0.039790 0.780710 0.710180 0.979558

loop_
_geom_bond_atom_site_label_1
_geom_bond_atom_site_label_2
_ccdc_geom_bond_type
C176  O12   A    
H15   N17   S    
O28   Zn14  S    
O80   Zn28  S    
C119  C167  S    
O52   Zn20  S    
C8    C26   T    
O90   Zn6   S    
C19   C20   S    
C166  C193  S    
C74   C83   T    
H22   N20   S    
C1    C146  S    
C35   O4    A    
C156  C185  S    
C177  N20   S    
C42   O84   A    
C177  H67   S    
H21   N20   S    
C13   C139  S    
C17   C206  T    
O94   Zn30  S    
C118  H74   S    
C60   C98   S    
H113  N3    S    
C106  C107  S    
O1    Zn30  S    
O4    Zn22  S    
C110  C111  S    
C53   O48   A    
H31   N25   S    
H119  N5    S    
O61   Zn26  S    
O72   Zn3   S    
O49   Zn18  S    
C112  O95   A    
C122  C170  S    
C134  C169  S    
C148  C201  T    
C105  H73   S    
O93   Zn9   S    
C16   C44   S    
O66   Zn12  S    
C88   C97   T    
C68   O22   A    
H17   N18   S    
C41   O30   A    
C21   C22   S    
O92   Zn8   S    
C54   O45   A    
C107  H35   S    
C147  C200  T    
O102  Zn18  S    
C150  C203  T    
H104  N30   S    
O83   Zn4   S    
O35   Zn21  S    
H33   N26   S    
O34   Zn20  S    
O70   Zn6   S    
H106  N31   S    
H116  N4    S    
C79   H38   S    
O83   Zn24  S    
C15   C32   T    
C38   O79   A    
O72   Zn20  S    
C123  C126  S    
C61   O58   A    
C165  O11   A    
O28   Zn23  S    
C82   C91   S    
H26   N22   S    
H102  N29   S    
O17   Zn17  S    
H23   N21   S    
C111  C160  S    
O40   Zn26  S    
C11   C49   S    
H4    N11   S    
O10   Zn23  S    
C115  C118  S    
C90   H39   S    
C163  C178  S    
C26   C27   S    
O103  Zn19  S    
C42   C207  S    
C62   O59   A    
H112  N2    S    
C167  C174  S    
C126  N31   S    
C186  H57   S    
O55   Zn24  S    
C173  N24   S    
C117  H84   S    
C184  N13   S    
O104  Zn20  S    
H8    N14   S    
O77   Zn12  S    
C48   O89   A    
C8    C50   S    
C1    O93   A    
C120  C168  S    
C173  H70   S    
O24   Zn10  S    
O11   Zn27  S    
H6    N13   S    
C161  C197  S    
O29   Zn15  S    
C119  H63   S    
O53   Zn21  S    
C135  N8    S    
C69   O70   A    
O79   Zn27  S    
O31   Zn17  S    
C52   O47   A    
C167  C192  S    
C53   O42   A    
C80   C88   S    
C66   O75   A    
C2    O15   A    
C182  N15   S    
C84   C93   S    
H128  N10   S    
O7    Zn26  S    
C39   O27   A    
H121  N6    S    
C86   C95   S    
C36   O77   A    
C182  H61   S    
C54   O43   A    
C165  O99   A    
C65   O67   A    
C122  H90   S    
C101  H40   S    
C66   O68   A    
C56   O49   A    
O61   Zn19  S    
O62   Zn29  S    
C78   C87   S    
C105  C153  S    
C41   O82   A    
C35   O19   A    
C50   O38   A    
C69   C77   S    
C138  C191  T    
C14   C31   T    
C128  C129  S    
C125  C160  S    
C127  N32   S    
C133  H53   S    
C59   O54   A    
C127  H47   S    
H7    N13   S    
O41   Zn9   S    
C132  O96   A    
C129  H49   S    
O100  Zn16  S    
C109  H24   S    
C164  C194  S    
C75   C84   T    
C170  C171  S    
C116  H96   S    
O37   Zn24  S    
C63   O60   A    
C112  C145  S    
O19   Zn3   S    
O8    Zn28  S    
C135  C170  S    
C65   O74   A    
O30   Zn16  S    
O44   Zn13  S    
H105  N30   S    
O5    Zn24  S    
C172  N25   S    
O17   Zn10  S    
C111  H80   S    
C68   C142  S    
C157  C184  S    
C158  C183  S    
H124  N8    S    
C130  N4    S    
C131  C167  S    
H115  N4    S    
C39   O80   A    
C56   C97   S    
O72   Zn22  S    
C130  H50   S    
O45   Zn14  S    
C160  C199  S    
C119  H87   S    
H12   N16   S    
C149  C165  S    
C120  H88   S    
C24   O3    A    
C133  C168  S    
C108  C157  S    
H19   N19   S    
C65   C74   S    
C45   O34   A    
O59   Zn31  S    
C18   C207  T    
O50   Zn25  S    
H20   N19   S    
C61   O65   A    
O67   Zn7   S    
C79   C153  S    
O1    Zn9   S    
O2    Zn31  S    
C39   C208  S    
C115  H82   S    
C17   C18   S    
C126  H46   S    
O97   Zn13  S    
C4    C37   S    
C181  N16   S    
C124  N29   S    
C105  H37   S    
C109  C114  S    
C183  N14   S    
C153  C205  S    
C109  H78   S    
C13   O104  A    
C127  C162  S    
O64   Zn27  S    
C68   O7    A    
C19   C208  T    
C162  C196  S    
C160  C181  S    
C120  C121  S    
O1    Zn16  S    
O17   Zn31  S    
O28   Zn11  S    
C59   O52   A    
C57   C144  S    
C13   O16   A    
C118  H86   S    
O26   Zn13  S    
O78   Zn23  S    
C60   O53   A    
O65   Zn1   S    
C171  N26   S    
O6    Zn25  S    
C144  C196  T    
O85   Zn32  S    
C89   C98   T    
C113  C157  S    
C79   C113  S    
C111  H2    S    
C15   C43   S    
C124  H44   S    
C37   O25   A    
C110  H13   S    
C43   O32   A    
H32   N26   S    
C76   C85   T    
O17   Zn12  S    
C63   C72   S    
C128  H48   S    
C62   C71   S    
O27   Zn14  S    
C55   O44   A    
C172  H71   S    
O39   Zn27  S    
C137  C190  T    
H10   N15   S    
C174  H69   S    
O50   Zn7   S    
H100  N28   S    
O82   Zn30  S    
C113  N27   S    
C184  H59   S    
O58   Zn30  S    
C91   C99   T    
C5    C38   S    
C156  C203  S    
C149  C202  T    
C171  H72   S    
C61   C70   S    
C187  O13   A    
C7    C36   S    
C116  C163  S    
C9    C51   S    
O89   Zn5   S    
C151  C204  T    
C56   O56   A    
O74   Zn32  S    
O20   Zn4   S    
C43   O85   A    
O76   Zn1   S    
C95   C104  T    
C151  C187  S    
C170  C189  S    
C52   C102  S    
C166  C175  S    
O46   Zn15  S    
O36   Zn22  S    
C34   O23   A    
C54   C104  S    
C28   C29   S    
C51   O40   A    
C181  H62   S    
O96   Zn11  S    
C30   C31   S    
H29   N24   S    
C47   O88   A    
C129  N3    S    
H11   N15   S    
C198  O102  A    
C69   O73   A    
C51   O92   A    
O1    Zn1   S    
C41   C206  S    
C49   O90   A    
O38   Zn25  S    
O39   Zn15  S    
C110  H79   S    
C107  H76   S    
H125  N8    S    
C62   O66   A    
C121  H89   S    
C142  C195  T    
C63   O63   A    
H122  N7    S    
C126  C161  S    
O57   Zn26  S    
C72   C81   T    
H30   N25   S    
C49   O37   A    
C81   C89   S    
H5    N11   S    
C117  C164  S    
C188  N9    S    
H103  N29   S    
C174  N22   S    
O86   Zn2   S    
O101  Zn17  S    
C48   O36   A    
H126  N9    S    
O72   Zn5   S    
C171  C174  S    
H111  N2    S    
O69   Zn5   S    
C180  N17   S    
H92   N1    S    
H27   N22   S    
C106  H36   S    
C42   O31   A    
O3    Zn21  S    
C101  C156  S    
C183  H60   S    
C6    C34   S    
C32   C33   S    
O28   Zn28  S    
H25   N21   S    
C34   O76   A    
C187  O101  A    
C44   O86   A    
C83   C92   S    
C130  C166  S    
O18   Zn6   S    
C179  N18   S    
C3    C20   T    
C143  O97   A    
C180  H64   S    
C67   O71   A    
C131  H51   S    
C3    C40   S    
C139  C192  T    
C10   C48   S    
C133  C134  S    
O88   Zn4   S    
C123  N28   S    
C73   C82   T    
C9    C27   T    
C46   C140  S    
C10   C28   T    
O12   Zn1   S    
O71   Zn3   S    
O23   Zn9   S    
C12   C30   T    
O83   Zn21  S    
C114  C161  S    
C93   C102  T    
C153  C188  S    
O54   Zn22  S    
C136  C189  T    
C7    C25   T    
O32   Zn18  S    
H16   N17   S    
O39   Zn29  S    
O25   Zn11  S    
C120  H52   S    
C186  N10   S    
H101  N28   S    
C57   O21   A    
C185  C186  S    
O39   Zn13  S    
O63   Zn23  S    
C133  N6    S    
O68   Zn8   S    
C159  C182  S    
H127  N9    S    
C60   O55   A    
O21   Zn32  S    
C58   O57   A    
C137  C198  S    
C129  C164  S    
H99   N27   S    
C177  C178  S    
C117  H85   S    
C179  H65   S    
C185  N11   S    
C128  N2    S    
C52   O41   A    
O61   Zn8   S    
C176  O100  A    
C46   O5    A    
O75   Zn2   S    
C121  C169  S    
C135  H55   S    
O73   Zn4   S    
C55   C103  S    
C70   C78   T    
C59   C99   S    
C123  H43   S    
C90   N12   S    
C44   O33   A    
C38   O26   A    
C143  C147  S    
C1    O94   A    
O43   Zn11  S    
C168  C191  S    
O99   Zn15  S    
O42   Zn10  S    
C131  C135  S    
H28   N24   S    
H94   N12   S    
C58   O51   A    
C64   O62   A    
C124  C159  S    
C181  C182  S    
C116  C117  S    
C106  H75   S    
C146  C199  T    
H93   N12   S    
C58   C96   S    
C175  H68   S    
C132  O8    A    
C108  H77   S    
C154  O10   A    
H114  N3    S    
C114  H118  S    
C125  N30   S    
C101  N23   S    
C66   C75   S    
C175  N21   S    
C163  C195  S    
C131  N5    S    
O13   Zn12  S    
C115  H107  S    
C107  C156  S    
C180  C183  S    
C40   O81   A    
C178  H66   S    
O9    Zn29  S    
C134  H54   S    
C178  N19   S    
C169  C190  S    
C109  C158  S    
C71   C80   T    
H97   N23   S    
C185  H58   S    
C168  C173  S    
C105  C108  S    
H95   N23   S    
C5    C22   T    
C132  C148  S    
C24   O18   A    
C152  C205  T    
O87   Zn3   S    
H9    N14   S    
O14   Zn7   S    
C175  C179  S    
C24   C138  S    
O22   Zn2   S    
C118  C166  S    
C128  C163  S    
C2    C136  S    
C113  H42   S    
C184  C188  S    
C57   O6    A    
H18   N18   S    
C152  C176  S    
C90   C101  S    
C145  C197  T    
C16   C33   T    
C85   C94   S    
O95   Zn10  S    
C121  H41   S    
O56   Zn25  S    
C64   C73   S    
C87   C96   T    
C198  O14   A    
C112  O2    A    
O98   Zn14  S    
C122  H1    S    
O91   Zn7   S    
C50   O91   A    
C161  C180  S    
C125  H45   S    
O61   Zn2   S    
O60   Zn28  S    
C162  C179  S    
O15   Zn8   S    
C35   C141  S    
H123  N7    S    
C77   C86   T    
O48   Zn17  S    
O33   Zn19  S    
O84   Zn31  S    
C46   O20   A    
H91   N1    S    
C169  C172  S    
C45   O87   A    
C155  C204  S    
H117  N5    S    
C172  C173  S    
C92   C100  T    
C79   N1    S    
C53   C100  S    
C140  C193  T    
C119  C122  S    
C158  C201  S    
C159  C200  S    
C114  H81   S    
C67   O69   A    
C55   O46   A    
C134  N7    S    
C12   C45   S    
C155  C186  S    
O16   Zn5   S    
C94   C103  T    
O83   Zn6   S    
H120  N6    S    
C14   C47   S    
C157  C202  S    
C123  C158  S    
C64   O64   A    
C108  H34   S    
C188  H56   S    
C116  H83   S    
O47   Zn16  S    
C115  C162  S    
C37   O78   A    
C127  C130  S    
C2    O103  A    
H108  N31   S    
C40   O29   A    
H14   N16   S    
C4    C21   T    
H98   N27   S    
C6    C23   T    
C36   O24   A    
C141  C194  T    
C23   C25   S    
O50   Zn32  S    
C47   O35   A    
O51   Zn19  S    
C110  C159  S    
O50   Zn18  S    
H110  N32   S    
C11   C29   T    
C154  O98   A    
C106  C155  S    
C150  C154  S    
H3    N10   S    
O81   Zn29  S    
C67   C76   S    
C143  O9    A    
C90   C155  S    
H109  N32   S    
C164  C177  S    
C124  C125  S    
