data_mof_unit_55825.cif
_audit_creation_date              2012-12-10T20:53:05-0500
_audit_creation_method            fapswitch 2.2
_symmetry_space_group_name_H-M    P1
_symmetry_Int_Tables_number       1
_space_group_crystal_system       triclinic
_cell_length_a                    18.340233
_cell_length_b                    18.344064
_cell_length_c                    18.340404
_cell_angle_alpha                 59.96902
_cell_angle_beta                  59.97784
_cell_angle_gamma                 59.997239
_cell_volume                      4361.24729716

loop_
_atom_site_label
_atom_site_type_symbol
_atom_type_description
_atom_site_fract_x
_atom_site_fract_y
_atom_site_fract_z
_atom_type_partial_charge
C1    C     C_R   0.389834 0.110165 0.110153 0.481059
C2    C     C_R   0.378721 0.796775 0.775396 -0.110068
C3    C     C_R   0.039744 0.523244 0.905730 0.002370
C4    C     C_R   0.478278 0.094131 0.960320 0.002643
C5    C     C_R   0.521703 0.905875 0.039676 0.003070
C6    C     C_R   0.945935 0.945971 0.554147 0.005411
C7    C     C_R   0.054056 0.054042 0.445885 0.005379
C8    C     C_R   0.945960 0.554137 0.945940 0.005184
C9    C     C_R   0.054022 0.445789 0.054069 0.007435
C10   C     C_R   0.554146 0.945949 0.945965 0.005677
C11   C     C_R   0.445849 0.054055 0.054032 0.005357
C12   C     C_3   0.954192 0.600440 0.228559 -0.119052
C13   C     C_R   0.202954 0.223087 0.622914 -0.110573
C14   C     C_3   0.052327 0.376733 0.788305 -0.128858
C15   C     C_3   0.625712 0.210797 0.947976 -0.128967
C16   C     C_3   0.375269 0.787696 0.052156 -0.127355
C17   C     C_3   0.211167 0.947438 0.624373 -0.128593
C18   C     C_3   0.786684 0.055503 0.376652 -0.129183
C19   C     C_R   0.798310 0.777993 0.379153 -0.104006
C20   C     C_R   0.179484 0.577819 0.290092 -0.139067
C21   C     C_R   0.822767 0.417602 0.708587 -0.146876
C22   C     C_R   0.581465 0.292158 0.178023 -0.146722
C23   C     C_R   0.418964 0.708346 0.821410 -0.145420
C24   C     C_R   0.291415 0.177237 0.582633 -0.146460
C25   C     C_R   0.709458 0.823920 0.418188 -0.146163
C26   C     C_R   0.091233 0.583973 0.315241 0.073607
C27   C     C_R   0.610166 0.889838 0.889845 0.480882
C28   C     C_R   0.909067 0.415817 0.684612 0.076558
C29   C     C_R   0.583955 0.315688 0.091556 0.076707
C30   C     C_R   0.416057 0.684363 0.908165 0.076442
C31   C     C_R   0.315290 0.091039 0.584295 0.076481
C32   C     C_R   0.684772 0.910648 0.415608 0.075838
C33   C     C_R   0.049433 0.628475 0.250279 0.313523
C34   C     C_R   0.949689 0.374672 0.750063 0.324190
C35   C     C_R   0.625722 0.250008 0.051121 0.323826
C36   C     C_R   0.373813 0.749732 0.949081 0.322786
C37   C     C_R   0.249805 0.050458 0.625374 0.323971
C38   C     C_R   0.110173 0.110151 0.389841 0.480771
C39   C     C_R   0.749779 0.951743 0.374816 0.323002
C40   C     C_R   0.095788 0.670399 0.161297 -0.101970
C41   C     C_R   0.903114 0.331792 0.839151 -0.109640
C42   C     C_R   0.668572 0.161152 0.098064 -0.109875
C43   C     C_R   0.330935 0.838668 0.902387 -0.109384
C44   C     C_R   0.160761 0.097012 0.668304 -0.109553
C45   C     C_R   0.839220 0.905214 0.332802 -0.110117
C46   C     C_R   0.183555 0.663991 0.137051 -0.130529
C47   C     C_R   0.817241 0.333978 0.862091 -0.130298
C48   C     C_R   0.665739 0.138666 0.184072 -0.130026
C49   C     C_R   0.889820 0.889857 0.610162 0.480778
C50   C     C_R   0.334191 0.861617 0.816091 -0.130397
C51   C     C_R   0.137935 0.182774 0.666266 -0.130490
C52   C     C_R   0.862902 0.818862 0.335833 -0.124492
C53   C     C_R   0.989481 0.590732 0.464851 -0.140914
C54   C     C_R   0.010484 0.409342 0.535000 -0.143013
C55   C     C_R   0.590596 0.465125 0.989702 -0.142678
C56   C     C_R   0.409499 0.534794 0.009749 -0.143987
C57   C     C_R   0.464915 0.989729 0.590772 -0.143189
C58   C     C_R   0.535030 0.011201 0.409227 -0.142788
C59   C     C_R   0.944904 0.552496 0.555017 0.022682
C60   C     C_R   0.110139 0.389820 0.110185 0.480219
C61   C     C_R   0.055112 0.447546 0.444890 0.018309
C62   C     C_R   0.552474 0.555094 0.944752 0.023231
C63   C     C_R   0.447571 0.444880 0.054880 0.022751
C64   C     C_R   0.555060 0.945396 0.552449 0.023228
C65   C     C_R   0.444849 0.055358 0.447570 0.023540
C66   C     C_R   0.955515 0.460591 0.590539 0.008360
C67   C     C_R   0.044473 0.539467 0.409298 0.004791
C68   C     C_R   0.460717 0.590411 0.954871 0.007929
C69   C     C_R   0.539345 0.409556 0.044669 0.008415
C70   C     C_R   0.590606 0.956497 0.460425 0.008416
C71   C     C_R   0.889851 0.610171 0.889822 0.480789
C72   C     C_R   0.409334 0.044644 0.539525 0.008429
C73   C     C_R   0.110697 0.390399 0.389762 0.499815
C74   C     C_R   0.889311 0.609602 0.610217 0.505209
C75   C     C_R   0.390410 0.389746 0.110656 0.505976
C76   C     C_R   0.609596 0.610255 0.889256 0.505043
C77   C     C_R   0.389734 0.110762 0.390420 0.506160
C78   C     C_R   0.610232 0.889464 0.609588 0.505511
C79   C     C_R   0.188129 0.919415 0.454667 -0.111707
C80   C     C_R   0.811847 0.080621 0.545638 -0.112120
C81   C     C_R   0.919256 0.453057 0.188270 -0.114136
C82   C     C_R   0.225598 0.617162 0.201179 -0.106482
C83   C     C_R   0.080680 0.546267 0.811760 -0.111484
C84   C     C_R   0.456645 0.187978 0.919427 -0.111839
C85   C     C_R   0.543312 0.812029 0.080568 -0.111752
C86   C     C_R   0.226767 0.826884 0.486241 -0.132626
C87   C     C_R   0.773206 0.173159 0.514149 -0.132939
C88   C     C_R   0.826689 0.484178 0.226975 -0.131874
C89   C     C_R   0.173252 0.515163 0.773058 -0.132189
C90   C     C_R   0.489175 0.226561 0.826929 -0.133008
C91   C     C_R   0.510761 0.773448 0.173064 -0.132566
C92   C     C_R   0.173109 0.773316 0.540622 -0.121622
C93   C     C_R   0.776870 0.377392 0.797115 -0.110470
C94   C     C_R   0.826870 0.226719 0.459662 -0.122100
C95   C     C_R   0.773144 0.538813 0.173318 -0.119373
C96   C     C_R   0.226816 0.460829 0.826701 -0.121792
C97   C     C_R   0.543623 0.172914 0.773397 -0.121868
C98   C     C_R   0.456323 0.827094 0.226596 -0.121264
C99   C     C_R   0.080533 0.811966 0.563388 -0.092314
C100  C     C_R   0.919454 0.188056 0.436743 -0.092646
C101  C     C_R   0.811860 0.562264 0.080676 -0.091540
C102  C     C_R   0.188117 0.437613 0.919331 -0.092156
C103  C     C_R   0.565464 0.080411 0.812041 -0.092344
C104  C     C_R   0.621640 0.203848 0.224270 -0.110460
C105  C     C_R   0.434509 0.919595 0.187953 -0.092135
C106  C     C_R   0.039687 0.905825 0.532047 0.009925
C107  C     C_R   0.960302 0.094193 0.468036 0.010071
C108  C     C_R   0.905763 0.531426 0.039760 0.010408
C109  C     C_R   0.094216 0.468447 0.960248 0.010276
C110  C     C_R   0.533112 0.039619 0.905861 0.010051
C111  C     C_R   0.466873 0.960385 0.094135 0.010111
C112  C     C_R   0.094211 0.960302 0.477248 0.002461
C113  C     C_R   0.905774 0.039720 0.522884 0.002478
C114  C     C_R   0.960223 0.476475 0.094287 0.005170
H1    H     H_    0.796666 0.298567 0.435155 0.102689
H2    H     H_    0.339594 0.561939 0.016093 0.136117
H3    H     H_    0.437558 0.982772 0.660883 0.136404
H4    H     H_    0.562441 0.018114 0.339125 0.136789
H5    H     H_    0.232580 0.958357 0.412651 0.109923
H6    H     H_    0.767392 0.041684 0.587726 0.109522
H7    H     H_    0.958163 0.410699 0.232734 0.100628
H8    H     H_    0.041747 0.588267 0.767316 0.109599
H9    H     H_    0.414603 0.232419 0.958340 0.110367
H10   H     H_    0.585352 0.767587 0.041656 0.109656
H11   H     H_    0.298656 0.796669 0.468544 0.102599
H12   H     H_    0.203309 0.701472 0.565182 0.103552
H13   H     H_    0.701309 0.203383 0.531973 0.102325
H14   H     H_    0.796425 0.465887 0.298917 0.099880
H15   H     H_    0.203505 0.533197 0.701130 0.102527
H16   H     H_    0.472164 0.298400 0.796717 0.102969
H17   H     H_    0.527752 0.701611 0.203274 0.102752
H18   H     H_    0.041537 0.767567 0.605633 0.109314
H19   H     H_    0.958454 0.232451 0.394443 0.108155
H20   H     H_    0.767475 0.604640 0.041683 0.109020
H21   H     H_    0.232513 0.395395 0.958315 0.109948
H22   H     H_    0.607752 0.041432 0.767661 0.109483
H23   H     H_    0.298695 0.436637 0.796447 0.103873
H24   H     H_    0.392225 0.958574 0.232334 0.109495
H25   H     H_    0.218748 0.695682 0.068421 0.139184
H26   H     H_    0.782139 0.301686 0.930514 0.139841
H27   H     H_    0.698048 0.070420 0.219406 0.140406
H28   H     H_    0.301849 0.929938 0.780927 0.139764
H29   H     H_    0.069563 0.217843 0.698626 0.139101
H30   H     H_    0.931640 0.783766 0.304404 0.143997
H31   H     H_    0.293862 0.611499 0.182227 0.168703
H32   H     H_    0.710077 0.379687 0.815082 0.170248
H33   H     H_    0.618779 0.186231 0.291191 0.170840
H34   H     H_    0.701265 0.563003 0.203574 0.103531
H35   H     H_    0.381825 0.814783 0.708272 0.169525
H36   H     H_    0.185073 0.289792 0.620731 0.170756
H37   H     H_    0.816740 0.710713 0.382550 0.173419
H38   H     H_    0.212614 0.542004 0.339365 0.101697
H39   H     H_    0.790969 0.450656 0.658592 0.101356
H40   H     H_    0.547911 0.342331 0.209668 0.101895
H41   H     H_    0.452865 0.658439 0.789375 0.102126
H42   H     H_    0.341446 0.208990 0.549639 0.102549
H43   H     H_    0.659816 0.791666 0.451301 0.101797
H44   H     H_    0.063939 0.708558 0.110879 0.104330
H45   H     H_    0.431003 0.796939 0.298412 0.103864
H46   H     H_    0.932580 0.296205 0.891174 0.093621
H47   H     H_    0.704641 0.108947 0.068806 0.094238
H48   H     H_    0.294495 0.890529 0.932143 0.094155
H49   H     H_    0.108665 0.067640 0.703842 0.093427
H50   H     H_    0.891005 0.934968 0.297445 0.093599
H51   H     H_    0.004915 0.533298 0.228583 0.163430
H52   H     H_    0.958324 0.646866 0.159202 0.122833
H53   H     H_    0.887553 0.592512 0.261739 0.135910
H54   H     H_    0.069431 0.308867 0.837658 0.116047
H55   H     H_    0.995467 0.425393 0.821824 0.155142
H56   H     H_    0.568928 0.203071 0.701580 0.103740
H57   H     H_    0.111259 0.398487 0.755485 0.144761
H58   H     H_    0.577177 0.176868 0.004499 0.154788
H59   H     H_    0.693949 0.161906 0.931271 0.116215
H60   H     H_    0.604713 0.243103 0.888640 0.145125
H61   H     H_    0.307758 0.837746 0.068527 0.116788
H62   H     H_    0.424754 0.820398 0.995573 0.154505
H63   H     H_    0.396304 0.754707 0.111566 0.144833
H64   H     H_    0.177037 0.004103 0.576092 0.154674
H65   H     H_    0.162411 0.930202 0.692638 0.116270
H66   H     H_    0.243716 0.888440 0.602832 0.145179
H67   H     H_    0.982826 0.660732 0.437523 0.136558
H68   H     H_    0.836209 0.072491 0.308856 0.116781
H69   H     H_    0.820015 0.999162 0.425711 0.154412
H70   H     H_    0.753294 0.114782 0.397931 0.144673
H71   H     H_    0.017250 0.339293 0.562376 0.136626
H72   H     H_    0.660547 0.437909 0.983254 0.136399
O1    O     O_3   0.250000 0.250000 0.250000 -0.438044
O2    O     O_R   0.865800 0.694910 0.573470 -0.550051
O3    O     O_R   0.305090 0.426530 0.134200 -0.548311
O4    O     O_R   0.694910 0.573470 0.865800 -0.549406
O5    O     O_R   0.426530 0.134200 0.305090 -0.549433
O6    O     O_R   0.573470 0.865800 0.694910 -0.549307
O7    O     O_R   0.134190 0.426530 0.134200 -0.563231
O8    O     O_R   0.865810 0.573470 0.865800 -0.558338
O9    O     O_R   0.426530 0.134200 0.134190 -0.557275
O10   O     O_R   0.573470 0.865800 0.865810 -0.558139
O11   O     O_R   0.134200 0.134190 0.426530 -0.557950
O12   O     O_3   0.750000 0.750000 0.750000 -0.439315
O13   O     O_R   0.865800 0.865810 0.573470 -0.557491
O14   O     O_R   0.426530 0.305080 0.134210 -0.530552
O15   O     O_R   0.573470 0.694920 0.865790 -0.531884
O16   O     O_R   0.305080 0.134210 0.426530 -0.530497
O17   O     O_R   0.694920 0.865790 0.573470 -0.531555
O18   O     O_R   0.134210 0.426530 0.305080 -0.545301
O19   O     O_R   0.865790 0.573470 0.694920 -0.530835
O20   O     O_3   0.961552 0.635550 0.276719 -0.609037
O21   O     O_3   0.035750 0.374515 0.722283 -0.599619
O22   O     O_3   0.626447 0.277407 0.964905 -0.599940
O23   O     O_R   0.305080 0.134200 0.134200 -0.538695
O24   O     O_3   0.372364 0.722065 0.035614 -0.600105
O25   O     O_3   0.277576 0.964481 0.625361 -0.599569
O26   O     O_3   0.721298 0.038027 0.374390 -0.600519
O27   O     O_R   0.694920 0.865800 0.865800 -0.538403
O28   O     O_R   0.134200 0.134200 0.305080 -0.538750
O29   O     O_R   0.865800 0.865800 0.694920 -0.538717
O30   O     O_R   0.134200 0.305080 0.134200 -0.538209
O31   O     O_R   0.865800 0.694920 0.865800 -0.538007
O32   O     O_R   0.134200 0.305090 0.426530 -0.546971
Zn1   Zn    Zn3+2 0.206620 0.206630 0.380140 0.922717
Zn2   Zn    Zn3+2 0.793380 0.793370 0.619860 0.922889
Zn3   Zn    Zn3+2 0.206630 0.380140 0.206620 0.912909
Zn4   Zn    Zn3+2 0.793370 0.619860 0.793380 0.923019
Zn5   Zn    Zn3+2 0.380140 0.206620 0.206630 0.924549
Zn6   Zn    Zn3+2 0.619860 0.793380 0.793370 0.922620
Zn7   Zn    Zn3+2 0.206620 0.206620 0.206620 0.923398
Zn8   Zn    Zn3+2 0.793380 0.793380 0.793380 0.924920

loop_
_geom_bond_atom_site_label_1
_geom_bond_atom_site_label_2
_ccdc_geom_bond_type
C17   H64   S    
C10   C27   S    
C24   H42   S    
C80   H6    S    
C22   C29   A    
C23   H41   S    
O18   Zn3   S    
C18   O26   S    
C1    C11   S    
C77   O16   A    
C12   H53   S    
C87   H13   S    
C53   C59   A    
C42   H47   S    
C22   C104  A    
C106  C112  A    
C75   O14   A    
C16   H63   S    
C84   H9    S    
C40   C46   A    
C52   H30   S    
C98   C105  A    
C20   C26   A    
C99   H18   S    
C103  C110  A    
C26   C67   S    
C40   H44   S    
O12   Zn4   S    
C45   H50   S    
C49   O13   A    
C13   H36   S    
C102  C109  A    
C80   C87   A    
C20   C82   A    
O4    Zn4   S    
C59   C66   A    
C12   H52   S    
O1    Zn7   S    
O3    Zn3   S    
C32   C39   A    
C91   H17   S    
C96   C102  A    
C18   H68   S    
C48   C104  A    
C87   C94   A    
O19   Zn4   S    
C58   H4    S    
C89   H15   S    
C7    C112  A    
C85   H10   S    
C55   H72   S    
C108  C114  A    
C48   H27   S    
C35   C42   A    
O28   Zn7   S    
C102  H21   S    
C37   O25   S    
O27   Zn8   S    
C2    C50   A    
C105  H24   S    
C13   C51   A    
C19   C52   A    
C107  C113  A    
C63   C69   A    
C8    C71   S    
C54   H71   S    
C79   H5    S    
C81   C114  A    
C73   O32   A    
C19   H37   S    
C44   H49   S    
C64   C70   A    
O10   Zn6   S    
C90   C97   A    
C74   O2    A    
C15   O22   S    
C89   C96   A    
O31   Zn8   S    
C39   C45   A    
C5    C85   A    
C25   C32   A    
C17   H65   S    
C101  C108  A    
O7    Zn3   S    
C105  C111  A    
C88   C95   A    
C28   C34   A    
C91   C98   A    
C46   C82   A    
C14   O21   S    
C86   H11   S    
C104  H33   S    
C62   C76   S    
C34   C41   A    
C84   C90   A    
C38   O28   A    
C14   H55   S    
C53   C67   A    
O8    Zn4   S    
C8    C108  A    
C41   C47   A    
C60   O7    A    
C29   C69   S    
O2    Zn2   S    
C9    C109  A    
C83   C89   A    
C73   O18   A    
C33   O20   S    
C56   C63   A    
C33   C40   A    
C65   C77   S    
C15   H59   S    
C1    O23   A    
C77   O5    A    
C23   C30   A    
C78   O6    A    
C78   O17   A    
O6    Zn6   S    
C3    C8    A    
C96   H23   S    
C76   O15   A    
C58   C70   A    
C71   O8    A    
C32   C70   S    
O1    Zn3   S    
C45   C52   A    
C61   C73   S    
C101  H20   S    
C11   C111  A    
C97   H56   S    
C20   H38   S    
C13   C24   A    
C3    C109  A    
C12   O20   S    
O16   Zn1   S    
C47   H26   S    
C28   C66   S    
C103  H22   S    
C6    C113  A    
C53   H67   S    
C97   C103  A    
C41   H46   S    
C94   C100  A    
C61   C67   A    
C58   C65   A    
C4    C84   A    
C18   H70   S    
O1    Zn5   S    
C6    C106  A    
C38   O11   A    
C93   H32   S    
C42   C48   A    
C98   H45   S    
C4    C11   A    
C59   C74   S    
C55   C69   A    
C79   C112  A    
C16   H61   S    
C55   C62   A    
C31   C72   S    
C21   C28   A    
O17   Zn2   S    
C51   H29   S    
C25   H43   S    
O12   Zn6   S    
O1    Zn1   S    
C7    C107  A    
C21   C93   A    
C9    C114  A    
C14   H54   S    
C85   C91   A    
O5    Zn5   S    
C12   H51   S    
C82   H31   S    
C100  H19   S    
C44   C51   A    
C57   C64   A    
C57   H3    S    
C22   H40   S    
C99   C106  A    
C4    C110  A    
C100  C107  A    
C47   C93   A    
C15   H60   S    
C1    O9    A    
O14   Zn5   S    
C64   C78   S    
O12   Zn2   S    
O13   Zn2   S    
C14   H57   S    
C17   O25   S    
C92   H12   S    
O12   Zn8   S    
C94   H1    S    
C43   C50   A    
C54   C66   A    
C54   C61   A    
C17   H66   S    
C34   O21   S    
C65   C72   A    
C5    C111  A    
C49   O29   A    
C29   C35   A    
C95   C101  A    
O30   Zn7   S    
C71   O31   A    
C30   C36   A    
C83   H8    S    
O29   Zn8   S    
C9    C60   S    
C37   C44   A    
C16   O24   S    
C60   O30   A    
C24   C31   A    
C5    C10   A    
O23   Zn7   S    
C56   C68   A    
O9    Zn5   S    
C16   H62   S    
O32   Zn1   S    
C63   C75   S    
C18   H69   S    
C2    H35   S    
C7    C38   S    
C15   H58   S    
C10   C110  A    
C3    C83   A    
C62   C68   A    
C6    C49   S    
C39   O26   S    
C75   O3    A    
C81   C88   A    
C76   O4    A    
C19   C25   A    
C90   H16   S    
C43   H48   S    
C31   C37   A    
C35   O22   S    
C95   H34   S    
C80   C113  A    
C92   C99   A    
C88   H14   S    
C81   H7    S    
C2    C23   A    
C27   O27   A    
C57   C72   A    
C21   H39   S    
C36   C43   A    
C86   C92   A    
C27   O10   A    
O15   Zn6   S    
O11   Zn1   S    
C79   C86   A    
C30   C68   S    
C56   H2    S    
C50   H28   S    
C26   C33   A    
C36   O24   S    
C46   H25   S    
C74   O19   A    
