data_mof_unit_37861.cif
_audit_creation_date              2012-10-26T21:08:10-0400
_audit_creation_method            fapswitch 2.2
_symmetry_space_group_name_H-M    P1
_symmetry_Int_Tables_number       1
_space_group_crystal_system       triclinic
_cell_length_a                    15.838488
_cell_length_b                    10.774691
_cell_length_c                    9.626689
_cell_angle_alpha                 90.635291
_cell_angle_beta                  88.812878
_cell_angle_gamma                 90.340232
_cell_volume                      1642.36047232

loop_
_atom_site_label
_atom_site_type_symbol
_atom_type_description
_atom_site_fract_x
_atom_site_fract_y
_atom_site_fract_z
_atom_type_partial_charge
C1    C     C_R   0.497363 0.262788 0.499578 0.544111
C2    C     C_R   0.297766 0.065367 0.717455 -0.120274
C3    C     C_R   0.298212 0.936304 0.718940 -0.118476
C4    C     C_R   0.339986 0.500145 0.501217 0.524754
C5    C     C_R   0.361953 0.871022 0.648476 -0.101167
C6    C     C_R   0.427579 0.934582 0.576537 0.028889
C7    C     C_R   0.427124 0.065864 0.574993 0.026673
C8    C     C_R   0.491417 0.128881 0.499050 0.002379
C9    C     C_R   0.552419 0.063432 0.422222 -0.134041
C10   C     C_R   0.552716 0.935441 0.423344 -0.152462
C11   C     C_R   0.492220 0.870930 0.501836 0.004458
C12   C     C_3   0.082747 0.504461 0.504125 -0.007897
C13   C     C_R   0.653497 0.537117 0.117155 0.290448
C14   C     C_R   0.710137 0.625419 0.063270 -0.112865
C15   C     C_R   0.692831 0.681530 0.937252 -0.196270
C16   C     C_R   0.497527 0.737145 0.500700 0.520432
C17   C     C_R   0.622236 0.642611 0.863313 -0.085180
C18   C     C_R   0.562872 0.560888 0.925052 0.155172
C19   C     C_R   0.570243 0.538618 0.069199 0.152076
C20   C     C_R   0.433855 0.454331 0.075544 0.009615
C21   C     C_R   0.435958 0.448368 0.927480 0.006462
C22   C     C_R   0.659968 0.501455 0.499172 0.557035
C23   C     C_3   0.970969 0.587469 0.599054 -0.154039
C24   C     C_3   0.970366 0.391248 0.533511 -0.138210
C25   C     C_3   0.028988 0.422934 0.407603 -0.069781
C26   C     C_1   0.250160 0.501483 0.503845 -0.032252
C27   C     C_1   0.749722 0.504471 0.498684 0.038336
C28   C     C_3   0.025737 0.472517 0.629996 -0.118980
C29   C     C_3   0.917017 0.506111 0.502776 0.055802
C30   C     C_3   0.029673 0.619659 0.473266 -0.087552
C31   C     C_3   0.974669 0.537509 0.378995 0.435638
C32   C     C_1   0.174501 0.502886 0.504654 -0.052669
C33   C     C_1   0.825335 0.506074 0.500409 0.028962
C34   C     C_R   0.361049 0.129991 0.645472 -0.103599
Cu1   Cu    Cu3+1 0.499990 0.499990 0.640660 0.949443
Cu2   Cu    Cu3+1 0.500010 0.500010 0.359340 1.007921
F1    F     F_    0.946741 0.571031 0.249616 -0.614949
H1    H     H_    0.053713 0.356276 0.328180 0.126977
H2    H     H_    0.944777 0.297812 0.558605 0.132287
H3    H     H_    0.055007 0.713035 0.447250 0.123389
H4    H     H_    0.945870 0.654544 0.677719 0.129258
H5    H     H_    0.048276 0.445599 0.733801 0.140259
H6    H     H_    0.601442 0.111703 0.363932 0.180848
H7    H     H_    0.356521 0.230012 0.643727 0.126417
H8    H     H_    0.247577 0.115654 0.770878 0.113741
H9    H     H_    0.748653 0.252663 0.986523 0.365119
H10   H     H_    0.248363 0.886453 0.773518 0.119326
H11   H     H_    0.358156 0.770858 0.649208 0.140563
H12   H     H_    0.601571 0.886296 0.364906 0.129152
H13   H     H_    0.379968 0.416028 0.131246 0.122034
H14   H     H_    0.772822 0.635022 0.105069 0.190651
H15   H     H_    0.738335 0.744503 0.890264 0.134314
H16   H     H_    0.615479 0.679130 0.761182 0.174624
H17   H     H_    0.384173 0.404529 0.873880 0.112223
N1    N     N_R   0.500800 0.501210 0.147910 -0.240682
N2    N     N_R   0.500830 0.501290 0.852040 -0.232625
O1    O     O_R   0.499990 0.319640 0.618810 -0.492413
O2    O     O_2   0.638004 0.299028 0.199781 -0.283884
O3    O     O_3   0.724207 0.335902 0.972623 -0.516699
O4    O     O_R   0.500000 0.319660 0.381240 -0.457882
O5    O     O_R   0.379070 0.499980 0.618770 -0.523354
O6    O     O_R   0.379080 0.500000 0.381190 -0.507489
O7    O     O_R   0.500000 0.680340 0.618760 -0.534157
O8    O     O_R   0.500010 0.680360 0.381190 -0.504303
O9    O     O_R   0.620920 0.500000 0.618810 -0.502518
O10   O     O_R   0.620930 0.500020 0.381230 -0.460547
O11   O     O_2   0.778395 0.396309 0.216084 -0.272362
S1    S     S_3+6 0.699183 0.388399 0.133324 0.029792

loop_
_geom_bond_atom_site_label_1
_geom_bond_atom_site_label_2
_ccdc_geom_bond_type
C25   C31   S    
C21   N2    A    
C4    C26   S    
C24   C25   S    
C22   O9    A    
C26   C32   T    
C6    C7    A    
C4    O5    A    
C16   O7    A    
C1    O1    A    
O3    S1    S    
C1    C8    S    
C16   O8    A    
C9    C10   A    
C14   H14   S    
C23   H4    S    
C18   N2    A    
C12   C25   S    
Cu1   O1    S    
C4    O6    A    
C2    C34   A    
C14   C15   A    
C17   C18   A    
C3    C5    A    
C30   H3    S    
C7    C8    A    
Cu1   O5    S    
Cu2   N1    S    
Cu2   O8    S    
C15   H15   S    
C27   C33   T    
C30   C31   S    
C5    C6    A    
C12   C28   S    
C20   N1    A    
Cu2   O6    S    
C23   C29   S    
C3    H10   S    
C5    H11   S    
C2    C3    A    
C22   C27   S    
C2    H8    S    
C21   H17   S    
C25   H1    S    
C7    C34   A    
Cu2   O10   S    
C9    H6    S    
C10   C11   A    
C13   C19   A    
C19   N1    A    
O11   S1    D    
C23   C30   S    
C17   H16   S    
C24   H2    S    
C34   H7    S    
C20   C21   A    
H9    O3    S    
C29   C31   S    
C18   C19   A    
C11   C16   S    
C1    O4    A    
O2    S1    D    
C6    C11   A    
C15   C17   A    
Cu1   O9    S    
C24   C29   S    
C22   O10   A    
C20   H13   S    
C28   H5    S    
C13   C14   A    
C12   C30   S    
Cu1   N2    S    
C23   C28   S    
C10   H12   S    
Cu1   O7    S    
C13   S1    S    
C12   C32   S    
C24   C28   S    
C29   C33   S    
C31   F1    S    
C8    C9    A    
Cu2   O4    S    
Cu1   Cu2   S    
