data_mof_unit_8782.cif
_audit_creation_date              2012-10-26T17:12:35-0400
_audit_creation_method            fapswitch 2.2
_symmetry_space_group_name_H-M    P1
_symmetry_Int_Tables_number       1
_space_group_crystal_system       triclinic
_cell_length_a                    16.80586
_cell_length_b                    16.683117
_cell_length_c                    16.762942
_cell_angle_alpha                 67.843916
_cell_angle_beta                  67.662135
_cell_angle_gamma                 67.462226
_cell_volume                      3865.03571487

loop_
_atom_site_label
_atom_site_type_symbol
_atom_type_description
_atom_site_fract_x
_atom_site_fract_y
_atom_site_fract_z
_atom_type_partial_charge
Br1   Br    Br    0.535626 0.829173 0.838792 -0.503998
Br2   Br    Br    0.394223 0.758191 0.181790 -0.424696
Br3   Br    Br    0.845439 0.630376 0.228800 -0.468370
Br4   Br    Br    0.154561 0.369624 0.771200 -0.468370
Br5   Br    Br    0.464374 0.170827 0.161207 -0.503999
Br6   Br    Br    0.157242 0.769124 0.372982 -0.412671
Br7   Br    Br    0.842757 0.230876 0.627018 -0.412670
Br8   Br    Br    0.838431 0.534735 0.830876 -0.510362
Br9   Br    Br    0.161568 0.465267 0.169123 -0.510363
Br10  Br    Br    0.244092 0.819305 0.604263 -0.460272
Br11  Br    Br    0.755908 0.180696 0.395738 -0.460273
Br12  Br    Br    0.605777 0.241809 0.818210 -0.424696
C1    C     C_R   0.029279 0.827870 0.564207 0.581774
C2    C     C_R   0.030151 0.563836 0.827832 0.591178
C3    C     C_R   0.171954 0.970135 0.435646 0.586853
C4    C     C_R   0.828046 0.029865 0.564354 0.586853
C5    C     C_R   0.522200 0.924118 0.732109 0.167000
C6    C     C_R   0.477800 0.075882 0.267890 0.167001
C7    C     C_R   0.070614 0.703297 0.449909 0.178161
C8    C     C_R   0.929386 0.296703 0.550091 0.178161
C9    C     C_R   0.732092 0.520997 0.925533 0.172541
C10   C     C_R   0.267908 0.479002 0.074468 0.172541
C11   C     C_R   0.313163 0.905137 0.541802 0.173329
C12   C     C_R   0.970721 0.172130 0.435793 0.581774
C13   C     C_R   0.686836 0.094866 0.458198 0.173329
C14   C     C_R   0.542523 0.313013 0.902856 0.181319
C15   C     C_R   0.457477 0.686986 0.097145 0.181319
C16   C     C_R   0.930781 0.551470 0.295936 0.198705
C17   C     C_R   0.069219 0.448529 0.704063 0.198705
C18   C     C_R   0.549954 0.007054 0.547639 0.029680
C19   C     C_R   0.450045 0.992948 0.452361 0.029680
C20   C     C_R   0.023954 0.542390 0.542814 0.035077
C21   C     C_R   0.976046 0.457610 0.457186 0.035077
C22   C     C_R   0.547547 0.549314 0.008338 0.037090
C23   C     C_R   0.831608 0.570539 0.012892 0.586555
C24   C     C_R   0.452453 0.450686 0.991663 0.037090
C25   C     C_R   0.567932 0.045885 0.453946 -0.004670
C26   C     C_R   0.432067 0.954118 0.546054 -0.004670
C27   C     C_R   0.013862 0.454653 0.586051 0.004239
C28   C     C_R   0.986138 0.545347 0.413949 0.004239
C29   C     C_R   0.453701 0.568050 0.046705 -0.001530
C30   C     C_R   0.546298 0.431949 0.953296 -0.001530
C31   C     C_R   0.516581 0.040051 0.406344 -0.002834
C32   C     C_R   0.483417 0.959952 0.593656 -0.002834
C33   C     C_R   0.406216 0.517246 0.039647 -0.001281
C34   C     C_R   0.168392 0.429461 0.987108 0.586555
C35   C     C_R   0.593784 0.482754 0.960354 -0.001281
C36   C     C_R   0.985190 0.414122 0.545026 -0.006052
C37   C     C_R   0.014810 0.585878 0.454974 -0.006052
C38   C     C_R   0.474822 0.915116 0.685217 -0.089635
C39   C     C_R   0.525178 0.084885 0.314782 -0.089633
C40   C     C_R   0.044479 0.663551 0.407581 -0.101392
C41   C     C_R   0.955521 0.336449 0.592419 -0.101392
C42   C     C_R   0.685411 0.473753 0.915814 -0.087528
C43   C     C_R   0.314589 0.526247 0.084187 -0.087528
C44   C     C_R   0.363707 0.909717 0.588743 -0.094390
C45   C     C_R   0.570460 0.012574 0.831790 0.591247
C46   C     C_R   0.636291 0.090286 0.411257 -0.094390
C47   C     C_R   0.589320 0.363216 0.908354 -0.082306
C48   C     C_R   0.410679 0.636784 0.091648 -0.082306
C49   C     C_R   0.957387 0.593283 0.335908 -0.077550
C50   C     C_R   0.042614 0.406716 0.664091 -0.077551
C51   C     C_R   0.576472 0.983287 0.690403 0.018647
C52   C     C_R   0.423528 0.016713 0.309597 0.018647
C53   C     C_R   0.053848 0.674670 0.544408 0.020390
C54   C     C_R   0.946152 0.325329 0.455592 0.020390
C55   C     C_R   0.690216 0.575355 0.985241 0.028490
C56   C     C_R   0.429540 0.987426 0.168210 0.591246
C57   C     C_R   0.309784 0.424644 0.014760 0.028490
C58   C     C_R   0.326434 0.948814 0.449508 0.022815
C59   C     C_R   0.673565 0.051187 0.550492 0.022815
C60   C     C_R   0.450064 0.327313 0.945715 0.042454
C61   C     C_R   0.549935 0.672687 0.054285 0.042454
C62   C     C_R   0.946396 0.456540 0.324733 0.048830
C63   C     C_R   0.053604 0.543460 0.675267 0.048830
C64   C     C_R   0.613431 0.008613 0.737703 -0.003267
C65   C     C_R   0.386569 0.991387 0.262296 -0.003267
C66   C     C_R   0.048287 0.727923 0.597026 0.007592
C67   C     C_R   0.436384 0.171991 0.968432 0.596678
C68   C     C_R   0.951712 0.272077 0.402974 0.007593
C69   C     C_R   0.737256 0.612900 0.010373 -0.002984
C70   C     C_R   0.262744 0.387100 0.989627 -0.002985
C71   C     C_R   0.270450 0.956680 0.399192 0.009578
C72   C     C_R   0.729550 0.043320 0.600808 0.009578
C73   C     C_R   0.400146 0.271117 0.953316 0.015485
C74   C     C_R   0.599854 0.728882 0.046684 0.015485
C75   C     C_R   0.951377 0.403593 0.271801 0.010511
C76   C     C_R   0.048623 0.596407 0.728199 0.010511
C77   C     C_R   0.693279 0.032652 0.692784 -0.129159
C78   C     C_R   0.563615 0.828009 0.031568 0.596677
C79   C     C_R   0.306721 0.967347 0.307216 -0.129159
C80   C     C_R   0.046102 0.687451 0.687636 -0.138232
C81   C     C_R   0.953898 0.312549 0.312364 -0.138232
C82   C     C_R   0.691757 0.692597 0.035865 -0.139773
C83   C     C_R   0.308243 0.307403 0.964135 -0.139773
C84   C     C_R   0.599567 0.014500 0.595995 -0.013430
C85   C     C_R   0.400433 0.985501 0.404005 -0.013430
C86   C     C_R   0.043044 0.587195 0.587894 -0.004762
C87   C     C_R   0.956956 0.412805 0.412106 -0.004762
C88   C     C_R   0.595757 0.598448 0.016876 0.003776
C89   C     C_R   0.969849 0.436164 0.172168 0.591178
C90   C     C_R   0.404243 0.401551 0.983125 0.003777
Cu1   Cu    Cu3+1 0.995180 0.995180 0.424630 1.073342
Cu2   Cu    Cu3+1 0.004820 0.004820 0.575370 1.073342
Cu3   Cu    Cu3+1 0.995180 0.424630 0.995180 1.079346
Cu4   Cu    Cu3+1 0.004820 0.575370 0.004820 1.079347
Cu5   Cu    Cu3+1 0.424630 0.995180 0.995180 1.081056
Cu6   Cu    Cu3+1 0.575370 0.004820 0.004820 1.081055
H1    H     H_    0.436285 0.867265 0.721470 0.147381
H2    H     H_    0.339932 0.653630 0.124172 0.147806
H3    H     H_    0.946873 0.665477 0.310497 0.140277
H4    H     H_    0.053127 0.334523 0.689503 0.140277
H5    H     H_    0.729470 0.039357 0.730306 0.189776
H6    H     H_    0.270530 0.960641 0.269695 0.189776
H7    H     H_    0.038468 0.728598 0.728369 0.171584
H8    H     H_    0.961532 0.271402 0.271631 0.171584
H9    H     H_    0.728931 0.729092 0.042776 0.176925
H10   H     H_    0.271069 0.270908 0.957224 0.176925
H11   H     H_    0.563716 0.132735 0.278529 0.147380
H12   H     H_    0.056018 0.688699 0.335649 0.146203
H13   H     H_    0.943982 0.311301 0.664351 0.146203
H14   H     H_    0.721792 0.435289 0.867457 0.147105
H15   H     H_    0.278208 0.564710 0.132544 0.147105
H16   H     H_    0.347700 0.876537 0.659307 0.143450
H17   H     H_    0.652297 0.123468 0.340694 0.143449
H18   H     H_    0.660068 0.346369 0.875830 0.147806
O1    O     O_R   0.124540 0.978640 0.385460 -0.492094
O2    O     O_R   0.124540 0.385460 0.978640 -0.492229
O3    O     O_R   0.021360 0.875460 0.614540 -0.495892
O4    O     O_R   0.978640 0.124540 0.385460 -0.495892
O5    O     O_R   0.013780 0.867370 0.487190 -0.480992
O6    O     O_R   0.986220 0.132630 0.512810 -0.480993
O7    O     O_R   0.867370 0.487190 0.013780 -0.481503
O8    O     O_R   0.132630 0.512810 0.986220 -0.481502
O9    O     O_R   0.487190 0.013780 0.867370 -0.479711
O10   O     O_R   0.512810 0.986220 0.132630 -0.479711
O11   O     O_R   0.512810 0.132630 0.986220 -0.442457
O12   O     O_R   0.875460 0.021360 0.614540 -0.492094
O13   O     O_R   0.487190 0.867370 0.013780 -0.442457
O14   O     O_R   0.986220 0.512810 0.132630 -0.440936
O15   O     O_R   0.013780 0.487190 0.867370 -0.440937
O16   O     O_R   0.132630 0.986220 0.512810 -0.481117
O17   O     O_R   0.867370 0.013780 0.487190 -0.481117
O18   O     O_R   0.978640 0.385460 0.124540 -0.520601
O19   O     O_R   0.021360 0.614540 0.875460 -0.520602
O20   O     O_R   0.385460 0.124540 0.978640 -0.522101
O21   O     O_R   0.614540 0.875460 0.021360 -0.522101
O22   O     O_R   0.614540 0.021360 0.875460 -0.493466
O23   O     O_R   0.385460 0.978640 0.124540 -0.493465
O24   O     O_R   0.875460 0.614540 0.021360 -0.492229

loop_
_geom_bond_atom_site_label_1
_geom_bond_atom_site_label_2
_ccdc_geom_bond_type
C61   C88   A    
Cu4   O24   S    
C14   C60   A    
C52   C65   A    
C24   C30   A    
C16   C62   A    
C23   O7    A    
Cu3   O18   S    
C60   C73   A    
C23   C69   S    
C11   C44   A    
C57   C90   A    
C47   H18   S    
Br6   C7    S    
C2    O19   A    
C13   C46   A    
Cu4   O19   S    
C19   C31   A    
C44   H16   S    
C45   C64   S    
C34   O2    A    
Br3   C16   S    
C53   C86   A    
Cu6   O10   S    
C15   C48   A    
Cu3   O15   S    
Cu6   O11   S    
C89   O18   A    
Br9   C10   S    
C51   C64   A    
Br11  C13   S    
C32   C38   A    
C28   C37   A    
C4    C72   S    
C24   C90   A    
C20   C27   A    
C18   C84   A    
C57   C70   A    
C74   C82   A    
C75   C89   S    
C7    C40   A    
C12   C68   S    
C76   C80   A    
C20   C86   A    
C39   H11   S    
Cu5   Cu6   S    
Br2   C15   S    
C13   C59   A    
C23   O24   A    
C62   C75   A    
Cu1   O1    S    
C14   C47   A    
C10   C57   A    
Br4   C17   S    
C58   C85   A    
C64   C77   A    
Cu6   O21   S    
C16   C49   A    
C19   C85   A    
C42   H14   S    
C2    O15   A    
C31   C39   A    
C34   C70   S    
C9    C55   A    
C11   C58   A    
C18   C32   A    
C22   C29   A    
Cu1   O4    S    
C89   O14   A    
C6    C39   A    
C78   O13   A    
C67   O20   A    
C43   H15   S    
C83   H10   S    
C36   C41   A    
C20   C37   A    
C77   H5    S    
C21   C28   A    
C56   O10   A    
C4    O17   A    
C74   C78   S    
Cu5   O20   S    
C3    C71   S    
C59   C84   A    
C66   C80   A    
C51   C84   A    
C63   C86   A    
C28   C49   A    
C18   C25   A    
Br12  C14   S    
C21   C87   A    
C81   H8    S    
C54   C87   A    
C25   C31   A    
C5    C38   A    
C22   C88   A    
C26   C32   A    
C78   O21   A    
C34   O8    A    
C3    O16   A    
C12   O6    A    
Cu4   O14   S    
C37   C40   A    
Br8   C9    S    
C1    O5    A    
C50   H4    S    
C24   C33   A    
C58   C71   A    
C10   C43   A    
C55   C88   A    
C35   C42   A    
C40   H12   S    
C52   C85   A    
C67   O11   A    
C55   C69   A    
Cu2   O3    S    
Cu2   O16   S    
C72   C77   A    
C49   H3    S    
C67   C73   S    
C71   C79   A    
Cu3   O7    S    
C59   C72   A    
C8    C54   A    
C56   C65   S    
C27   C50   A    
C17   C50   A    
C65   C79   A    
C1    O3    A    
C70   C83   A    
Cu3   O2    S    
Cu5   O9    S    
C4    O12   A    
C25   C46   A    
C29   C48   A    
C8    C41   A    
Cu1   O17   S    
C30   C47   A    
C19   C26   A    
C62   C87   A    
C17   C63   A    
Br10  C11   S    
C54   C68   A    
Cu3   Cu4   S    
Br1   C5    S    
C79   H6    S    
C53   C66   A    
C2    C76   S    
C41   H13   S    
C5    C51   A    
C69   C82   A    
C73   C83   A    
C6    C52   A    
C9    C42   A    
C60   C90   A    
Br5   C6    S    
C75   C81   A    
C82   H9    S    
Cu2   O12   S    
C56   O23   A    
C7    C53   A    
C30   C35   A    
C38   H1    S    
Cu5   O13   S    
C80   H7    S    
C61   C74   A    
C48   H2    S    
C1    C66   S    
Cu5   O23   S    
C12   O4    A    
C63   C76   A    
Cu4   O8    S    
C26   C44   A    
C33   C43   A    
C46   H17   S    
Br7   C8    S    
Cu2   O6    S    
C45   O22   A    
Cu1   Cu2   S    
C21   C36   A    
C29   C33   A    
C45   O9    A    
C3    O1    A    
C22   C35   A    
C68   C81   A    
C15   C61   A    
Cu1   O5    S    
C27   C36   A    
Cu6   O22   S    
