data_mof_unit_46204.cif
_audit_creation_date              2012-12-11T14:13:17-0500
_audit_creation_method            fapswitch 2.2
_symmetry_space_group_name_H-M    P1
_symmetry_Int_Tables_number       1
_space_group_crystal_system       triclinic
_cell_length_a                    11.556229
_cell_length_b                    18.663923
_cell_length_c                    9.977457
_cell_angle_alpha                 89.301621
_cell_angle_beta                  110.44345
_cell_angle_gamma                 90.305952
_cell_volume                      2016.29481219

loop_
_atom_site_label
_atom_site_type_symbol
_atom_type_description
_atom_site_fract_x
_atom_site_fract_y
_atom_site_fract_z
_atom_type_partial_charge
C1    C     C_R   0.075283 0.645321 0.141529 0.562265
C2    C     C_2   0.591452 0.078803 0.094922 -0.111330
C3    C     C_2   0.591014 0.422563 0.080353 -0.119790
C4    C     C_2   0.408942 0.577401 0.919750 -0.120798
C5    C     C_2   0.471396 0.970743 0.049197 -0.161852
C6    C     C_2   0.482754 0.047568 0.031695 -0.166157
C7    C     C_2   0.508954 0.463422 0.983366 -0.156686
C8    C     C_2   0.490916 0.536525 0.016811 -0.156745
C9    C     C_2   0.008089 0.921249 0.110579 -0.125289
C10   C     C_2   0.990992 0.078497 0.889252 -0.106132
C11   C     C_2   0.985436 0.424019 0.883546 -0.108818
C12   C     C_R   0.924705 0.354683 0.858466 0.563446
C13   C     C_2   0.014509 0.575997 0.116431 -0.109269
C14   C     C_2   0.022283 0.963542 0.008716 -0.155273
C15   C     C_2   0.973268 0.035376 0.987863 -0.148775
C16   C     C_2   0.977901 0.463444 0.991121 -0.154298
C17   C     C_2   0.021951 0.536591 0.008787 -0.154659
C18   C     C_R   0.469300 0.646803 0.443449 0.531108
C19   C     C_R   0.530742 0.353237 0.556634 0.544707
C20   C     C_R   0.565974 0.138791 0.631052 0.564449
C21   C     C_R   0.468643 0.853057 0.439112 0.526711
C22   C     C_R   0.376964 0.645730 0.963341 0.554243
C23   C     C_R   0.926814 0.146376 0.860189 0.547418
C24   C     C_R   0.623028 0.354261 0.036677 0.555679
C25   C     C_R   0.622519 0.146108 0.039853 0.545162
C26   C     C_R   0.374411 0.857001 0.967921 0.553559
C27   C     C_R   0.506820 0.425224 0.489759 -0.040343
C28   C     C_R   0.493310 0.574878 0.510550 -0.038717
C29   C     C_R   0.500468 0.920219 0.514240 -0.022953
C30   C     C_R   0.552666 0.060805 0.607803 -0.023849
C31   C     C_R   0.283693 0.416571 0.442642 -0.076680
C32   C     C_R   0.716406 0.583580 0.557682 -0.076873
C33   C     C_R   0.724470 0.896656 0.584365 -0.079347
C34   C     C_R   0.072557 0.853392 0.139598 0.539593
C35   C     C_R   0.348986 0.056611 0.652842 -0.084515
C36   C     C_R   0.176007 0.446341 0.450365 -0.124324
C37   C     C_R   0.824117 0.553824 0.550016 -0.124257
C38   C     C_R   0.838823 0.923691 0.591564 -0.116005
C39   C     C_R   0.224898 0.037461 0.593105 -0.139790
C40   C     C_R   0.176833 0.516523 0.495385 -0.126277
C41   C     C_R   0.823344 0.483630 0.505070 -0.126005
C42   C     C_R   0.852357 0.996884 0.575819 -0.133096
C43   C     C_R   0.188757 0.990414 0.479557 -0.113771
C44   C     C_R   0.282721 0.558418 0.523236 -0.074115
C45   C     C_R   0.393507 0.457445 0.477101 0.010914
C46   C     C_R   0.717479 0.441708 0.477222 -0.074545
C47   C     C_R   0.756682 0.043432 0.570755 -0.095342
C48   C     C_R   0.279054 0.956256 0.440928 -0.068401
C49   C     C_R   0.390167 0.531104 0.504217 0.007341
C50   C     C_R   0.610000 0.469004 0.496190 0.006034
C51   C     C_R   0.645655 0.017621 0.583604 -0.009359
C52   C     C_R   0.405697 0.966218 0.519644 -0.004789
C53   C     C_R   0.606631 0.542672 0.523262 0.012938
C54   C     C_R   0.624133 0.943543 0.566139 0.009390
C55   C     C_R   0.438875 0.027392 0.601240 0.017673
C56   C     C_2   0.396530 0.931689 0.941971 -0.119469
Cr1   Cr    Cr6+3 0.187610 0.750000 0.979860 1.009331
Cr2   Cr    Cr6+3 0.812390 0.250000 0.020140 1.010941
Cr3   Cr    Cr6+3 0.245810 0.750000 0.341640 1.012993
Cr4   Cr    Cr6+3 0.754190 0.250000 0.658360 1.003077
Cr5   Cr    Cr6+3 0.485760 0.750000 0.219910 1.015274
Cr6   Cr    Cr6+3 0.514240 0.250000 0.780090 1.005479
H1    H     H_    0.093010 0.414252 0.425541 0.106554
H2    H     H_    0.718774 0.638941 0.589943 0.117038
H3    H     H_    0.713975 0.839106 0.588753 0.124883
H4    H     H_    0.371513 0.096098 0.735195 0.148192
H5    H     H_    0.280351 0.611302 0.565020 0.141051
H6    H     H_    0.719898 0.388828 0.435450 0.141767
H7    H     H_    0.769762 0.097933 0.546480 0.183301
H8    H     H_    0.250774 0.926009 0.344755 0.164988
H9    H     H_    0.406811 0.076637 0.956077 0.135220
H10   H     H_    0.527804 0.945800 0.149808 0.171065
H11   H     H_    0.541059 0.555907 0.124078 0.169795
H12   H     H_    0.907091 0.585935 0.574813 0.104742
H13   H     H_    0.458774 0.444037 0.876121 0.169531
H14   H     H_    0.665818 0.049147 0.173679 0.109736
H15   H     H_    0.338665 0.957029 0.843363 0.115711
H16   H     H_    0.354181 0.556275 0.815998 0.100245
H17   H     H_    0.645804 0.443686 0.184091 0.100217
H18   H     H_    0.918104 0.052304 0.050713 0.159764
H19   H     H_    0.075072 0.946125 0.943503 0.162998
H20   H     H_    0.065365 0.557453 0.935525 0.162902
H21   H     H_    0.934442 0.442589 0.064344 0.162963
H22   H     H_    0.041074 0.060640 0.821675 0.086171
H23   H     H_    0.914354 0.887676 0.600554 0.114993
H24   H     H_    0.961028 0.939899 0.180768 0.092085
H25   H     H_    0.976341 0.553967 0.193523 0.099920
H26   H     H_    0.023656 0.446038 0.806492 0.099918
H27   H     H_    0.156773 0.062481 0.629001 0.099869
H28   H     H_    0.095139 0.538818 0.508199 0.102964
H29   H     H_    0.905060 0.461347 0.492289 0.103142
H30   H     H_    0.937219 0.017801 0.567831 0.102182
H31   H     H_    0.091835 0.980239 0.422406 0.110595
H32   H     H_    0.281263 0.361228 0.410285 0.127061
O1    O     O_R   0.267710 0.668200 0.902110 -0.526765
O2    O     O_R   0.883280 0.330790 0.732340 -0.515743
O3    O     O_R   0.883280 0.169210 0.732340 -0.547991
O4    O     O_R   0.116720 0.830790 0.267660 -0.532929
O5    O     O_R   0.366710 0.675440 0.427590 -0.507554
O6    O     O_R   0.633290 0.324560 0.572410 -0.503106
O7    O     O_R   0.633290 0.175440 0.572410 -0.515186
O8    O     O_R   0.366710 0.824560 0.427590 -0.509974
O9    O     O_R   0.534870 0.669390 0.371760 -0.516910
O10   O     O_R   0.465130 0.330610 0.628240 -0.510758
O11   O     O_R   0.465130 0.169390 0.628240 -0.521871
O12   O     O_R   0.732290 0.331800 0.097890 -0.525593
O13   O     O_R   0.534870 0.830610 0.371760 -0.528749
O14   O     O_R   0.453080 0.674480 0.075160 -0.495649
O15   O     O_R   0.546920 0.325520 0.924840 -0.496345
O16   O     O_R   0.546920 0.174480 0.924840 -0.528955
O17   O     O_R   0.453080 0.825520 0.075160 -0.500151
O18   O     O_3   0.306390 0.750000 0.180470 -0.246830
O19   O     O_3   0.693610 0.250000 0.819530 -0.264221
O20   O     O_R   0.732290 0.168200 0.097890 -0.520723
O21   O     O_R   0.267710 0.831800 0.902110 -0.520424
O22   O     O_R   0.099480 0.674460 0.038850 -0.502661
O23   O     O_R   0.900520 0.325540 0.961150 -0.499608
O24   O     O_R   0.900520 0.174460 0.961150 -0.498713
O25   O     O_R   0.099480 0.825540 0.038850 -0.500189
O26   O     O_R   0.116720 0.669210 0.267660 -0.514996

loop_
_geom_bond_atom_site_label_1
_geom_bond_atom_site_label_2
_ccdc_geom_bond_type
C44   C49   A    
C37   H12   S    
Cr3   O26   S    
Cr3   O5    S    
C22   O1    A    
C5    C56   D    
C4    C8    D    
C3    H17   S    
C23   O24   A    
Cr4   O19   S    
C33   H3    S    
C7    C8    S    
Cr1   O21   S    
Cr6   O11   S    
C20   C30   S    
C46   H6    S    
Cr5   O9    S    
C30   C51   A    
C38   C42   A    
C5    H10   S    
C3    C7    D    
C10   C15   D    
C5    C6    S    
Cr1   O18   S    
C29   C54   A    
Cr2   O24   S    
C17   H20   S    
C11   C16   D    
Cr5   O14   S    
C26   O21   A    
C47   H7    S    
C34   O4    A    
C16   C17   S    
Cr2   O19   S    
C41   C46   A    
C1    O22   A    
C36   H1    S    
C19   C27   S    
C43   C48   A    
C40   C44   A    
C27   C50   A    
Cr1   O25   S    
C27   C45   A    
C3    C24   S    
C2    C6    D    
Cr1   O22   S    
Cr6   O10   S    
C39   C43   A    
C6    H9    S    
C50   C53   A    
C38   H23   S    
C35   C55   A    
C36   C40   A    
C18   C28   S    
C32   H2    S    
Cr6   O19   S    
Cr4   O3    S    
C47   C51   A    
C20   O7    A    
C35   H4    S    
C21   C29   S    
Cr2   O23   S    
C56   H15   S    
Cr2   O12   S    
C1    O26   A    
C35   C39   A    
C9    C14   D    
C4    H16   S    
C9    H24   S    
C4    C22   S    
C19   O10   A    
C15   H18   S    
Cr6   O16   S    
C45   C49   A    
C11   H26   S    
C28   C53   A    
C13   H25   S    
Cr3   O18   S    
C32   C37   A    
C21   O13   A    
C25   O16   A    
C21   O8    A    
Cr4   O2    S    
C23   O3    A    
Cr1   O1    S    
C9    C34   S    
C24   O12   A    
C18   O5    A    
Cr4   O7    S    
Cr5   O17   S    
C32   C53   A    
C2    H14   S    
C20   O11   A    
C33   C54   A    
C41   H29   S    
C31   C36   A    
Cr3   O8    S    
C24   O15   A    
C48   H8    S    
Cr4   O6    S    
C26   C56   S    
C7    H13   S    
C19   O6    A    
C52   C55   A    
C10   C23   S    
C31   H32   S    
C30   C55   A    
C46   C50   A    
C33   C38   A    
C13   C17   D    
C51   C54   A    
C34   O25   A    
C25   O20   A    
C18   O9    A    
Cr6   O15   S    
C22   O14   A    
C10   H22   S    
C8    H11   S    
C43   H31   S    
C28   C49   A    
C2    C25   S    
C42   H30   S    
C42   C47   A    
C16   H21   S    
C37   C41   A    
Cr5   O13   S    
C12   O23   A    
C48   C52   A    
C1    C13   S    
C31   C45   A    
Cr2   O20   S    
Cr3   O4    S    
C14   C15   S    
C12   O2    A    
C44   H5    S    
C14   H19   S    
C40   H28   S    
Cr5   O18   S    
C26   O17   A    
C39   H27   S    
C11   C12   S    
C29   C52   A    
