data_mof_unit_11899.cif
_audit_creation_date              2012-12-11T14:51:40-0500
_audit_creation_method            fapswitch 2.2
_symmetry_space_group_name_H-M    P1
_symmetry_Int_Tables_number       1
_space_group_crystal_system       triclinic
_cell_length_a                    6.937687
_cell_length_b                    16.661897
_cell_length_c                    16.943566
_cell_angle_alpha                 101.37072
_cell_angle_beta                  90.197262
_cell_angle_gamma                 90.402224
_cell_volume                      1920.0782338

loop_
_atom_site_label
_atom_site_type_symbol
_atom_type_description
_atom_site_fract_x
_atom_site_fract_y
_atom_site_fract_z
_atom_type_partial_charge
O1    O     O_R   0.506340 0.439070 0.579550 -0.539905
O2    O     O_R   0.170010 0.404890 0.412100 -0.526401
O3    O     O_R   0.005010 0.560930 0.420450 -0.542603
C1    C     C_R   0.339510 0.381540 0.383260 0.738394
O4    O     O_R   0.176280 0.429360 0.578400 -0.536125
O5    O     O_R   0.011320 0.585570 0.587940 -0.541666
C2    C     C_R   0.343462 0.413670 0.605294 0.720141
O6    O     O_R   0.500030 0.414430 0.412060 -0.543046
O7    O     O_3   0.340950 0.551220 0.502940 -0.376004
V1    V     V_3+5 0.064020 0.490500 0.499460 1.446085
O8    O     O_R   0.681910 0.595110 0.587900 -0.544060
C3    C     C_R   0.851531 0.618417 0.616689 0.671946
O9    O     O_R   0.675640 0.570640 0.421600 -0.544107
C4    C     C_R   0.842655 0.586212 0.394597 0.691573
V2    V     V_3+5 0.564670 0.509500 0.500540 1.414864
O10   O     O_3   0.837610 0.448780 0.497060 -0.358751
C5    C     C_R   0.927130 0.861185 0.167244 -0.069633
C6    C     C_R   0.838490 0.638908 0.332948 -0.068434
C7    C     C_R   0.647845 0.695885 0.235410 -0.200159
C8    C     C_R   0.668596 0.640793 0.287197 -0.163343
C9    C     C_R   0.990134 0.692731 0.324112 -0.240799
C10   C     C_R   0.969243 0.749113 0.272357 0.156302
C11   C     C_R   0.796297 0.751044 0.227900 0.162156
C12   C     C_R   0.775451 0.807390 0.176105 -0.242142
C13   C     C_R   0.096946 0.859361 0.213059 -0.140455
C14   C     C_R   0.117668 0.804291 0.264869 -0.191123
H1    H     H_    0.644681 0.807393 0.140890 0.120560
H2    H     H_    0.216517 0.900184 0.207996 0.135473
H3    H     H_    0.514547 0.695833 0.201852 0.118953
H4    H     H_    0.250939 0.804365 0.298449 0.127640
H5    H     H_    0.549012 0.599980 0.292270 0.125053
H6    H     H_    0.120936 0.692705 0.359302 0.122796
C15   C     C_3   0.808695 0.817938 0.731241 -0.136637
C16   C     C_3   0.978513 0.768519 0.687141 -0.135286
H7    H     H_    0.056841 0.783412 0.634776 0.107711
H8    H     H_    0.747678 0.874533 0.716233 0.105846
C17   C     C_3   0.865693 0.688681 0.687472 -0.007346
C18   C     C_3   0.695731 0.737280 0.730761 -0.116332
C19   C     C_3   0.787577 0.731413 0.812912 -0.140565
C20   C     C_3   0.957395 0.681994 0.768812 -0.143386
C21   C     C_3   0.070359 0.762652 0.769292 -0.117074
C22   C     C_3   0.900397 0.811250 0.812582 -0.008416
H9    H     H_    0.541372 0.726479 0.714374 0.106246
H10   H     H_    0.709249 0.716520 0.865277 0.101025
H11   H     H_    0.018413 0.625399 0.783820 0.097495
H12   H     H_    0.224719 0.773452 0.785679 0.106444
C23   C     C_3   0.555346 0.280564 0.276741 -0.148641
C24   C     C_3   0.488731 0.190795 0.272882 -0.160607
H13   H     H_    0.575934 0.142210 0.291820 0.149792
H14   H     H_    0.698643 0.305815 0.298680 0.145724
C25   C     C_3   0.408574 0.188794 0.187615 -0.073072
C26   C     C_3   0.475021 0.277697 0.190716 -0.138536
C27   C     C_3   0.277631 0.308950 0.227006 -0.210454
C28   C     C_3   0.210458 0.219250 0.223049 -0.140933
C29   C     C_3   0.292366 0.222540 0.308332 0.423531
C30   C     C_3   0.357511 0.311235 0.312357 -0.076541
H15   H     H_    0.552051 0.300256 0.141959 0.111797
H16   H     H_    0.189788 0.357499 0.208349 0.118230
H17   H     H_    0.066988 0.193879 0.201498 0.136093
C31   C     C_R   0.427576 0.139193 0.833064 -0.069574
C32   C     C_R   0.338925 0.360714 0.666740 -0.065562
C33   C     C_R   0.148680 0.302829 0.763856 -0.196214
C34   C     C_R   0.169322 0.357946 0.712030 -0.156068
C35   C     C_R   0.490312 0.307695 0.676032 -0.216463
C36   C     C_R   0.469528 0.251303 0.727843 0.156960
C37   C     C_R   0.296912 0.248513 0.771855 0.162029
C38   C     C_R   0.276138 0.192150 0.823689 -0.239533
C39   C     C_R   0.597170 0.141925 0.787759 -0.163397
C40   C     C_R   0.617765 0.196987 0.735863 -0.186213
H18   H     H_    0.145497 0.191440 0.858480 0.121353
H19   H     H_    0.716551 0.101768 0.793194 0.128561
H20   H     H_    0.015678 0.302241 0.797110 0.117226
H21   H     H_    0.750761 0.197563 0.702603 0.134023
H22   H     H_    0.049955 0.398126 0.706644 0.121897
H23   H     H_    0.620931 0.308411 0.641229 0.133572
O11   O     O_R   0.266070 0.085680 0.087850 -0.539120
O12   O     O_R   0.590090 0.070660 0.921580 -0.544158
O13   O     O_R   0.754780 0.914400 0.912080 -0.538579
C41   C     C_R   0.422967 0.086323 0.894590 0.698343
O14   O     O_R   0.596110 0.095130 0.087880 -0.539019
O15   O     O_R   0.760850 0.939050 0.079570 -0.537225
C42   C     C_R   0.426605 0.118527 0.116697 0.706835
O16   O     O_R   0.260010 0.061030 0.920360 -0.537542
O17   O     O_3   0.425070 0.948840 0.997010 -0.369411
V3    V     V_3+5 0.702100 0.009490 0.000550 1.405066
O18   O     O_R   0.090200 0.929250 0.078500 -0.543651
C43   C     C_R   0.923122 0.913777 0.105506 0.707052
O19   O     O_R   0.084180 0.904770 0.912200 -0.542411
C44   C     C_R   0.914564 0.881514 0.883367 0.678115
V4    V     V_3+5 0.201420 0.990350 0.999580 1.407084
O20   O     O_3   0.928580 0.051150 0.002990 -0.368584
Cl1   Cl    Cl    0.168609 0.185720 0.386088 -0.664674

loop_
_geom_bond_atom_site_label_1
_geom_bond_atom_site_label_2
_ccdc_geom_bond_type
C24   C29   S    
C29   C30   S    
C31   C41   S    
C16   C17   S    
C21   C22   S    
C4    C6    S    
O2    C1    A    
C7    C8    A    
C12   H1    S    
C1    O6    A    
V3    O20   S    
C27   C28   S    
C13   H2    S    
C33   C34   A    
C15   C22   S    
C17   C18   S    
C17   C20   S    
O5    C3    A    
C18   C19   S    
V2    O10   S    
C6    C9    A    
C15   H8    S    
C16   H7    S    
C3    C17   S    
C32   C34   A    
C2    C32   S    
O8    V2    S    
C24   C25   S    
C31   C38   A    
C39   C40   A    
C21   H12   S    
C40   H21   S    
O1    V2    S    
C23   H14   S    
C25   C28   S    
O7    V1    S    
C37   C38   A    
O12   V3    S    
O1    C2    A    
O9    C4    A    
C1    C30   S    
C16   C21   S    
O17   V4    S    
C19   C22   S    
C28   H17   S    
O12   C41   A    
O13   C44   A    
C20   H11   S    
C9    H6    S    
C5    C12   A    
C33   C37   A    
C25   C26   S    
O17   V3    S    
O14   C42   A    
O18   V4    S    
O11   C42   A    
C19   C20   S    
O4    C2    A    
O18   C43   A    
C13   C14   A    
C32   C35   A    
C7    C11   A    
O14   V3    S    
C23   C24   S    
C11   C12   A    
C15   C16   S    
C33   H20   S    
C25   C42   S    
O15   C43   A    
O3    C4    A    
O13   V3    S    
C24   H13   S    
C29   Cl1   S    
O19   V4    S    
C14   H4    S    
O6    V2    S    
O9    V2    S    
O2    V1    S    
C26   C27   S    
C27   C30   S    
O16   V4    S    
C28   C29   S    
C20   C21   S    
C5    C43   S    
O5    V1    S    
C27   H16   S    
C19   H10   S    
C34   H22   S    
C15   C18   S    
C22   C44   S    
C5    C13   A    
C35   C36   A    
C38   H18   S    
O7    V2    S    
O4    V1    S    
O3    V1    S    
V1    O10   S    
C41   O16   A    
V4    O20   S    
C39   H19   S    
C36   C40   A    
C35   H23   S    
C6    C8    A    
C26   H15   S    
C18   H9    S    
O19   C44   A    
C31   C39   A    
C36   C37   A    
C10   C14   A    
C23   C26   S    
C10   C11   A    
C9    C10   A    
O15   V3    S    
O8    C3    A    
O11   V4    S    
C23   C30   S    
C8    H5    S    
C7    H3    S    
