data_mof_unit_30297.cif
_audit_creation_date              2012-12-11T15:19:38-0500
_audit_creation_method            fapswitch 2.2
_symmetry_space_group_name_H-M    P1
_symmetry_Int_Tables_number       1
_space_group_crystal_system       triclinic
_cell_length_a                    20.007339
_cell_length_b                    6.887522
_cell_length_c                    18.05617
_cell_angle_alpha                 90.002385
_cell_angle_beta                  104.089021
_cell_angle_gamma                 89.999199
_cell_volume                      2413.31097337

loop_
_atom_site_label
_atom_site_type_symbol
_atom_type_description
_atom_site_fract_x
_atom_site_fract_y
_atom_site_fract_z
_atom_type_partial_charge
O1    O     O_R   0.312200 0.620210 0.189560 -0.543087
O2    O     O_R   0.687800 0.379790 0.810440 -0.541919
O3    O     O_R   0.187800 0.120210 0.310440 -0.543085
O4    O     O_R   0.812200 0.879790 0.689560 -0.541921
O5    O     O_R   0.171590 0.286140 0.165000 -0.534674
O6    O     O_R   0.828410 0.713860 0.835000 -0.534959
O7    O     O_R   0.328410 0.786140 0.335000 -0.534676
O8    O     O_R   0.671590 0.213860 0.665000 -0.534921
C1    C     C_R   0.145705 0.459456 0.143827 0.712556
C2    C     C_R   0.854467 0.540584 0.855939 0.714237
C3    C     C_R   0.354295 0.959459 0.356172 0.712563
C4    C     C_R   0.645531 0.040583 0.644063 0.714015
O9    O     O_R   0.310670 0.290220 0.180540 -0.539204
O10   O     O_R   0.689330 0.709780 0.819460 -0.540223
O11   O     O_R   0.189330 0.790220 0.319460 -0.539206
O12   O     O_R   0.810670 0.209780 0.680540 -0.540206
O13   O     O_R   0.327870 0.124170 0.326080 -0.533180
O14   O     O_R   0.672130 0.875830 0.673920 -0.533161
O15   O     O_R   0.172130 0.624170 0.173920 -0.533181
O16   O     O_R   0.827870 0.375830 0.826080 -0.533093
C5    C     C_R   0.331062 0.459405 0.164110 0.707791
C6    C     C_R   0.669514 0.540452 0.836596 0.707259
C7    C     C_R   0.168938 0.959409 0.335890 0.707820
C8    C     C_R   0.830484 0.040443 0.663402 0.707234
O17   O     O_3   0.255480 0.455050 0.297740 -0.364886
O18   O     O_3   0.744520 0.544950 0.702260 -0.364995
O19   O     O_3   0.244520 0.955050 0.202260 -0.364885
O20   O     O_3   0.755480 0.044950 0.797740 -0.365001
V1    V     V_3+5 0.248980 0.178550 0.241140 1.405702
V2    V     V_3+5 0.751020 0.821450 0.758860 1.404205
V3    V     V_3+5 0.251020 0.678550 0.258860 1.405688
V4    V     V_3+5 0.748980 0.321450 0.741140 1.404264
C9    C     C_R   0.940218 0.933344 0.637760 -0.242374
C10   C     C_R   0.057369 0.063563 0.358141 -0.243894
C11   C     C_R   0.559748 0.433521 0.862195 -0.242364
C12   C     C_R   0.442635 0.563510 0.141862 -0.243867
C13   C     C_R   0.877567 0.028894 0.611495 -0.078677
C14   C     C_R   0.120323 0.969990 0.385884 -0.079255
C15   C     C_R   0.622416 0.528957 0.888486 -0.078745
C16   C     C_R   0.379672 0.469990 0.114110 -0.079234
C17   C     C_R   0.858890 0.098269 0.535371 0.046921
C18   C     C_R   0.137278 0.899430 0.461662 0.045970
C19   C     C_R   0.641100 0.598290 0.964617 0.046948
C20   C     C_R   0.362701 0.399541 0.038315 0.045967
C21   C     C_R   0.910828 0.111419 0.492836 -0.000972
C22   C     C_R   0.083131 0.876146 0.500272 0.010365
C23   C     C_R   0.589170 0.611459 0.007161 -0.000918
C24   C     C_R   0.416838 0.376304 0.999686 0.010408
C25   C     C_R   0.972191 0.999232 0.518541 -0.027979
C26   C     C_R   0.021311 0.985237 0.473814 -0.035379
C27   C     C_R   0.527786 0.499368 0.981428 -0.028049
C28   C     C_R   0.478668 0.485348 0.026159 -0.035366
C29   C     C_R   0.985719 0.905825 0.590493 0.040428
C30   C     C_R   0.009849 0.085322 0.403622 0.039098
C31   C     C_R   0.514241 0.406031 0.909457 0.040530
C32   C     C_R   0.490150 0.585317 0.096378 0.039123
C33   C     C_R   0.905265 0.233872 0.427281 0.056167
C34   C     C_R   0.088772 0.754103 0.565251 0.066188
C35   C     C_R   0.594765 0.733780 0.072764 0.056308
C36   C     C_R   0.411182 0.254327 0.934682 0.066117
C37   C     C_R   0.953107 0.212583 0.381554 0.172504
C38   C     C_R   0.044180 0.784770 0.613820 0.155903
C39   C     C_R   0.546913 0.712487 0.118481 0.172459
C40   C     C_R   0.455768 0.285029 0.886112 0.155883
H1    H     H_    0.951481 0.873888 0.694945 0.120315
H2    H     H_    0.047503 0.126348 0.301568 0.122569
H3    H     H_    0.548483 0.374097 0.805001 0.120294
H4    H     H_    0.452517 0.626216 0.198449 0.122546
C41   C     C_1   0.582811 0.027699 0.582127 -0.194105
C42   C     C_1   0.416694 0.972392 0.418534 -0.193288
C43   C     C_1   0.917195 0.527702 0.917866 -0.194358
C44   C     C_1   0.083308 0.472384 0.081463 -0.193296
C45   C     C_1   0.530438 0.011026 0.530728 -0.003176
C46   C     C_1   0.468899 0.989076 0.470152 -0.001197
C47   C     C_1   0.969569 0.511024 0.969262 -0.003215
C48   C     C_1   0.031106 0.489068 0.029841 -0.001132
C49   C     C_3   0.782269 0.116606 0.496975 -0.405336
C50   C     C_3   0.744796 0.920091 0.492344 -0.319126
C51   C     C_3   0.674289 0.927537 0.435732 -0.772258
H5    H     H_    0.680285 0.950437 0.376784 0.229313
H6    H     H_    0.646686 0.788355 0.437403 0.222939
H7    H     H_    0.642973 0.047815 0.450529 0.237519
H8    H     H_    0.776243 0.805033 0.474003 0.204125
H9    H     H_    0.737018 0.878901 0.548922 0.199544
H10   H     H_    0.757607 0.225114 0.527351 0.171991
H11   H     H_    0.774271 0.164538 0.437774 0.212557
C52   C     C_3   0.213272 0.891104 0.504795 -0.402666
C53   C     C_3   0.249986 0.088200 0.505911 -0.310288
C54   C     C_3   0.318857 0.091269 0.565468 -0.772762
H12   H     H_    0.310562 0.076170 0.623836 0.228683
H13   H     H_    0.352313 0.970952 0.554910 0.235630
H14   H     H_    0.345470 0.231300 0.562098 0.220875
H15   H     H_    0.260450 0.118800 0.449645 0.197449
H16   H     H_    0.217015 0.206686 0.518942 0.202630
H17   H     H_    0.218415 0.854415 0.565530 0.190386
H18   H     H_    0.240513 0.778406 0.479222 0.170074
C55   C     C_3   0.717733 0.616252 0.003012 -0.405365
C56   C     C_3   0.754989 0.419366 0.007843 -0.319273
C57   C     C_3   0.825576 0.426667 0.064300 -0.772270
H19   H     H_    0.819735 0.450914 0.123232 0.229348
H20   H     H_    0.852949 0.286971 0.062902 0.222882
H21   H     H_    0.857027 0.546078 0.049128 0.237520
H22   H     H_    0.723468 0.304962 0.026460 0.204202
H23   H     H_    0.762588 0.377307 0.951273 0.199708
H24   H     H_    0.742510 0.724209 0.972530 0.172004
H25   H     H_    0.725796 0.664688 0.062154 0.212471
C58   C     C_3   0.286705 0.391316 0.995187 -0.402691
C59   C     C_3   0.250017 0.588435 0.994136 -0.310233
C60   C     C_3   0.181147 0.591656 0.934583 -0.772836
H26   H     H_    0.189434 0.576601 0.876209 0.228666
H27   H     H_    0.147669 0.471373 0.945115 0.235652
H28   H     H_    0.154563 0.731721 0.937986 0.220878
H29   H     H_    0.239552 0.618924 0.050411 0.197496
H30   H     H_    0.283007 0.706931 0.981155 0.202624
H31   H     H_    0.281555 0.354725 0.934441 0.190406
H32   H     H_    0.259458 0.278589 0.020736 0.170043
C61   C     C_3   0.858618 0.413143 0.412774 -0.312348
C62   C     C_3   0.803096 0.402937 0.336355 -0.285497
C63   C     C_3   0.742483 0.537268 0.336325 -0.821038
H33   H     H_    0.718663 0.500183 0.384016 0.236719
H34   H     H_    0.760158 0.690584 0.341779 0.239878
H35   H     H_    0.702811 0.520985 0.281735 0.225007
H36   H     H_    0.825168 0.447901 0.288297 0.227600
H37   H     H_    0.783605 0.252538 0.324031 0.191276
H38   H     H_    0.835157 0.441178 0.461420 0.158387
H39   H     H_    0.891087 0.543707 0.411606 0.185366
C64   C     C_3   0.138797 0.583114 0.582529 -0.325171
C65   C     C_3   0.102606 0.385945 0.584784 -0.254203
C66   C     C_3   0.141869 0.261157 0.651177 -0.754696
H40   H     H_    0.195543 0.236250 0.646670 0.224677
H41   H     H_    0.142919 0.333509 0.706423 0.242434
H42   H     H_    0.116082 0.119068 0.650614 0.221666
H43   H     H_    0.048581 0.402010 0.589462 0.209952
H44   H     H_    0.100030 0.307650 0.530445 0.179991
H45   H     H_    0.168453 0.565733 0.538574 0.139796
H46   H     H_    0.176422 0.613118 0.637753 0.193273
C67   C     C_3   0.641477 0.912911 0.087367 -0.312384
C68   C     C_3   0.696994 0.902346 0.163785 -0.285584
C69   C     C_3   0.757630 0.036693 0.163943 -0.820982
H47   H     H_    0.739985 0.190041 0.158618 0.239880
H48   H     H_    0.797292 0.020115 0.218525 0.225045
H49   H     H_    0.781453 0.999862 0.116229 0.236692
H50   H     H_    0.674927 0.947045 0.211879 0.227634
H51   H     H_    0.716465 0.751889 0.175987 0.191242
H52   H     H_    0.664949 0.941031 0.038735 0.158307
H53   H     H_    0.609059 0.043548 0.088608 0.185382
C70   C     C_3   0.361145 0.083369 0.917374 -0.325159
C71   C     C_3   0.397324 0.886186 0.915096 -0.254241
C72   C     C_3   0.357968 0.761294 0.848784 -0.754835
H54   H     H_    0.304318 0.736494 0.853395 0.224742
H55   H     H_    0.356850 0.833518 0.793497 0.242344
H56   H     H_    0.383730 0.619165 0.849345 0.221700
H57   H     H_    0.451314 0.902216 0.910291 0.210004
H58   H     H_    0.399993 0.807998 0.969476 0.180001
H59   H     H_    0.331481 0.065962 0.961320 0.139853
H60   H     H_    0.323529 0.113420 0.862146 0.193294
N1    N     N_3   0.946227 0.333971 0.315379 -0.698550
H61   H     H_    0.938733 0.246402 0.266759 0.226848
H62   H     H_    0.990997 0.416774 0.320987 0.233862
N2    N     N_3   0.059307 0.689520 0.686888 -0.677786
H63   H     H_    0.017602 0.601726 0.690565 0.228436
H64   H     H_    0.067242 0.794867 0.729828 0.225449
N3    N     N_3   0.553816 0.833761 0.184692 -0.698568
H65   H     H_    0.561295 0.746096 0.233283 0.226813
H66   H     H_    0.509060 0.916611 0.179114 0.233871
N4    N     N_3   0.440628 0.189840 0.813027 -0.677803
H67   H     H_    0.482324 0.102024 0.809333 0.228407
H68   H     H_    0.432703 0.295212 0.770101 0.225463

loop_
_geom_bond_atom_site_label_1
_geom_bond_atom_site_label_2
_ccdc_geom_bond_type
C34   C38   A    
C20   C24   A    
C52   C53   S    
O1    C5    A    
N1    H61   S    
O19   V1    S    
O13   V1    S    
C45   C46   S    
O3    C7    A    
N3    H65   S    
C1    C44   S    
C44   C48   T    
O15   V3    S    
C65   C66   S    
C10   H2    S    
C55   C56   S    
C3    C42   S    
C9    H1    S    
C49   C50   S    
O7    C3    A    
C21   C33   A    
O5    C1    A    
C26   C30   A    
C67   H52   S    
N3    H66   S    
C64   H45   S    
C14   C18   A    
C65   H44   S    
C68   H50   S    
C60   H27   S    
C17   C49   S    
C11   C15   A    
O4    C8    A    
C69   H49   S    
C25   C29   A    
C20   C58   S    
C35   C67   S    
C56   H22   S    
C56   C57   S    
O1    V3    S    
C59   C60   S    
O17   V1    S    
O2    V4    S    
C18   C22   A    
C59   H30   S    
O3    V1    S    
C62   C63   S    
C12   C16   A    
C40   N4    S    
C72   H54   S    
C50   H8    S    
C1    O15   A    
C70   C71   S    
C2    O16   A    
C52   H17   S    
C42   C46   T    
C58   C59   S    
C41   C45   T    
O14   V2    S    
C36   C70   S    
C21   C25   A    
C54   H13   S    
C70   H59   S    
C61   H39   S    
C60   H26   S    
C16   C20   A    
C66   H42   S    
C55   H24   S    
C2    C43   S    
O11   C7    A    
C49   H10   S    
C34   C64   S    
N1    H62   S    
C22   C34   A    
N4    H68   S    
C71   H58   S    
O10   V2    S    
C24   C36   A    
O5    V1    S    
C63   H34   S    
C9    C29   A    
C53   H16   S    
O7    V3    S    
C11   C31   A    
C27   C28   A    
O8    V4    S    
C67   H53   S    
O20   V4    S    
C64   H46   S    
C63   H33   S    
C60   H28   S    
C51   H6    S    
C50   C51   S    
C15   C19   A    
O19   V3    S    
C9    C13   A    
N2    H64   S    
C59   H29   S    
C39   N3    S    
C47   C48   S    
O2    C6    A    
C12   C32   A    
C37   N1    S    
C29   C38   A    
C57   H19   S    
C11   H3    S    
O8    C4    A    
C31   C40   A    
C8    C13   S    
C32   C39   A    
O9    C5    A    
C62   H37   S    
C71   C72   S    
C54   H14   S    
C33   C37   A    
C70   H60   S    
C58   H31   S    
C55   H25   S    
O6    V2    S    
C4    C41   S    
C49   H11   S    
C10   C30   A    
N4    H67   S    
C38   N2    S    
C72   H56   S    
C71   H57   S    
C64   C65   S    
C33   C61   S    
C66   H40   S    
O16   V4    S    
C63   H35   S    
O9    V1    S    
C53   H15   S    
C3    O13   A    
C57   H20   S    
C10   C14   A    
O17   V3    S    
C19   C55   S    
O6    C2    A    
C51   H7    S    
C23   C27   A    
C69   H47   S    
C12   H4    S    
C52   H18   S    
O11   V3    S    
O18   V4    S    
C30   C37   A    
O12   V4    S    
C7    C14   S    
C67   C68   S    
C22   C26   A    
C35   C39   A    
C36   C40   A    
N2    H63   S    
O10   C6    A    
C72   H55   S    
C68   H51   S    
C61   C62   S    
C43   C47   T    
C69   H48   S    
C5    C16   S    
C19   C23   A    
C56   H23   S    
C6    C15   S    
O20   V2    S    
C27   C31   A    
C62   H36   S    
C13   C17   A    
C58   H32   S    
C68   C69   S    
C23   C35   A    
C51   H5    S    
C50   H9    S    
C24   C28   A    
C57   H21   S    
C53   C54   S    
O12   C8    A    
C25   C26   A    
C4    O14   A    
C17   C21   A    
C18   C52   S    
C54   H12   S    
C65   H43   S    
C61   H38   S    
O4    V2    S    
C28   C32   A    
C66   H41   S    
O18   V2    S    
