data_mof_unit_18275.cif
_audit_creation_date              2012-12-11T15:53:55-0500
_audit_creation_method            fapswitch 2.2
_symmetry_space_group_name_H-M    P1
_symmetry_Int_Tables_number       1
_space_group_crystal_system       triclinic
_cell_length_a                    10.622711
_cell_length_b                    10.69739
_cell_length_c                    16.990735
_cell_angle_alpha                 80.863884
_cell_angle_beta                  99.420359
_cell_angle_gamma                 118.459464
_cell_volume                      1667.2538876

loop_
_atom_site_label
_atom_site_type_symbol
_atom_type_description
_atom_site_fract_x
_atom_site_fract_y
_atom_site_fract_z
_atom_type_partial_charge
C1    C     C_R   0.358347 0.223168 0.626242 0.548280
C2    C     C_R   0.513993 0.709653 0.735538 -0.161361
C3    C     C_R   0.492167 0.724948 0.811660 -0.143352
C4    C     C_3   0.092537 0.504877 0.768811 -0.229274
C5    C     C_3   0.115678 0.484453 0.686751 -0.131728
C6    C     C_R   0.397702 0.618741 0.685433 0.001361
C7    C     C_1   0.823141 0.656930 0.705968 -0.057485
C8    C     C_1   0.849985 0.684365 0.773914 -0.059074
C9    C     C_1   0.329856 0.157102 0.705473 -0.041161
C10   C     C_1   0.294050 0.110805 0.771826 -0.043790
C11   C     C_1   0.318524 0.681421 0.280200 -0.040783
C12   C     C_R   0.413717 0.620570 0.601674 0.567655
C13   C     C_1   0.297649 0.705398 0.209604 -0.044021
C14   C     C_R   0.824699 0.667879 0.156296 -0.001493
C15   C     C_R   0.814184 0.546899 0.205134 0.063435
C16   C     C_R   0.812038 0.539082 0.285921 0.007236
C17   C     C_R   0.834630 0.777272 0.273194 -0.150545
C18   C     C_R   0.835997 0.784338 0.190705 -0.151942
C19   C     C_3   0.699146 0.396933 0.198370 -0.039542
C20   C     C_3   0.696118 0.387081 0.287550 -0.228931
C21   C     C_R   0.819237 0.652182 0.321179 0.007971
C22   C     C_R   0.261964 0.055925 0.179625 -0.001754
C23   C     C_R   0.777852 0.619404 0.626654 0.539993
C24   C     C_R   0.159945 0.077835 0.209167 0.005927
C25   C     C_R   0.180999 0.114695 0.285545 0.016263
C26   C     C_R   0.396555 0.086325 0.311895 -0.160429
C27   C     C_R   0.374023 0.047151 0.233708 -0.159481
C28   C     C_3   0.096504 0.176376 0.176146 -0.241322
C29   C     C_3   0.116768 0.214907 0.260420 -0.241174
C30   C     C_R   0.306938 0.134187 0.335071 0.008979
C31   C     C_R   0.890463 0.701450 0.856134 0.545013
C32   C     C_R   0.316298 0.705799 0.898699 0.543017
C33   C     C_R   0.252584 0.058584 0.851075 0.558259
C34   C     C_R   0.348745 0.221615 0.401290 0.539240
C35   C     C_R   0.883046 0.690331 0.081903 0.543188
C36   C     C_R   0.285000 0.738075 0.125643 0.535103
C37   C     C_R   0.246346 0.038677 0.094958 0.549815
C38   C     C_R   0.362360 0.656570 0.361687 0.561193
C39   C     C_R   0.770639 0.621022 0.399331 0.549459
C40   C     C_R   0.353048 0.651090 0.837393 0.012164
C41   C     C_R   0.246739 0.541315 0.793504 0.010954
C42   C     C_R   0.268988 0.523783 0.718883 0.043007
Cr1   Cr    Cr6+3 0.608440 0.389080 0.519680 1.009828
Cr2   Cr    Cr6+3 0.288640 0.400090 0.490760 1.004945
Cr3   Cr    Cr6+3 0.602940 0.710800 0.489510 1.014768
Cr4   Cr    Cr6+3 0.052530 0.947560 0.964210 1.007708
Cr5   Cr    Cr6+3 0.059970 0.626800 0.992920 1.043519
Cr6   Cr    Cr6+3 0.373320 0.938440 0.995370 1.046993
H1    H     H_    0.618186 0.777113 0.713625 0.138669
H2    H     H_    0.598440 0.390157 0.163124 0.142674
H3    H     H_    0.593327 0.375508 0.303005 0.143779
H4    H     H_    0.733678 0.312210 0.322944 0.162624
H5    H     H_    0.490704 0.092569 0.350589 0.139650
H6    H     H_    0.450154 0.021435 0.214044 0.168546
H7    H     H_    0.981809 0.119858 0.152338 0.160791
H8    H     H_    0.165790 0.267738 0.135603 0.174384
H9    H     H_    0.195198 0.328882 0.267026 0.166905
H10   H     H_    0.013579 0.176797 0.286298 0.162567
H11   H     H_    0.580040 0.805755 0.846070 0.148224
H12   H     H_    0.071636 0.597505 0.767669 0.135988
H13   H     H_    0.018530 0.405652 0.802808 0.159079
H14   H     H_    0.105078 0.563441 0.638533 0.158773
H15   H     H_    0.837881 0.865677 0.298508 0.144889
H16   H     H_    0.848322 0.880825 0.154005 0.146394
O1    O     O_R   0.754020 0.497590 0.609930 -0.507983
O2    O     O_R   0.295080 0.533620 0.397890 -0.495169
O3    O     O_R   0.485280 0.746620 0.388440 -0.505328
O4    O     O_R   0.720550 0.696220 0.420010 -0.500829
O5    O     O_3   0.500010 0.499990 0.499980 -0.268788
O6    O     O_R   0.163320 0.092900 0.874450 -0.498464
O7    O     O_R   0.934650 0.822080 0.882840 -0.513100
O8    O     O_R   0.915520 0.604140 0.893670 -0.502806
O9    O     O_R   0.191760 0.638110 0.923230 -0.496676
O10   O     O_R   0.406180 0.826930 0.920660 -0.519917
O11   O     O_R   0.358620 0.062870 0.901950 -0.472683
O12   O     O_R   0.481420 0.271390 0.600630 -0.489005
O13   O     O_R   0.163910 0.085460 0.050210 -0.505689
O14   O     O_R   0.935200 0.815170 0.045770 -0.527762
O15   O     O_R   0.916120 0.596690 0.069430 -0.477268
O16   O     O_R   0.192310 0.631200 0.086170 -0.477702
O17   O     O_R   0.406770 0.819480 0.096420 -0.502362
O18   O     O_R   0.359170 0.055960 0.064880 -0.485654
O19   O     O_3   0.161940 0.837600 0.984160 -0.317539
O20   O     O_R   0.263810 0.254550 0.589590 -0.531700
O21   O     O_R   0.300820 0.531200 0.560890 -0.507381
O22   O     O_R   0.491480 0.744020 0.564270 -0.513231
O23   O     O_R   0.726290 0.693800 0.583010 -0.518135
O24   O     O_R   0.747830 0.500190 0.434090 -0.519472
O25   O     O_R   0.475680 0.273800 0.437630 -0.509299
O26   O     O_R   0.257620 0.257160 0.413750 -0.517775
C43   C     C_3   0.029343 0.329692 0.665682 -0.376762
H17   H     H_    0.052611 0.255698 0.712233 0.158234
H18   H     H_    0.912517 0.297563 0.660463 0.138818
H19   H     H_    0.055916 0.320182 0.607192 0.175666
I1    I     I_    0.775736 0.262726 0.164490 -0.424804

loop_
_geom_bond_atom_site_label_1
_geom_bond_atom_site_label_2
_ccdc_geom_bond_type
C5    C42   S    
C16   C21   A    
C39   O4    A    
C14   C18   A    
Cr2   O2    S    
C19   C20   S    
Cr5   O15   S    
C28   H8    S    
C27   H6    S    
Cr2   O26   S    
C7    C8    T    
C1    O20   A    
C15   C19   S    
C26   C27   A    
Cr1   O25   S    
C12   O21   A    
Cr1   O24   S    
C39   O24   A    
C28   C29   S    
Cr3   O23   S    
C20   H3    S    
C6    C12   S    
C4    C41   S    
C15   C16   A    
Cr1   O12   S    
Cr6   O17   S    
C41   C42   A    
C33   O11   A    
C38   O2    A    
Cr3   O3    S    
Cr5   O19   S    
C9    C10   T    
C43   H17   S    
Cr1   O1    S    
C31   O7    A    
Cr1   O5    S    
C23   O23   A    
C8    C31   S    
Cr6   O11   S    
C2    C6    A    
Cr5   O16   S    
C28   H7    S    
C25   C29   S    
C30   C34   S    
Cr3   O5    S    
Cr6   O10   S    
C1    C9    S    
C24   C25   A    
Cr5   O9    S    
C13   C36   S    
C36   O16   A    
C32   O9    A    
Cr4   O14   S    
C22   C37   S    
C37   O13   A    
C4    H13   S    
C17   C21   A    
C11   C38   S    
C34   O26   A    
C2    H1    S    
C43   H18   S    
C21   C39   S    
C36   O17   A    
C16   C20   S    
C4    H12   S    
Cr3   O4    S    
C17   C18   A    
Cr2   O5    S    
C38   O3    A    
Cr4   O7    S    
C5    C43   S    
C33   O6    A    
C40   C41   A    
C29   H9    S    
C3    C40   A    
C26   C30   A    
C22   C27   A    
C22   C24   A    
C37   O18   A    
Cr2   O21   S    
C26   H5    S    
C14   C35   S    
C19   I1    S    
C25   C30   A    
C31   O8    A    
C1    O12   A    
C24   C28   S    
C4    C5    S    
Cr2   O20   S    
Cr4   O13   S    
C35   O14   A    
Cr6   O19   S    
C12   O22   A    
C23   O1    A    
C2    C3    A    
C34   O25   A    
C20   H4    S    
C17   H15   S    
C43   H19   S    
C32   O10   A    
C11   C13   T    
C19   H2    S    
C18   H16   S    
C7    C23   S    
C35   O15   A    
Cr6   O18   S    
C5    H14   S    
Cr3   O22   S    
C10   C33   S    
C32   C40   S    
Cr5   O8    S    
Cr4   O6    S    
Cr4   O19   S    
C29   H10   S    
C6    C42   A    
C14   C15   A    
C3    H11   S    
