data_mof_unit_7783.cif
_audit_creation_date              2012-10-26T20:43:06-0400
_audit_creation_method            fapswitch 2.2
_symmetry_space_group_name_H-M    P1
_symmetry_Int_Tables_number       1
_space_group_crystal_system       triclinic
_cell_length_a                    10.892112
_cell_length_b                    9.669721
_cell_length_c                    15.083419
_cell_angle_alpha                 90.031159
_cell_angle_beta                  95.294826
_cell_angle_gamma                 89.968582
_cell_volume                      1581.86215078

loop_
_atom_site_label
_atom_site_type_symbol
_atom_type_description
_atom_site_fract_x
_atom_site_fract_y
_atom_site_fract_z
_atom_type_partial_charge
C1    C     C_R   0.262515 0.500028 0.500188 0.582204
C2    C     C_R   0.128487 0.500051 0.500640 -0.105484
C3    C     C_R   0.420724 0.074171 0.440730 0.150565
C4    C     C_R   0.579276 0.925829 0.559270 0.150565
C5    C     C_R   0.579106 0.074188 0.559389 0.150877
C6    C     C_R   0.420893 0.925812 0.440611 0.150877
C7    C     C_R   0.499509 0.499973 0.328857 0.528756
C8    C     C_R   0.500490 0.500027 0.671143 0.528757
C9    C     C_R   0.507813 0.625559 0.815120 -0.095442
C10   C     C_R   0.492187 0.374441 0.184880 -0.095442
C11   C     C_R   0.500584 0.500082 0.768158 -0.015828
C12   C     C_R   0.737485 0.499972 0.499812 0.582204
C13   C     C_R   0.499415 0.499917 0.231842 -0.015829
C14   C     C_R   0.493180 0.374695 0.814078 -0.119370
C15   C     C_R   0.506820 0.625305 0.185921 -0.119370
C16   C     C_R   0.492756 0.373893 0.906427 -0.047605
C17   C     C_R   0.507244 0.626107 0.093573 -0.047605
C18   C     C_R   0.500181 0.500175 0.953498 -0.008790
C19   C     C_R   0.499819 0.499825 0.046502 -0.008790
C20   C     C_R   0.507905 0.626741 0.907651 0.034654
C21   C     C_R   0.492095 0.373258 0.092348 0.034654
C22   C     C_R   0.484832 0.248805 0.952355 -0.062541
C23   C     C_R   0.484467 0.248161 0.044764 0.389328
C24   C     C_R   0.515168 0.751195 0.047645 -0.062541
C25   C     C_3   0.329941 0.146002 0.373252 -0.306032
C26   C     C_3   0.670059 0.853998 0.626748 -0.306032
C27   C     C_3   0.668152 0.146094 0.628031 -0.301794
C28   C     C_3   0.331848 0.853905 0.371968 -0.301794
C29   C     C_R   0.515533 0.751839 0.955236 0.389328
C30   C     C_R   0.063915 0.374356 0.502709 0.341415
C31   C     C_R   0.936085 0.625644 0.497291 0.341415
C32   C     C_R   0.936787 0.374287 0.501496 0.341645
C33   C     C_R   0.063213 0.625713 0.498504 0.341645
C34   C     C_R   0.871513 0.499949 0.499360 -0.105484
Cu1   Cu    Cu3+1 0.500000 0.640660 0.500000 1.000648
Cu2   Cu    Cu3+1 0.500000 0.359340 0.500000 1.000648
F1    F     F_    0.476451 0.125390 0.087493 -0.643702
F2    F     F_    0.523549 0.874610 0.912506 -0.643703
F3    F     F_    0.122800 0.250406 0.506578 -0.557378
F4    F     F_    0.877200 0.749594 0.493422 -0.557378
F5    F     F_    0.878638 0.250192 0.502067 -0.559592
F6    F     F_    0.121362 0.749808 0.497933 -0.559592
H1    H     H_    0.513393 0.722376 0.779623 0.186635
H2    H     H_    0.671780 0.742120 0.625004 0.196536
H3    H     H_    0.765678 0.884696 0.616333 0.184174
H4    H     H_    0.650136 0.882107 0.695291 0.100731
H5    H     H_    0.672109 0.257806 0.624738 0.200706
H6    H     H_    0.644212 0.120723 0.696083 0.091413
H7    H     H_    0.764075 0.113027 0.620652 0.182178
H8    H     H_    0.327891 0.742194 0.375262 0.200706
H9    H     H_    0.235925 0.886972 0.379348 0.182178
H10   H     H_    0.355788 0.879277 0.303917 0.091413
H11   H     H_    0.486607 0.277624 0.220377 0.186635
H12   H     H_    0.487230 0.277487 0.778086 0.148022
H13   H     H_    0.512770 0.722513 0.221914 0.148022
H14   H     H_    0.478778 0.151460 0.916643 0.201764
H15   H     H_    0.521222 0.848540 0.083357 0.201764
H16   H     H_    0.328220 0.257880 0.374996 0.196536
H17   H     H_    0.349864 0.117893 0.304709 0.100731
H18   H     H_    0.234322 0.115304 0.383667 0.184174
N1    N     N_R   0.500000 0.852070 0.500000 -0.215749
N2    N     N_R   0.500000 0.147930 0.500000 -0.215749
O1    O     O_R   0.319640 0.618740 0.499990 -0.458268
O2    O     O_R   0.680360 0.381260 0.500010 -0.458268
O3    O     O_R   0.680360 0.618740 0.500010 -0.459044
O4    O     O_R   0.319640 0.381260 0.499990 -0.459044
O5    O     O_R   0.499970 0.618800 0.370260 -0.526565
O6    O     O_R   0.500030 0.381200 0.629740 -0.526565
O7    O     O_R   0.500030 0.618800 0.629740 -0.529066
O8    O     O_R   0.499970 0.381200 0.370260 -0.529065

loop_
_geom_bond_atom_site_label_1
_geom_bond_atom_site_label_2
_ccdc_geom_bond_type
C29   F2    S    
C30   F3    S    
C4    C26   S    
C32   F5    S    
Cu2   O6    S    
C4    N1    A    
C32   C34   A    
C25   H17   S    
C25   H18   S    
C9    C11   A    
C12   O3    A    
C1    C2    S    
C9    C20   A    
Cu1   Cu2   S    
Cu1   O5    S    
C2    C30   A    
C3    C6    A    
C7    O8    A    
C21   C23   A    
C1    O4    A    
C31   C34   A    
C26   H2    S    
Cu1   N1    S    
C23   F1    S    
C30   C32   A    
C28   H10   S    
C5    C27   S    
Cu1   O7    S    
C8    O7    A    
C8    C11   S    
Cu2   N2    S    
C33   F6    S    
C1    O1    A    
C2    C33   A    
C14   H12   S    
Cu2   O8    S    
C5    N2    A    
C8    O6    A    
C18   C20   A    
C20   C29   A    
C13   C15   A    
C10   C21   A    
C12   O2    A    
C28   H9    S    
Cu2   O4    S    
C9    H1    S    
C17   C24   A    
C25   H16   S    
C26   H4    S    
C12   C34   S    
C7    C13   S    
C3    C25   S    
C31   F4    S    
C6    N1    A    
C7    O5    A    
C16   C18   A    
C18   C19   A    
C3    N2    A    
C27   H5    S    
C11   C14   A    
C15   C17   A    
C10   H11   S    
Cu1   O3    S    
C24   C29   A    
C24   H15   S    
C31   C33   A    
C22   H14   S    
C27   H6    S    
C26   H3    S    
C17   C19   A    
C14   C16   A    
Cu2   O2    S    
C28   H8    S    
Cu1   O1    S    
C22   C23   A    
C6    C28   S    
C27   H7    S    
C16   C22   A    
C4    C5    A    
C19   C21   A    
C10   C13   A    
C15   H13   S    
